MODEL        1
REMARK 921   NORMALIZED FREE ENERGY PREDICTED BY IDOCK:   -5.78 KCAL/MOL
REMARK 922        TOTAL FREE ENERGY PREDICTED BY IDOCK:  -10.87 KCAL/MOL
REMARK 923 INTER-LIGAND FREE ENERGY PREDICTED BY IDOCK:   -9.83 KCAL/MOL
REMARK 924 INTRA-LIGAND FREE ENERGY PREDICTED BY IDOCK:   -1.04 KCAL/MOL
REMARK 927      BINDING AFFINITY PREDICTED BY RF-SCORE:    0.00 PKD
ROOT
HETATM    1  C   UNL     1      -7.123   7.285  66.678  1.00  0.00    -0.078 C  
HETATM    2  N   UNL     1      -8.556   7.116  66.902  1.00  0.00    -0.121 N  
HETATM    3  O   UNL     1      -8.645   5.117  65.765  1.00  0.00    -0.125 OA 
HETATM    4  C   UNL     1      -9.228   6.007  66.380  1.00  0.00    -0.151 C  
ENDROOT
BRANCH   2   5
HETATM    5  C   UNL     1      -9.194   8.129  67.684  1.00  0.00    -0.137 A  
HETATM    6  I   UNL     1      -8.326   6.248  69.985  1.00  0.00    -0.132 I  
HETATM    7  C   UNL     1      -9.642   9.323  67.063  1.00  0.00    -0.171 A  
HETATM    8  C   UNL     1     -10.328  10.299  67.815  1.00  0.00    -0.246 A  
HETATM    9  C   UNL     1      -9.376   7.935  69.078  1.00  0.00    -0.151 A  
HETATM   10  I   UNL     1      -9.201   9.603  64.958  1.00  0.00    -0.210 I  
HETATM   11  C   UNL     1     -10.127   8.863  69.845  1.00  0.00    -0.204 A  
HETATM   12  I   UNL     1     -12.151  11.225  70.169  1.00  0.00    -0.399 I  
HETATM   13  C   UNL     1     -10.639  10.013  69.181  1.00  0.00    -0.218 A  
BRANCH   8  14
HETATM   14  C   UNL     1     -10.577  11.672  67.276  1.00  0.00    -0.228 C  
HETATM   15  H   UNL     1      -9.933  13.527  67.369  1.00  0.00     0.000 HD 
HETATM   16  O   UNL     1      -9.774  12.656  67.712  1.00  0.00    -0.195 OA 
BRANCH  14  17
HETATM   17  N   UNL     1     -11.522  11.903  66.444  1.00  0.00    -0.435 NA 
HETATM   18  H   UNL     1     -11.919  11.150  65.881  1.00  0.00     0.000 HD 
BRANCH  17  19
HETATM   19  C   UNL     1     -12.022  13.281  66.319  1.00  0.00    -0.417 C  
BRANCH  19  20
HETATM   20  C   UNL     1     -11.798  13.774  64.884  1.00  0.00    -0.375 C  
HETATM   21  H   UNL     1     -10.296  14.487  63.826  1.00  0.00     0.000 HD 
HETATM   22  O   UNL     1     -10.435  14.182  64.715  1.00  0.00    -0.420 OA 
BRANCH  20  23
HETATM   23  C   UNL     1     -12.166  12.688  63.860  1.00  0.00    -0.481 C  
HETATM   24  O   UNL     1     -13.438  12.106  64.143  1.00  0.00    -0.671 OA 
HETATM   25  H   UNL     1     -13.665  11.434  63.510  1.00  0.00     0.000 HD 
ENDBRANCH  20  23
ENDBRANCH  19  20
ENDBRANCH  17  19
ENDBRANCH  14  17
ENDBRANCH   8  14
BRANCH  11  26
HETATM   26  C   UNL     1     -10.347   8.605  71.308  1.00  0.00    -0.239 C  
HETATM   27  O   UNL     1      -9.437   9.141  72.149  1.00  0.00    -0.291 OA 
HETATM   28  H   UNL     1      -9.576   8.978  73.075  1.00  0.00     0.000 HD 
BRANCH  26  29
HETATM   29  N   UNL     1     -11.297   7.869  71.753  1.00  0.00    -0.254 NA 
HETATM   30  H   UNL     1     -11.390   7.694  72.753  1.00  0.00     0.000 HD 
BRANCH  29  31
HETATM   31  C   UNL     1     -12.251   7.281  70.801  1.00  0.00    -0.217 C  
BRANCH  31  32
HETATM   32  C   UNL     1     -13.659   7.098  71.415  1.00  0.00    -0.275 C  
HETATM   33  O   UNL     1     -13.648   6.234  72.562  1.00  0.00    -0.337 OA 
HETATM   34  H   UNL     1     -14.513   6.121  72.939  1.00  0.00     0.000 HD 
BRANCH  32  35
HETATM   35  C   UNL     1     -14.230   8.458  71.851  1.00  0.00    -0.460 C  
HETATM   36  O   UNL     1     -14.013   8.720  73.238  1.00  0.00    -1.160 OA 
HETATM   37  H   UNL     1     -14.365   9.559  73.507  1.00  0.00     0.000 HD 
ENDBRANCH  32  35
ENDBRANCH  31  32
ENDBRANCH  29  31
ENDBRANCH  26  29
ENDBRANCH  11  26
ENDBRANCH   2   5
BRANCH   4  38
HETATM   38  C   UNL     1     -10.754   5.929  66.569  1.00  0.00    -0.181 C  
HETATM   39  O   UNL     1     -11.335   4.957  65.721  1.00  0.00    -0.849 OA 
HETATM   40  H   UNL     1     -12.277   4.909  65.838  1.00  0.00     0.000 HD 
ENDBRANCH   4  38
TORSDOF 12
ENDMDL
MODEL        2
REMARK 921   NORMALIZED FREE ENERGY PREDICTED BY IDOCK:   -5.64 KCAL/MOL
REMARK 922        TOTAL FREE ENERGY PREDICTED BY IDOCK:  -10.64 KCAL/MOL
REMARK 923 INTER-LIGAND FREE ENERGY PREDICTED BY IDOCK:   -9.87 KCAL/MOL
REMARK 924 INTRA-LIGAND FREE ENERGY PREDICTED BY IDOCK:   -0.77 KCAL/MOL
REMARK 927      BINDING AFFINITY PREDICTED BY RF-SCORE:    0.00 PKD
ROOT
HETATM    1  C   UNL     1     -12.692   7.183  71.309  1.00  0.00    -0.366 C  
HETATM    2  N   UNL     1     -11.331   7.712  71.308  1.00  0.00    -0.259 N  
HETATM    3  O   UNL     1     -10.908   7.029  73.463  1.00  0.00    -0.341 OA 
HETATM    4  C   UNL     1     -10.529   7.605  72.447  1.00  0.00    -0.248 C  
ENDROOT
BRANCH   2   5
HETATM    5  C   UNL     1     -10.891   8.312  70.086  1.00  0.00    -0.237 A  
HETATM    6  I   UNL     1     -10.089   5.385  69.476  1.00  0.00    -0.322 I  
HETATM    7  C   UNL     1     -11.186   9.675  69.823  1.00  0.00    -0.174 A  
HETATM    8  C   UNL     1     -10.702  10.290  68.650  1.00  0.00    -0.255 A  
HETATM    9  C   UNL     1     -10.161   7.543  69.144  1.00  0.00    -0.192 A  
HETATM   10  I   UNL     1     -12.425  10.742  71.247  1.00  0.00    -0.405 I  
HETATM   11  C   UNL     1      -9.598   8.152  67.993  1.00  0.00    -0.174 A  
HETATM   12  I   UNL     1      -8.653  10.622  66.323  1.00  0.00    -0.177 I  
HETATM   13  C   UNL     1      -9.836   9.542  67.793  1.00  0.00    -0.160 A  
BRANCH   8  14
HETATM   14  C   UNL     1     -11.205  11.626  68.202  1.00  0.00    -0.263 C  
HETATM   15  H   UNL     1     -10.965  13.558  68.476  1.00  0.00     0.000 HD 
HETATM   16  O   UNL     1     -10.645  12.710  68.761  1.00  0.00    -0.237 OA 
BRANCH  14  17
HETATM   17  N   UNL     1     -12.138  11.733  67.331  1.00  0.00    -0.530 NA 
HETATM   18  H   UNL     1     -12.797  10.970  67.176  1.00  0.00     0.000 HD 
BRANCH  17  19
HETATM   19  C   UNL     1     -12.235  12.981  66.559  1.00  0.00    -0.246 C  
BRANCH  19  20
HETATM   20  C   UNL     1     -12.045  12.673  65.069  1.00  0.00    -0.444 C  
HETATM   21  H   UNL     1     -13.182  12.125  63.557  1.00  0.00     0.000 HD 
HETATM   22  O   UNL     1     -13.300  12.316  64.480  1.00  0.00    -0.769 OA 
BRANCH  20  23
HETATM   23  C   UNL     1     -11.424  13.871  64.330  1.00  0.00    -0.318 C  
HETATM   24  O   UNL     1     -12.425  14.734  63.791  1.00  0.00    -1.045 OA 
HETATM   25  H   UNL     1     -12.041  15.473  63.334  1.00  0.00     0.000 HD 
ENDBRANCH  20  23
ENDBRANCH  19  20
ENDBRANCH  17  19
ENDBRANCH  14  17
ENDBRANCH   8  14
BRANCH  11  26
HETATM   26  C   UNL     1      -8.786   7.323  67.040  1.00  0.00    -0.128 C  
HETATM   27  O   UNL     1      -7.490   7.138  67.367  1.00  0.00    -0.095 OA 
HETATM   28  H   UNL     1      -6.976   6.614  66.764  1.00  0.00     0.000 HD 
BRANCH  26  29
HETATM   29  N   UNL     1      -9.256   6.863  65.940  1.00  0.00    -0.372 NA 
HETATM   30  H   UNL     1      -9.929   7.404  65.398  1.00  0.00     0.000 HD 
BRANCH  29  31
HETATM   31  C   UNL     1      -8.811   5.541  65.470  1.00  0.00    -0.144 C  
BRANCH  31  32
HETATM   32  C   UNL     1      -9.952   4.497  65.482  1.00  0.00    -0.215 C  
HETATM   33  O   UNL     1     -11.245   5.100  65.643  1.00  0.00    -0.802 OA 
HETATM   34  H   UNL     1     -11.946   4.458  65.651  1.00  0.00     0.000 HD 
BRANCH  32  35
HETATM   35  C   UNL     1      -9.960   3.702  64.165  1.00  0.00    -0.192 C  
HETATM   36  O   UNL     1     -10.534   4.442  63.087  1.00  0.00    -0.412 OA 
HETATM   37  H   UNL     1     -10.540   3.952  62.274  1.00  0.00     0.000 HD 
ENDBRANCH  32  35
ENDBRANCH  31  32
ENDBRANCH  29  31
ENDBRANCH  26  29
ENDBRANCH  11  26
ENDBRANCH   2   5
BRANCH   4  38
HETATM   38  C   UNL     1      -9.138   8.263  72.418  1.00  0.00    -0.237 C  
HETATM   39  O   UNL     1      -8.213   7.560  73.226  1.00  0.00    -0.109 OA 
HETATM   40  H   UNL     1      -7.354   7.966  73.208  1.00  0.00     0.000 HD 
ENDBRANCH   4  38
TORSDOF 12
ENDMDL
MODEL        3
REMARK 921   NORMALIZED FREE ENERGY PREDICTED BY IDOCK:   -5.62 KCAL/MOL
REMARK 922        TOTAL FREE ENERGY PREDICTED BY IDOCK:  -10.60 KCAL/MOL
REMARK 923 INTER-LIGAND FREE ENERGY PREDICTED BY IDOCK:   -9.60 KCAL/MOL
REMARK 924 INTRA-LIGAND FREE ENERGY PREDICTED BY IDOCK:   -1.00 KCAL/MOL
REMARK 927      BINDING AFFINITY PREDICTED BY RF-SCORE:    0.00 PKD
ROOT
HETATM    1  C   UNL     1      -8.395   7.493  64.730  1.00  0.00    -0.006 C  
HETATM    2  N   UNL     1      -7.824   8.719  65.280  1.00  0.00    -0.104 N  
HETATM    3  O   UNL     1      -6.023   8.693  63.849  1.00  0.00    -0.070 OA 
HETATM    4  C   UNL     1      -6.618   9.222  64.784  1.00  0.00    -0.076 C  
ENDROOT
BRANCH   2   5
HETATM    5  C   UNL     1      -8.578   9.353  66.318  1.00  0.00    -0.131 A  
HETATM    6  I   UNL     1      -6.685   7.661  68.090  1.00  0.00    -0.062 I  
HETATM    7  C   UNL     1      -9.508  10.373  65.992  1.00  0.00    -0.185 A  
HETATM    8  C   UNL     1     -10.300  10.958  67.001  1.00  0.00    -0.276 A  
HETATM    9  C   UNL     1      -8.391   8.959  67.668  1.00  0.00    -0.110 A  
HETATM   10  I   UNL     1      -9.632  11.015  63.924  1.00  0.00    -0.344 I  
HETATM   11  C   UNL     1      -9.224   9.475  68.693  1.00  0.00    -0.135 A  
HETATM   12  I   UNL     1     -11.790  10.925  69.740  1.00  0.00    -0.445 I  
HETATM   13  C   UNL     1     -10.209  10.436  68.328  1.00  0.00    -0.160 A  
BRANCH   8  14
HETATM   14  C   UNL     1     -11.088  12.206  66.754  1.00  0.00    -0.300 C  
HETATM   15  H   UNL     1     -12.807  12.854  66.052  1.00  0.00     0.000 HD 
HETATM   16  O   UNL     1     -12.307  12.062  66.209  1.00  0.00    -0.432 OA 
BRANCH  14  17
HETATM   17  N   UNL     1     -10.618  13.362  67.037  1.00  0.00    -0.263 NA 
HETATM   18  H   UNL     1     -10.690  13.739  67.982  1.00  0.00     0.000 HD 
BRANCH  17  19
HETATM   19  C   UNL     1      -9.971  14.135  65.965  1.00  0.00    -0.322 C  
BRANCH  19  20
HETATM   20  C   UNL     1     -10.779  15.412  65.701  1.00  0.00    -0.369 C  
HETATM   21  H   UNL     1     -10.395  17.309  65.337  1.00  0.00     0.000 HD 
HETATM   22  O   UNL     1      -9.894  16.518  65.500  1.00  0.00    -0.537 OA 
BRANCH  20  23
HETATM   23  C   UNL     1     -11.709  15.239  64.488  1.00  0.00    -0.305 C  
HETATM   24  O   UNL     1     -11.760  16.421  63.690  1.00  0.00    -1.520 OA 
HETATM   25  H   UNL     1     -12.334  16.313  62.941  1.00  0.00     0.000 HD 
ENDBRANCH  20  23
ENDBRANCH  19  20
ENDBRANCH  17  19
ENDBRANCH  14  17
ENDBRANCH   8  14
BRANCH  11  26
HETATM   26  C   UNL     1      -9.037   9.001  70.106  1.00  0.00    -0.188 C  
HETATM   27  O   UNL     1      -8.394   9.847  70.937  1.00  0.00    -0.361 OA 
HETATM   28  H   UNL     1      -8.275   9.547  71.831  1.00  0.00     0.000 HD 
BRANCH  26  29
HETATM   29  N   UNL     1      -9.400   7.839  70.507  1.00  0.00    -0.163 NA 
HETATM   30  H   UNL     1      -8.873   7.010  70.234  1.00  0.00     0.000 HD 
BRANCH  29  31
HETATM   31  C   UNL     1     -10.588   7.717  71.366  1.00  0.00    -0.213 C  
BRANCH  31  32
HETATM   32  C   UNL     1     -11.586   6.657  70.846  1.00  0.00    -0.361 C  
HETATM   33  O   UNL     1     -12.910   7.186  70.678  1.00  0.00    -0.609 OA 
HETATM   34  H   UNL     1     -13.524   6.535  70.358  1.00  0.00     0.000 HD 
BRANCH  32  35
HETATM   35  C   UNL     1     -11.119   6.109  69.486  1.00  0.00    -0.420 C  
HETATM   36  O   UNL     1     -11.535   6.932  68.396  1.00  0.00    -0.529 OA 
HETATM   37  H   UNL     1     -11.247   6.594  67.556  1.00  0.00     0.000 HD 
ENDBRANCH  32  35
ENDBRANCH  31  32
ENDBRANCH  29  31
ENDBRANCH  26  29
ENDBRANCH  11  26
ENDBRANCH   2   5
BRANCH   4  38
HETATM   38  C   UNL     1      -6.018  10.466  65.464  1.00  0.00    -0.123 C  
HETATM   39  O   UNL     1      -5.238  11.227  64.562  1.00  0.00    -0.482 OA 
HETATM   40  H   UNL     1      -4.868  11.995  64.982  1.00  0.00     0.000 HD 
ENDBRANCH   4  38
TORSDOF 12
ENDMDL
MODEL        4
REMARK 921   NORMALIZED FREE ENERGY PREDICTED BY IDOCK:   -5.61 KCAL/MOL
REMARK 922        TOTAL FREE ENERGY PREDICTED BY IDOCK:  -10.58 KCAL/MOL
REMARK 923 INTER-LIGAND FREE ENERGY PREDICTED BY IDOCK:   -9.87 KCAL/MOL
REMARK 924 INTRA-LIGAND FREE ENERGY PREDICTED BY IDOCK:   -0.71 KCAL/MOL
REMARK 927      BINDING AFFINITY PREDICTED BY RF-SCORE:    0.00 PKD
ROOT
HETATM    1  C   UNL     1      -7.554   8.069  69.847  1.00  0.00    -0.087 C  
HETATM    2  N   UNL     1      -8.901   7.933  69.300  1.00  0.00    -0.141 N  
HETATM    3  O   UNL     1      -8.900   5.640  69.481  1.00  0.00    -0.111 OA 
HETATM    4  C   UNL     1      -9.473   6.669  69.135  1.00  0.00    -0.136 C  
ENDROOT
BRANCH   2   5
HETATM    5  C   UNL     1      -9.574   9.153  68.975  1.00  0.00    -0.156 A  
HETATM    6  I   UNL     1      -8.338   8.553  66.200  1.00  0.00    -0.161 I  
HETATM    7  C   UNL     1     -10.435   9.759  69.925  1.00  0.00    -0.261 A  
HETATM    8  C   UNL     1     -11.051  10.994  69.636  1.00  0.00    -0.320 A  
HETATM    9  C   UNL     1      -9.375   9.752  67.704  1.00  0.00    -0.140 A  
HETATM   10  I   UNL     1     -10.794   8.711  71.789  1.00  0.00    -0.433 I  
HETATM   11  C   UNL     1      -9.921  11.028  67.413  1.00  0.00    -0.209 A  
HETATM   12  I   UNL     1     -11.198  13.767  68.217  1.00  0.00    -0.372 I  
HETATM   13  C   UNL     1     -10.714  11.656  68.415  1.00  0.00    -0.217 A  
BRANCH   8  14
HETATM   14  C   UNL     1     -12.163  11.532  70.482  1.00  0.00    -0.377 C  
HETATM   15  H   UNL     1     -14.060  11.265  70.921  1.00  0.00     0.000 HD 
HETATM   16  O   UNL     1     -13.355  10.923  70.384  1.00  0.00     0.035 OA 
BRANCH  14  17
HETATM   17  N   UNL     1     -11.989  12.537  71.255  1.00  0.00    -0.007 NA 
HETATM   18  H   UNL     1     -11.068  12.749  71.639  1.00  0.00     0.000 HD 
BRANCH  17  19
HETATM   19  C   UNL     1     -13.151  13.381  71.576  1.00  0.00    -0.342 C  
BRANCH  19  20
HETATM   20  C   UNL     1     -12.674  14.804  71.889  1.00  0.00    -0.328 C  
HETATM   21  H   UNL     1     -13.008  16.619  71.198  1.00  0.00     0.000 HD 
HETATM   22  O   UNL     1     -13.304  15.737  71.004  1.00  0.00    -0.580 OA 
BRANCH  20  23
HETATM   23  C   UNL     1     -12.960  15.175  73.355  1.00  0.00    -0.518 C  
HETATM   24  O   UNL     1     -11.942  14.690  74.229  1.00  0.00    -0.602 OA 
HETATM   25  H   UNL     1     -12.119  14.919  75.134  1.00  0.00     0.000 HD 
ENDBRANCH  20  23
ENDBRANCH  19  20
ENDBRANCH  17  19
ENDBRANCH  14  17
ENDBRANCH   8  14
BRANCH  11  26
HETATM   26  C   UNL     1      -9.652  11.660  66.077  1.00  0.00    -0.228 C  
HETATM   27  O   UNL     1      -8.463  12.284  65.943  1.00  0.00    -0.298 OA 
HETATM   28  H   UNL     1      -8.293  12.684  65.098  1.00  0.00     0.000 HD 
BRANCH  26  29
HETATM   29  N   UNL     1     -10.511  11.676  65.126  1.00  0.00    -0.268 NA 
HETATM   30  H   UNL     1     -11.091  10.859  64.939  1.00  0.00     0.000 HD 
BRANCH  29  31
HETATM   31  C   UNL     1     -10.650  12.892  64.309  1.00  0.00    -0.408 C  
BRANCH  31  32
HETATM   32  C   UNL     1     -12.124  13.334  64.157  1.00  0.00    -0.432 C  
HETATM   33  O   UNL     1     -12.326  14.187  63.019  1.00  0.00    -1.070 OA 
HETATM   34  H   UNL     1     -13.231  14.459  62.925  1.00  0.00     0.000 HD 
BRANCH  32  35
HETATM   35  C   UNL     1     -13.035  12.105  63.995  1.00  0.00    -0.179 C  
HETATM   36  O   UNL     1     -12.660  11.292  62.882  1.00  0.00    -0.917 OA 
HETATM   37  H   UNL     1     -13.222  10.534  62.782  1.00  0.00     0.000 HD 
ENDBRANCH  32  35
ENDBRANCH  31  32
ENDBRANCH  29  31
ENDBRANCH  26  29
ENDBRANCH  11  26
ENDBRANCH   2   5
BRANCH   4  38
HETATM   38  C   UNL     1     -10.859   6.582  68.469  1.00  0.00    -0.288 C  
HETATM   39  O   UNL     1     -10.821   5.804  67.288  1.00  0.00    -0.317 OA 
HETATM   40  H   UNL     1     -11.676   5.750  66.877  1.00  0.00     0.000 HD 
ENDBRANCH   4  38
TORSDOF 12
ENDMDL
MODEL        5
REMARK 921   NORMALIZED FREE ENERGY PREDICTED BY IDOCK:   -5.58 KCAL/MOL
REMARK 922        TOTAL FREE ENERGY PREDICTED BY IDOCK:  -10.53 KCAL/MOL
REMARK 923 INTER-LIGAND FREE ENERGY PREDICTED BY IDOCK:   -9.46 KCAL/MOL
REMARK 924 INTRA-LIGAND FREE ENERGY PREDICTED BY IDOCK:   -1.07 KCAL/MOL
REMARK 927      BINDING AFFINITY PREDICTED BY RF-SCORE:    0.00 PKD
ROOT
HETATM    1  C   UNL     1      -8.362   7.657  64.591  1.00  0.00     0.003 C  
HETATM    2  N   UNL     1      -7.957   8.835  65.353  1.00  0.00    -0.106 N  
HETATM    3  O   UNL     1      -5.840   8.868  64.454  1.00  0.00    -0.064 OA 
HETATM    4  C   UNL     1      -6.663   9.347  65.230  1.00  0.00    -0.079 C  
ENDROOT
BRANCH   2   5
HETATM    5  C   UNL     1      -8.960   9.416  66.193  1.00  0.00    -0.161 A  
HETATM    6  I   UNL     1      -9.639  10.907  63.565  1.00  0.00    -0.432 I  
HETATM    7  C   UNL     1      -9.150   8.923  67.509  1.00  0.00    -0.133 A  
HETATM    8  C   UNL     1     -10.091   9.532  68.364  1.00  0.00    -0.199 A  
HETATM    9  C   UNL     1      -9.758  10.483  65.705  1.00  0.00    -0.223 A  
HETATM   10  I   UNL     1      -7.987   7.201  68.129  1.00  0.00    -0.121 I  
HETATM   11  C   UNL     1     -10.659  11.162  66.564  1.00  0.00    -0.314 A  
HETATM   12  I   UNL     1     -11.775  11.953  69.377  1.00  0.00    -0.348 I  
HETATM   13  C   UNL     1     -10.771  10.703  67.907  1.00  0.00    -0.248 A  
BRANCH   8  14
HETATM   14  C   UNL     1     -10.515   8.889  69.647  1.00  0.00    -0.216 C  
HETATM   15  H   UNL     1     -10.134   8.852  71.575  1.00  0.00     0.000 HD 
HETATM   16  O   UNL     1      -9.865   9.260  70.761  1.00  0.00    -0.243 OA 
BRANCH  14  17
HETATM   17  N   UNL     1     -11.449   8.013  69.681  1.00  0.00    -0.380 NA 
HETATM   18  H   UNL     1     -12.386   8.235  69.343  1.00  0.00     0.000 HD 
BRANCH  17  19
HETATM   19  C   UNL     1     -11.137   6.680  70.218  1.00  0.00    -0.326 C  
BRANCH  19  20
HETATM   20  C   UNL     1     -11.937   6.452  71.507  1.00  0.00    -0.273 C  
HETATM   21  H   UNL     1     -11.545   6.245  73.426  1.00  0.00     0.000 HD 
HETATM   22  O   UNL     1     -11.049   6.386  72.628  1.00  0.00    -0.244 OA 
BRANCH  20  23
HETATM   23  C   UNL     1     -12.984   7.560  71.713  1.00  0.00    -0.328 C  
HETATM   24  O   UNL     1     -12.509   8.577  72.593  1.00  0.00    -0.527 OA 
HETATM   25  H   UNL     1     -13.156   9.261  72.720  1.00  0.00     0.000 HD 
ENDBRANCH  20  23
ENDBRANCH  19  20
ENDBRANCH  17  19
ENDBRANCH  14  17
ENDBRANCH   8  14
BRANCH  11  26
HETATM   26  C   UNL     1     -11.454  12.321  66.034  1.00  0.00    -0.381 C  
HETATM   27  O   UNL     1     -12.626  12.015  65.438  1.00  0.00    -0.340 OA 
HETATM   28  H   UNL     1     -13.129  12.748  65.102  1.00  0.00     0.000 HD 
BRANCH  26  29
HETATM   29  N   UNL     1     -11.037  13.532  66.074  1.00  0.00    -0.292 NA 
HETATM   30  H   UNL     1     -10.181  13.768  66.576  1.00  0.00     0.000 HD 
BRANCH  29  31
HETATM   31  C   UNL     1     -11.808  14.577  65.383  1.00  0.00    -0.344 C  
BRANCH  31  32
HETATM   32  C   UNL     1     -10.910  15.724  64.861  1.00  0.00    -0.413 C  
HETATM   33  O   UNL     1     -11.535  16.472  63.806  1.00  0.00    -1.615 OA 
HETATM   34  H   UNL     1     -10.983  17.176  63.486  1.00  0.00     0.000 HD 
BRANCH  32  35
HETATM   35  C   UNL     1     -10.578  16.701  66.002  1.00  0.00    -0.233 C  
HETATM   36  O   UNL     1     -10.963  16.196  67.281  1.00  0.00    -0.283 OA 
HETATM   37  H   UNL     1     -10.758  16.800  67.985  1.00  0.00     0.000 HD 
ENDBRANCH  32  35
ENDBRANCH  31  32
ENDBRANCH  29  31
ENDBRANCH  26  29
ENDBRANCH  11  26
ENDBRANCH   2   5
BRANCH   4  38
HETATM   38  C   UNL     1      -6.264  10.534  66.126  1.00  0.00    -0.111 C  
HETATM   39  O   UNL     1      -5.331  11.381  65.484  1.00  0.00    -0.487 OA 
HETATM   40  H   UNL     1      -5.085  12.113  66.037  1.00  0.00     0.000 HD 
ENDBRANCH   4  38
TORSDOF 12
ENDMDL
MODEL        6
REMARK 921   NORMALIZED FREE ENERGY PREDICTED BY IDOCK:   -5.57 KCAL/MOL
REMARK 922        TOTAL FREE ENERGY PREDICTED BY IDOCK:  -10.51 KCAL/MOL
REMARK 923 INTER-LIGAND FREE ENERGY PREDICTED BY IDOCK:   -9.98 KCAL/MOL
REMARK 924 INTRA-LIGAND FREE ENERGY PREDICTED BY IDOCK:   -0.53 KCAL/MOL
REMARK 927      BINDING AFFINITY PREDICTED BY RF-SCORE:    0.00 PKD
ROOT
HETATM    1  C   UNL     1      -7.672  10.749  69.391  1.00  0.00    -0.102 C  
HETATM    2  N   UNL     1      -7.922  11.116  68.000  1.00  0.00    -0.112 N  
HETATM    3  O   UNL     1      -7.279   9.060  67.192  1.00  0.00    -0.081 OA 
HETATM    4  C   UNL     1      -7.668  10.204  66.972  1.00  0.00    -0.096 C  
ENDROOT
BRANCH   2   5
HETATM    5  C   UNL     1      -8.445  12.429  67.781  1.00  0.00    -0.169 A  
HETATM    6  I   UNL     1     -11.125  10.911  68.094  1.00  0.00    -0.379 I  
HETATM    7  C   UNL     1      -7.564  13.539  67.723  1.00  0.00    -0.162 A  
HETATM    8  C   UNL     1      -8.065  14.827  67.444  1.00  0.00    -0.220 A  
HETATM    9  C   UNL     1      -9.843  12.615  67.620  1.00  0.00    -0.210 A  
HETATM   10  I   UNL     1      -5.460  13.191  68.118  1.00  0.00    -0.113 I  
HETATM   11  C   UNL     1     -10.367  13.884  67.264  1.00  0.00    -0.257 A  
HETATM   12  I   UNL     1     -10.113  16.800  66.164  1.00  0.00    -0.265 I  
HETATM   13  C   UNL     1      -9.452  14.966  67.129  1.00  0.00    -0.225 A  
BRANCH   8  14
HETATM   14  C   UNL     1      -7.228  16.053  67.638  1.00  0.00    -0.152 C  
HETATM   15  H   UNL     1      -5.887  17.184  66.752  1.00  0.00     0.000 HD 
HETATM   16  O   UNL     1      -6.418  16.406  66.629  1.00  0.00    -0.277 OA 
BRANCH  14  17
HETATM   17  N   UNL     1      -7.273  16.729  68.725  1.00  0.00    -0.205 NA 
HETATM   18  H   UNL     1      -7.763  16.369  69.544  1.00  0.00     0.000 HD 
BRANCH  17  19
HETATM   19  C   UNL     1      -6.600  18.036  68.763  1.00  0.00    -0.233 C  
BRANCH  19  20
HETATM   20  C   UNL     1      -7.502  19.090  68.109  1.00  0.00    -0.275 C  
HETATM   21  H   UNL     1      -9.242  19.932  68.490  1.00  0.00     0.000 HD 
HETATM   22  O   UNL     1      -8.683  19.279  68.895  1.00  0.00    -0.362 OA 
BRANCH  20  23
HETATM   23  C   UNL     1      -6.756  20.424  67.929  1.00  0.00    -0.300 C  
HETATM   24  O   UNL     1      -7.519  21.355  67.163  1.00  0.00    -0.799 OA 
HETATM   25  H   UNL     1      -7.058  22.179  67.052  1.00  0.00     0.000 HD 
ENDBRANCH  20  23
ENDBRANCH  19  20
ENDBRANCH  17  19
ENDBRANCH  14  17
ENDBRANCH   8  14
BRANCH  11  26
HETATM   26  C   UNL     1     -11.846  14.039  67.050  1.00  0.00    -0.428 C  
HETATM   27  O   UNL     1     -12.596  14.169  68.164  1.00  0.00    -0.455 OA 
HETATM   28  H   UNL     1     -13.532  14.267  68.029  1.00  0.00     0.000 HD 
BRANCH  26  29
HETATM   29  N   UNL     1     -12.393  13.988  65.893  1.00  0.00    -0.471 NA 
HETATM   30  H   UNL     1     -12.717  14.840  65.436  1.00  0.00     0.000 HD 
BRANCH  29  31
HETATM   31  C   UNL     1     -12.549  12.682  65.233  1.00  0.00    -0.316 C  
BRANCH  31  32
HETATM   32  C   UNL     1     -12.216  12.743  63.723  1.00  0.00    -0.489 C  
HETATM   33  O   UNL     1     -12.382  14.061  63.178  1.00  0.00    -1.133 OA 
HETATM   34  H   UNL     1     -12.178  14.098  62.250  1.00  0.00     0.000 HD 
BRANCH  32  35
HETATM   35  C   UNL     1     -10.759  12.311  63.482  1.00  0.00    -0.451 C  
HETATM   36  O   UNL     1     -10.662  10.970  63.000  1.00  0.00    -0.786 OA 
HETATM   37  H   UNL     1      -9.763  10.703  62.851  1.00  0.00     0.000 HD 
ENDBRANCH  32  35
ENDBRANCH  31  32
ENDBRANCH  29  31
ENDBRANCH  26  29
ENDBRANCH  11  26
ENDBRANCH   2   5
BRANCH   4  38
HETATM   38  C   UNL     1      -7.862  10.677  65.520  1.00  0.00    -0.099 C  
HETATM   39  O   UNL     1      -6.625  10.960  64.895  1.00  0.00    -0.362 OA 
HETATM   40  H   UNL     1      -6.745  11.252  63.998  1.00  0.00     0.000 HD 
ENDBRANCH   4  38
TORSDOF 12
ENDMDL
MODEL        7
REMARK 921   NORMALIZED FREE ENERGY PREDICTED BY IDOCK:   -5.49 KCAL/MOL
REMARK 922        TOTAL FREE ENERGY PREDICTED BY IDOCK:  -10.38 KCAL/MOL
REMARK 923 INTER-LIGAND FREE ENERGY PREDICTED BY IDOCK:   -9.43 KCAL/MOL
REMARK 924 INTRA-LIGAND FREE ENERGY PREDICTED BY IDOCK:   -0.95 KCAL/MOL
REMARK 927      BINDING AFFINITY PREDICTED BY RF-SCORE:    0.00 PKD
ROOT
HETATM    1  C   UNL     1      -6.147  10.514  66.393  1.00  0.00    -0.089 C  
HETATM    2  N   UNL     1      -6.691  10.731  67.730  1.00  0.00    -0.067 N  
HETATM    3  O   UNL     1      -5.237   9.248  68.720  1.00  0.00    -0.037 OA 
HETATM    4  C   UNL     1      -6.180  10.027  68.825  1.00  0.00    -0.040 C  
ENDROOT
BRANCH   2   5
HETATM    5  C   UNL     1      -7.739  11.699  67.833  1.00  0.00    -0.126 A  
HETATM    6  I   UNL     1      -5.317  13.609  68.111  1.00  0.00    -0.073 I  
HETATM    7  C   UNL     1      -9.084  11.309  67.610  1.00  0.00    -0.149 A  
HETATM    8  C   UNL     1     -10.128  12.243  67.772  1.00  0.00    -0.202 A  
HETATM    9  C   UNL     1      -7.428  13.045  68.159  1.00  0.00    -0.130 A  
HETATM   10  I   UNL     1      -9.462   9.269  66.981  1.00  0.00    -0.257 I  
HETATM   11  C   UNL     1      -8.460  13.987  68.401  1.00  0.00    -0.166 A  
HETATM   12  I   UNL     1     -11.416  14.788  69.032  1.00  0.00    -0.383 I  
HETATM   13  C   UNL     1      -9.807  13.550  68.253  1.00  0.00    -0.233 A  
BRANCH   8  14
HETATM   14  C   UNL     1     -11.517  11.957  67.293  1.00  0.00    -0.317 C  
HETATM   15  H   UNL     1     -13.225  11.157  67.845  1.00  0.00     0.000 HD 
HETATM   16  O   UNL     1     -12.344  11.338  68.150  1.00  0.00    -0.500 OA 
BRANCH  14  17
HETATM   17  N   UNL     1     -11.897  12.276  66.113  1.00  0.00    -0.574 NA 
HETATM   18  H   UNL     1     -12.821  12.012  65.772  1.00  0.00     0.000 HD 
BRANCH  17  19
HETATM   19  C   UNL     1     -10.968  13.034  65.260  1.00  0.00    -0.284 C  
BRANCH  19  20
HETATM   20  C   UNL     1     -11.747  14.103  64.484  1.00  0.00    -0.413 C  
HETATM   21  H   UNL     1     -13.561  14.872  64.521  1.00  0.00     0.000 HD 
HETATM   22  O   UNL     1     -13.078  14.210  65.002  1.00  0.00    -0.728 OA 
BRANCH  20  23
HETATM   23  C   UNL     1     -11.034  15.464  64.547  1.00  0.00    -0.203 C  
HETATM   24  O   UNL     1     -11.715  16.452  63.775  1.00  0.00    -1.553 OA 
HETATM   25  H   UNL     1     -11.275  17.293  63.814  1.00  0.00     0.000 HD 
ENDBRANCH  20  23
ENDBRANCH  19  20
ENDBRANCH  17  19
ENDBRANCH  14  17
ENDBRANCH   8  14
BRANCH  11  26
HETATM   26  C   UNL     1      -8.101  15.392  68.793  1.00  0.00    -0.166 C  
HETATM   27  O   UNL     1      -7.716  15.571  70.074  1.00  0.00    -0.032 OA 
HETATM   28  H   UNL     1      -7.489  16.460  70.323  1.00  0.00     0.000 HD 
BRANCH  26  29
HETATM   29  N   UNL     1      -8.209  16.389  67.996  1.00  0.00    -0.166 NA 
HETATM   30  H   UNL     1      -8.210  16.247  66.987  1.00  0.00     0.000 HD 
BRANCH  29  31
HETATM   31  C   UNL     1      -8.332  17.744  68.558  1.00  0.00    -0.297 C  
BRANCH  31  32
HETATM   32  C   UNL     1      -9.797  18.238  68.589  1.00  0.00    -0.380 C  
HETATM   33  O   UNL     1      -9.935  19.502  69.257  1.00  0.00    -0.511 OA 
HETATM   34  H   UNL     1     -10.835  19.806  69.276  1.00  0.00     0.000 HD 
BRANCH  32  35
HETATM   35  C   UNL     1     -10.334  18.400  67.156  1.00  0.00    -0.394 C  
HETATM   36  O   UNL     1      -9.319  18.214  66.170  1.00  0.00    -0.471 OA 
HETATM   37  H   UNL     1      -9.650  18.314  65.285  1.00  0.00     0.000 HD 
ENDBRANCH  32  35
ENDBRANCH  31  32
ENDBRANCH  29  31
ENDBRANCH  26  29
ENDBRANCH  11  26
ENDBRANCH   2   5
BRANCH   4  38
HETATM   38  C   UNL     1      -6.854  10.229  70.194  1.00  0.00    -0.151 C  
HETATM   39  O   UNL     1      -5.973  10.826  71.125  1.00  0.00    -0.342 OA 
HETATM   40  H   UNL     1      -6.389  10.951  71.971  1.00  0.00     0.000 HD 
ENDBRANCH   4  38
TORSDOF 12
ENDMDL
MODEL        8
REMARK 921   NORMALIZED FREE ENERGY PREDICTED BY IDOCK:   -5.44 KCAL/MOL
REMARK 922        TOTAL FREE ENERGY PREDICTED BY IDOCK:  -10.29 KCAL/MOL
REMARK 923 INTER-LIGAND FREE ENERGY PREDICTED BY IDOCK:   -9.82 KCAL/MOL
REMARK 924 INTRA-LIGAND FREE ENERGY PREDICTED BY IDOCK:   -0.47 KCAL/MOL
REMARK 927      BINDING AFFINITY PREDICTED BY RF-SCORE:    0.00 PKD
ROOT
HETATM    1  C   UNL     1      -8.103   6.996  69.739  1.00  0.00    -0.126 C  
HETATM    2  N   UNL     1      -9.229   7.248  68.844  1.00  0.00    -0.142 N  
HETATM    3  O   UNL     1      -9.509   5.022  68.334  1.00  0.00    -0.121 OA 
HETATM    4  C   UNL     1      -9.846   6.191  68.169  1.00  0.00    -0.131 C  
ENDROOT
BRANCH   2   5
HETATM    5  C   UNL     1      -9.646   8.611  68.728  1.00  0.00    -0.156 A  
HETATM    6  I   UNL     1     -11.308   7.829  71.221  1.00  0.00    -0.338 I  
HETATM    7  C   UNL     1      -9.023   9.463  67.781  1.00  0.00    -0.122 A  
HETATM    8  C   UNL     1      -9.472  10.789  67.617  1.00  0.00    -0.166 A  
HETATM    9  C   UNL     1     -10.684   9.105  69.561  1.00  0.00    -0.215 A  
HETATM   10  I   UNL     1      -7.353   8.672  66.646  1.00  0.00    -0.081 I  
HETATM   11  C   UNL     1     -11.207  10.409  69.369  1.00  0.00    -0.314 A  
HETATM   12  I   UNL     1     -11.646  13.023  67.709  1.00  0.00    -0.384 I  
HETATM   13  C   UNL     1     -10.620  11.217  68.353  1.00  0.00    -0.193 A  
BRANCH   8  14
HETATM   14  C   UNL     1      -8.683  11.793  66.836  1.00  0.00    -0.189 C  
HETATM   15  H   UNL     1      -7.082  12.931  66.925  1.00  0.00     0.000 HD 
HETATM   16  O   UNL     1      -7.583  12.294  67.420  1.00  0.00    -0.140 OA 
BRANCH  14  17
HETATM   17  N   UNL     1      -9.047  12.168  65.668  1.00  0.00    -0.429 NA 
HETATM   18  H   UNL     1      -8.862  13.118  65.343  1.00  0.00     0.000 HD 
BRANCH  17  19
HETATM   19  C   UNL     1      -9.737  11.197  64.805  1.00  0.00    -0.257 C  
BRANCH  19  20
HETATM   20  C   UNL     1     -10.174  11.890  63.509  1.00  0.00    -0.457 C  
HETATM   21  H   UNL     1     -10.180  11.471  61.584  1.00  0.00     0.000 HD 
HETATM   22  O   UNL     1      -9.909  11.042  62.387  1.00  0.00    -0.101 OA 
BRANCH  20  23
HETATM   23  C   UNL     1     -11.664  12.269  63.558  1.00  0.00    -0.499 C  
HETATM   24  O   UNL     1     -12.463  11.364  62.796  1.00  0.00    -0.929 OA 
HETATM   25  H   UNL     1     -13.384  11.598  62.826  1.00  0.00     0.000 HD 
ENDBRANCH  20  23
ENDBRANCH  19  20
ENDBRANCH  17  19
ENDBRANCH  14  17
ENDBRANCH   8  14
BRANCH  11  26
HETATM   26  C   UNL     1     -12.340  10.887  70.232  1.00  0.00    -0.330 C  
HETATM   27  O   UNL     1     -13.553  10.359  69.965  1.00  0.00    -0.304 OA 
HETATM   28  H   UNL     1     -14.270  10.661  70.511  1.00  0.00     0.000 HD 
BRANCH  26  29
HETATM   29  N   UNL     1     -12.201  11.789  71.130  1.00  0.00    -0.280 NA 
HETATM   30  H   UNL     1     -11.313  12.280  71.238  1.00  0.00     0.000 HD 
BRANCH  29  31
HETATM   31  C   UNL     1     -13.340  12.110  72.004  1.00  0.00    -0.365 C  
BRANCH  31  32
HETATM   32  C   UNL     1     -13.608  13.631  72.090  1.00  0.00    -0.538 C  
HETATM   33  O   UNL     1     -13.139  14.200  73.322  1.00  0.00    -0.551 OA 
HETATM   34  H   UNL     1     -13.303  15.135  73.376  1.00  0.00     0.000 HD 
BRANCH  32  35
HETATM   35  C   UNL     1     -12.904  14.361  70.933  1.00  0.00    -0.351 C  
HETATM   36  O   UNL     1     -11.542  14.669  71.231  1.00  0.00    -0.458 OA 
HETATM   37  H   UNL     1     -11.108  15.120  70.517  1.00  0.00     0.000 HD 
ENDBRANCH  32  35
ENDBRANCH  31  32
ENDBRANCH  29  31
ENDBRANCH  26  29
ENDBRANCH  11  26
ENDBRANCH   2   5
BRANCH   4  38
HETATM   38  C   UNL     1     -10.967   6.528  67.168  1.00  0.00    -0.408 C  
HETATM   39  O   UNL     1     -11.162   5.482  66.235  1.00  0.00    -0.746 OA 
HETATM   40  H   UNL     1     -11.854   5.690  65.617  1.00  0.00     0.000 HD 
ENDBRANCH   4  38
TORSDOF 12
ENDMDL
MODEL        9
REMARK 921   NORMALIZED FREE ENERGY PREDICTED BY IDOCK:   -5.36 KCAL/MOL
REMARK 922        TOTAL FREE ENERGY PREDICTED BY IDOCK:  -10.16 KCAL/MOL
REMARK 923 INTER-LIGAND FREE ENERGY PREDICTED BY IDOCK:   -8.81 KCAL/MOL
REMARK 924 INTRA-LIGAND FREE ENERGY PREDICTED BY IDOCK:   -1.35 KCAL/MOL
REMARK 927      BINDING AFFINITY PREDICTED BY RF-SCORE:    0.00 PKD
ROOT
HETATM    1  C   UNL     1      -9.789   8.204  72.861  1.00  0.00    -0.268 C  
HETATM    2  N   UNL     1     -10.337   7.974  71.527  1.00  0.00    -0.204 N  
HETATM    3  O   UNL     1     -11.515   6.107  72.174  1.00  0.00    -0.285 OA 
HETATM    4  C   UNL     1     -11.172   6.880  71.284  1.00  0.00    -0.268 C  
ENDROOT
BRANCH   2   5
HETATM    5  C   UNL     1      -9.980   8.933  70.528  1.00  0.00    -0.201 A  
HETATM    6  I   UNL     1      -7.699   6.894  70.048  1.00  0.00    -0.105 I  
HETATM    7  C   UNL     1     -10.845  10.023  70.254  1.00  0.00    -0.313 A  
HETATM    8  C   UNL     1     -10.470  11.007  69.316  1.00  0.00    -0.210 A  
HETATM    9  C   UNL     1      -8.761   8.789  69.815  1.00  0.00    -0.133 A  
HETATM   10  I   UNL     1     -12.751  10.094  71.285  1.00  0.00    -0.578 I  
HETATM   11  C   UNL     1      -8.323   9.800  68.921  1.00  0.00    -0.120 A  
HETATM   12  I   UNL     1      -8.375  12.695  67.739  1.00  0.00    -0.210 I  
HETATM   13  C   UNL     1      -9.170  10.928  68.727  1.00  0.00    -0.183 A  
BRANCH   8  14
HETATM   14  C   UNL     1     -11.450  12.014  68.801  1.00  0.00    -0.300 C  
HETATM   15  H   UNL     1     -12.324  13.715  69.255  1.00  0.00     0.000 HD 
HETATM   16  O   UNL     1     -11.702  13.076  69.582  1.00  0.00    -0.296 OA 
BRANCH  14  17
HETATM   17  N   UNL     1     -12.034  11.863  67.672  1.00  0.00    -0.583 NA 
HETATM   18  H   UNL     1     -12.421  10.958  67.400  1.00  0.00     0.000 HD 
BRANCH  17  19
HETATM   19  C   UNL     1     -12.135  13.025  66.777  1.00  0.00    -0.300 C  
BRANCH  19  20
HETATM   20  C   UNL     1     -11.895  12.574  65.331  1.00  0.00    -0.428 C  
HETATM   21  H   UNL     1     -12.995  12.180  63.745  1.00  0.00     0.000 HD 
HETATM   22  O   UNL     1     -13.144  12.460  64.641  1.00  0.00    -0.825 OA 
BRANCH  20  23
HETATM   23  C   UNL     1     -10.960  13.549  64.594  1.00  0.00    -0.385 C  
HETATM   24  O   UNL     1     -10.079  12.864  63.705  1.00  0.00    -0.676 OA 
HETATM   25  H   UNL     1      -9.502  13.466  63.250  1.00  0.00     0.000 HD 
ENDBRANCH  20  23
ENDBRANCH  19  20
ENDBRANCH  17  19
ENDBRANCH  14  17
ENDBRANCH   8  14
BRANCH  11  26
HETATM   26  C   UNL     1      -7.004   9.645  68.219  1.00  0.00    -0.073 C  
HETATM   27  O   UNL     1      -5.903   9.877  68.965  1.00  0.00    -0.035 OA 
HETATM   28  H   UNL     1      -5.069   9.779  68.521  1.00  0.00     0.000 HD 
BRANCH  26  29
HETATM   29  N   UNL     1      -6.905   9.374  66.971  1.00  0.00    -0.083 NA 
HETATM   30  H   UNL     1      -6.304   9.934  66.366  1.00  0.00     0.000 HD 
BRANCH  29  31
HETATM   31  C   UNL     1      -7.668   8.242  66.422  1.00  0.00    -0.091 C  
BRANCH  31  32
HETATM   32  C   UNL     1      -8.056   8.457  64.940  1.00  0.00    -0.149 C  
HETATM   33  O   UNL     1      -8.733   7.321  64.381  1.00  0.00    -0.321 OA 
HETATM   34  H   UNL     1      -8.971   7.452  63.471  1.00  0.00     0.000 HD 
BRANCH  32  35
HETATM   35  C   UNL     1      -8.984   9.676  64.804  1.00  0.00    -0.225 C  
HETATM   36  O   UNL     1      -8.275  10.864  64.454  1.00  0.00    -0.369 OA 
HETATM   37  H   UNL     1      -8.848  11.617  64.370  1.00  0.00     0.000 HD 
ENDBRANCH  32  35
ENDBRANCH  31  32
ENDBRANCH  29  31
ENDBRANCH  26  29
ENDBRANCH  11  26
ENDBRANCH   2   5
BRANCH   4  38
HETATM   38  C   UNL     1     -11.645   6.637  69.839  1.00  0.00    -0.332 C  
HETATM   39  O   UNL     1     -10.986   5.529  69.256  1.00  0.00    -0.255 OA 
HETATM   40  H   UNL     1     -11.278   5.379  68.364  1.00  0.00     0.000 HD 
ENDBRANCH   4  38
TORSDOF 12
ENDMDL
MODEL       10
REMARK 921   NORMALIZED FREE ENERGY PREDICTED BY IDOCK:   -5.36 KCAL/MOL
REMARK 922        TOTAL FREE ENERGY PREDICTED BY IDOCK:  -10.15 KCAL/MOL
REMARK 923 INTER-LIGAND FREE ENERGY PREDICTED BY IDOCK:   -9.78 KCAL/MOL
REMARK 924 INTRA-LIGAND FREE ENERGY PREDICTED BY IDOCK:   -0.37 KCAL/MOL
REMARK 927      BINDING AFFINITY PREDICTED BY RF-SCORE:    0.00 PKD
ROOT
HETATM    1  C   UNL     1      -7.216   5.396  67.272  1.00  0.00    -0.075 C  
HETATM    2  N   UNL     1      -8.553   5.799  66.847  1.00  0.00    -0.111 N  
HETATM    3  O   UNL     1      -9.203   3.647  66.357  1.00  0.00    -0.148 OA 
HETATM    4  C   UNL     1      -9.464   4.847  66.381  1.00  0.00    -0.155 C  
ENDROOT
BRANCH   2   5
HETATM    5  C   UNL     1      -8.855   7.193  66.956  1.00  0.00    -0.124 A  
HETATM    6  I   UNL     1      -7.617   7.209  64.118  1.00  0.00    -0.091 I  
HETATM    7  C   UNL     1      -9.594   7.670  68.068  1.00  0.00    -0.145 A  
HETATM    8  C   UNL     1      -9.840   9.051  68.215  1.00  0.00    -0.186 A  
HETATM    9  C   UNL     1      -8.411   8.092  65.952  1.00  0.00    -0.142 A  
HETATM   10  I   UNL     1     -10.355   6.216  69.485  1.00  0.00    -0.382 I  
HETATM   11  C   UNL     1      -8.578   9.492  66.109  1.00  0.00    -0.143 A  
HETATM   12  I   UNL     1      -9.146  12.062  67.798  1.00  0.00    -0.210 I  
HETATM   13  C   UNL     1      -9.250   9.953  67.277  1.00  0.00    -0.138 A  
BRANCH   8  14
HETATM   14  C   UNL     1     -10.831   9.569  69.210  1.00  0.00    -0.191 C  
HETATM   15  H   UNL     1     -12.588  10.437  69.357  1.00  0.00     0.000 HD 
HETATM   16  O   UNL     1     -11.960  10.108  68.725  1.00  0.00    -0.016 OA 
BRANCH  14  17
HETATM   17  N   UNL     1     -10.607   9.512  70.470  1.00  0.00    -0.273 NA 
HETATM   18  H   UNL     1      -9.669   9.326  70.826  1.00  0.00     0.000 HD 
BRANCH  17  19
HETATM   19  C   UNL     1     -11.735   9.720  71.390  1.00  0.00    -0.398 C  
BRANCH  19  20
HETATM   20  C   UNL     1     -12.347   8.363  71.760  1.00  0.00    -0.331 C  
HETATM   21  H   UNL     1     -12.100   7.010  73.170  1.00  0.00     0.000 HD 
HETATM   22  O   UNL     1     -11.721   7.851  72.941  1.00  0.00    -0.350 OA 
BRANCH  20  23
HETATM   23  C   UNL     1     -13.868   8.476  71.961  1.00  0.00    -0.419 C  
HETATM   24  O   UNL     1     -14.193   8.959  73.264  1.00  0.00    -1.197 OA 
HETATM   25  H   UNL     1     -15.132   9.028  73.387  1.00  0.00     0.000 HD 
ENDBRANCH  20  23
ENDBRANCH  19  20
ENDBRANCH  17  19
ENDBRANCH  14  17
ENDBRANCH   8  14
BRANCH  11  26
HETATM   26  C   UNL     1      -8.053  10.423  65.054  1.00  0.00    -0.136 C  
HETATM   27  O   UNL     1      -6.785  10.853  65.218  1.00  0.00    -0.357 OA 
HETATM   28  H   UNL     1      -6.452  11.442  64.551  1.00  0.00     0.000 HD 
BRANCH  26  29
HETATM   29  N   UNL     1      -8.769  10.850  64.081  1.00  0.00    -0.360 NA 
HETATM   30  H   UNL     1      -8.330  11.259  63.256  1.00  0.00     0.000 HD 
BRANCH  29  31
HETATM   31  C   UNL     1     -10.234  10.743  64.169  1.00  0.00    -0.344 C  
BRANCH  31  32
HETATM   32  C   UNL     1     -10.955  11.831  63.340  1.00  0.00    -0.380 C  
HETATM   33  O   UNL     1     -12.282  11.437  62.956  1.00  0.00    -0.946 OA 
HETATM   34  H   UNL     1     -12.725  12.105  62.446  1.00  0.00     0.000 HD 
BRANCH  32  35
HETATM   35  C   UNL     1     -11.065  13.134  64.152  1.00  0.00    -0.394 C  
HETATM   36  O   UNL     1      -9.789  13.639  64.545  1.00  0.00    -0.622 OA 
HETATM   37  H   UNL     1      -9.856  14.443  65.046  1.00  0.00     0.000 HD 
ENDBRANCH  32  35
ENDBRANCH  31  32
ENDBRANCH  29  31
ENDBRANCH  26  29
ENDBRANCH  11  26
ENDBRANCH   2   5
BRANCH   4  38
HETATM   38  C   UNL     1     -10.826   5.341  65.860  1.00  0.00     0.071 C  
HETATM   39  O   UNL     1     -11.471   4.356  65.076  1.00  0.00    -1.090 OA 
HETATM   40  H   UNL     1     -12.312   4.661  64.754  1.00  0.00     0.000 HD 
ENDBRANCH   4  38
TORSDOF 12
ENDMDL
MODEL       11
REMARK 921   NORMALIZED FREE ENERGY PREDICTED BY IDOCK:   -5.30 KCAL/MOL
REMARK 922        TOTAL FREE ENERGY PREDICTED BY IDOCK:  -10.06 KCAL/MOL
REMARK 923 INTER-LIGAND FREE ENERGY PREDICTED BY IDOCK:   -9.46 KCAL/MOL
REMARK 924 INTRA-LIGAND FREE ENERGY PREDICTED BY IDOCK:   -0.60 KCAL/MOL
REMARK 927      BINDING AFFINITY PREDICTED BY RF-SCORE:    0.00 PKD
ROOT
HETATM    1  C   UNL     1      -7.429   7.323  66.772  1.00  0.00    -0.092 C  
HETATM    2  N   UNL     1      -8.837   7.022  67.014  1.00  0.00    -0.121 N  
HETATM    3  O   UNL     1      -8.818   5.151  65.675  1.00  0.00    -0.137 OA 
HETATM    4  C   UNL     1      -9.443   5.924  66.395  1.00  0.00    -0.155 C  
ENDROOT
BRANCH   2   5
HETATM    5  C   UNL     1      -9.521   7.897  67.916  1.00  0.00    -0.145 A  
HETATM    6  I   UNL     1      -8.700   5.700  69.938  1.00  0.00    -0.147 I  
HETATM    7  C   UNL     1      -9.969   9.165  67.465  1.00  0.00    -0.205 A  
HETATM    8  C   UNL     1     -10.699  10.006  68.330  1.00  0.00    -0.271 A  
HETATM    9  C   UNL     1      -9.749   7.491  69.257  1.00  0.00    -0.163 A  
HETATM   10  I   UNL     1      -9.459   9.766  65.446  1.00  0.00    -0.297 I  
HETATM   11  C   UNL     1     -10.543   8.282  70.126  1.00  0.00    -0.233 A  
HETATM   12  I   UNL     1     -12.621  10.541  70.727  1.00  0.00    -0.426 I  
HETATM   13  C   UNL     1     -11.053   9.513  69.624  1.00  0.00    -0.171 A  
BRANCH   8  14
HETATM   14  C   UNL     1     -10.955  11.442  67.995  1.00  0.00    -0.237 C  
HETATM   15  H   UNL     1     -10.177  13.242  68.140  1.00  0.00     0.000 HD 
HETATM   16  O   UNL     1     -10.014  12.330  68.353  1.00  0.00    -0.215 OA 
BRANCH  14  17
HETATM   17  N   UNL     1     -12.029  11.811  67.404  1.00  0.00    -0.612 NA 
HETATM   18  H   UNL     1     -12.873  11.240  67.450  1.00  0.00     0.000 HD 
BRANCH  17  19
HETATM   19  C   UNL     1     -12.016  13.077  66.655  1.00  0.00    -0.387 C  
BRANCH  19  20
HETATM   20  C   UNL     1     -12.044  12.778  65.151  1.00  0.00    -0.450 C  
HETATM   21  H   UNL     1     -13.409  12.363  63.792  1.00  0.00     0.000 HD 
HETATM   22  O   UNL     1     -13.391  12.549  64.724  1.00  0.00    -0.773 OA 
BRANCH  20  23
HETATM   23  C   UNL     1     -11.412  13.926  64.346  1.00  0.00    -0.361 C  
HETATM   24  O   UNL     1     -12.294  14.407  63.333  1.00  0.00    -1.094 OA 
HETATM   25  H   UNL     1     -11.903  15.116  62.835  1.00  0.00     0.000 HD 
ENDBRANCH  20  23
ENDBRANCH  19  20
ENDBRANCH  17  19
ENDBRANCH  14  17
ENDBRANCH   8  14
BRANCH  11  26
HETATM   26  C   UNL     1     -10.810   7.803  71.524  1.00  0.00    -0.227 C  
HETATM   27  O   UNL     1     -11.638   6.744  71.642  1.00  0.00    -0.264 OA 
HETATM   28  H   UNL     1     -11.807   6.441  72.526  1.00  0.00     0.000 HD 
BRANCH  26  29
HETATM   29  N   UNL     1     -10.343   8.389  72.564  1.00  0.00    -0.321 NA 
HETATM   30  H   UNL     1     -10.814   9.206  72.952  1.00  0.00     0.000 HD 
BRANCH  29  31
HETATM   31  C   UNL     1      -9.120   7.865  73.192  1.00  0.00    -0.260 C  
BRANCH  31  32
HETATM   32  C   UNL     1      -9.421   6.787  74.260  1.00  0.00    -0.252 C  
HETATM   33  O   UNL     1     -10.829   6.614  74.482  1.00  0.00    -0.226 OA 
HETATM   34  H   UNL     1     -11.015   5.953  75.139  1.00  0.00     0.000 HD 
BRANCH  32  35
HETATM   35  C   UNL     1      -8.840   5.431  73.827  1.00  0.00    -0.124 C  
HETATM   36  O   UNL     1      -9.816   4.593  73.207  1.00  0.00    -0.140 OA 
HETATM   37  H   UNL     1      -9.457   3.755  72.940  1.00  0.00     0.000 HD 
ENDBRANCH  32  35
ENDBRANCH  31  32
ENDBRANCH  29  31
ENDBRANCH  26  29
ENDBRANCH  11  26
ENDBRANCH   2   5
BRANCH   4  38
HETATM   38  C   UNL     1     -10.951   5.710  66.615  1.00  0.00    -0.091 C  
HETATM   39  O   UNL     1     -11.486   4.783  65.690  1.00  0.00    -0.856 OA 
HETATM   40  H   UNL     1     -12.417   4.651  65.826  1.00  0.00     0.000 HD 
ENDBRANCH   4  38
TORSDOF 12
ENDMDL
MODEL       12
REMARK 921   NORMALIZED FREE ENERGY PREDICTED BY IDOCK:   -5.27 KCAL/MOL
REMARK 922        TOTAL FREE ENERGY PREDICTED BY IDOCK:  -10.01 KCAL/MOL
REMARK 923 INTER-LIGAND FREE ENERGY PREDICTED BY IDOCK:   -9.19 KCAL/MOL
REMARK 924 INTRA-LIGAND FREE ENERGY PREDICTED BY IDOCK:   -0.82 KCAL/MOL
REMARK 927      BINDING AFFINITY PREDICTED BY RF-SCORE:    0.00 PKD
ROOT
HETATM    1  C   UNL     1     -12.747   7.221  71.378  1.00  0.00    -0.389 C  
HETATM    2  N   UNL     1     -11.404   7.794  71.366  1.00  0.00    -0.247 N  
HETATM    3  O   UNL     1     -10.965   7.180  73.539  1.00  0.00    -0.328 OA 
HETATM    4  C   UNL     1     -10.602   7.742  72.510  1.00  0.00    -0.293 C  
ENDROOT
BRANCH   2   5
HETATM    5  C   UNL     1     -10.980   8.376  70.130  1.00  0.00    -0.215 A  
HETATM    6  I   UNL     1     -10.267   5.426  69.518  1.00  0.00    -0.279 I  
HETATM    7  C   UNL     1     -11.247   9.744  69.866  1.00  0.00    -0.229 A  
HETATM    8  C   UNL     1     -10.777  10.341  68.679  1.00  0.00    -0.255 A  
HETATM    9  C   UNL     1     -10.293   7.584  69.174  1.00  0.00    -0.212 A  
HETATM   10  I   UNL     1     -12.422  10.850  71.314  1.00  0.00    -0.355 I  
HETATM   11  C   UNL     1      -9.744   8.173  68.007  1.00  0.00    -0.186 A  
HETATM   12  I   UNL     1      -8.779  10.609  66.299  1.00  0.00    -0.187 I  
HETATM   13  C   UNL     1      -9.952   9.567  67.805  1.00  0.00    -0.174 A  
BRANCH   8  14
HETATM   14  C   UNL     1     -11.257  11.688  68.235  1.00  0.00    -0.260 C  
HETATM   15  H   UNL     1     -12.447  12.573  66.945  1.00  0.00     0.000 HD 
HETATM   16  O   UNL     1     -12.142  11.719  67.226  1.00  0.00    -0.595 OA 
BRANCH  14  17
HETATM   17  N   UNL     1     -10.834  12.764  68.784  1.00  0.00    -0.273 NA 
HETATM   18  H   UNL     1      -9.937  12.785  69.269  1.00  0.00     0.000 HD 
BRANCH  17  19
HETATM   19  C   UNL     1     -11.673  13.969  68.698  1.00  0.00    -0.354 C  
BRANCH  19  20
HETATM   20  C   UNL     1     -10.829  15.201  69.046  1.00  0.00    -0.242 C  
HETATM   21  H   UNL     1     -10.770  17.100  68.524  1.00  0.00     0.000 HD 
HETATM   22  O   UNL     1     -11.293  16.336  68.308  1.00  0.00    -0.352 OA 
BRANCH  20  23
HETATM   23  C   UNL     1     -10.866  15.490  70.557  1.00  0.00    -0.328 C  
HETATM   24  O   UNL     1     -11.579  14.479  71.269  1.00  0.00    -0.492 OA 
HETATM   25  H   UNL     1     -11.601  14.658  72.202  1.00  0.00     0.000 HD 
ENDBRANCH  20  23
ENDBRANCH  19  20
ENDBRANCH  17  19
ENDBRANCH  14  17
ENDBRANCH   8  14
BRANCH  11  26
HETATM   26  C   UNL     1      -8.977   7.318  67.038  1.00  0.00    -0.130 C  
HETATM   27  O   UNL     1      -7.643   7.254  67.228  1.00  0.00    -0.100 OA 
HETATM   28  H   UNL     1      -7.158   6.714  66.615  1.00  0.00     0.000 HD 
BRANCH  26  29
HETATM   29  N   UNL     1      -9.526   6.728  66.041  1.00  0.00    -0.391 NA 
HETATM   30  H   UNL     1     -10.288   7.175  65.531  1.00  0.00     0.000 HD 
BRANCH  29  31
HETATM   31  C   UNL     1      -9.041   5.398  65.643  1.00  0.00    -0.140 C  
BRANCH  31  32
HETATM   32  C   UNL     1     -10.190   4.374  65.486  1.00  0.00    -0.241 C  
HETATM   33  O   UNL     1     -11.483   5.000  65.476  1.00  0.00    -0.830 OA 
HETATM   34  H   UNL     1     -12.189   4.371  65.381  1.00  0.00     0.000 HD 
BRANCH  32  35
HETATM   35  C   UNL     1     -10.032   3.593  64.170  1.00  0.00    -0.192 C  
HETATM   36  O   UNL     1     -11.091   2.659  63.961  1.00  0.00    -0.557 OA 
HETATM   37  H   UNL     1     -10.993   2.177  63.149  1.00  0.00     0.000 HD 
ENDBRANCH  32  35
ENDBRANCH  31  32
ENDBRANCH  29  31
ENDBRANCH  26  29
ENDBRANCH  11  26
ENDBRANCH   2   5
BRANCH   4  38
HETATM   38  C   UNL     1      -9.232   8.443  72.467  1.00  0.00    -0.268 C  
HETATM   39  O   UNL     1      -8.191   7.533  72.167  1.00  0.00    -0.098 OA 
HETATM   40  H   UNL     1      -7.345   7.966  72.140  1.00  0.00     0.000 HD 
ENDBRANCH   4  38
TORSDOF 12
ENDMDL
MODEL       13
REMARK 921   NORMALIZED FREE ENERGY PREDICTED BY IDOCK:   -5.21 KCAL/MOL
REMARK 922        TOTAL FREE ENERGY PREDICTED BY IDOCK:   -9.90 KCAL/MOL
REMARK 923 INTER-LIGAND FREE ENERGY PREDICTED BY IDOCK:   -9.08 KCAL/MOL
REMARK 924 INTRA-LIGAND FREE ENERGY PREDICTED BY IDOCK:   -0.83 KCAL/MOL
REMARK 927      BINDING AFFINITY PREDICTED BY RF-SCORE:    0.00 PKD
ROOT
HETATM    1  C   UNL     1      -7.029   8.316  65.983  1.00  0.00    -0.065 C  
HETATM    2  N   UNL     1      -8.351   7.895  66.441  1.00  0.00    -0.123 N  
HETATM    3  O   UNL     1      -8.251   5.879  65.336  1.00  0.00    -0.126 OA 
HETATM    4  C   UNL     1      -8.880   6.666  66.038  1.00  0.00    -0.139 C  
ENDROOT
BRANCH   2   5
HETATM    5  C   UNL     1      -9.029   8.799  67.317  1.00  0.00    -0.132 A  
HETATM    6  I   UNL     1      -7.567   7.099  69.452  1.00  0.00    -0.102 I  
HETATM    7  C   UNL     1      -9.743   9.901  66.779  1.00  0.00    -0.192 A  
HETATM    8  C   UNL     1     -10.467  10.760  67.632  1.00  0.00    -0.252 A  
HETATM    9  C   UNL     1      -8.987   8.589  68.720  1.00  0.00    -0.139 A  
HETATM   10  I   UNL     1      -9.643  10.232  64.639  1.00  0.00    -0.323 I  
HETATM   11  C   UNL     1      -9.765   9.390  69.595  1.00  0.00    -0.202 A  
HETATM   12  I   UNL     1     -12.077  11.399  70.225  1.00  0.00    -0.346 I  
HETATM   13  C   UNL     1     -10.540  10.438  69.023  1.00  0.00    -0.221 A  
BRANCH   8  14
HETATM   14  C   UNL     1     -11.004  12.071  67.151  1.00  0.00    -0.270 C  
HETATM   15  H   UNL     1     -12.604  12.916  66.383  1.00  0.00     0.000 HD 
HETATM   16  O   UNL     1     -12.264  12.084  66.688  1.00  0.00    -0.550 OA 
BRANCH  14  17
HETATM   17  N   UNL     1     -10.290  13.133  67.167  1.00  0.00    -0.246 NA 
HETATM   18  H   UNL     1      -9.777  13.406  68.006  1.00  0.00     0.000 HD 
BRANCH  17  19
HETATM   19  C   UNL     1     -10.226  13.952  65.947  1.00  0.00    -0.315 C  
BRANCH  19  20
HETATM   20  C   UNL     1     -11.013  15.251  66.165  1.00  0.00    -0.307 C  
HETATM   21  H   UNL     1     -11.486  16.408  67.687  1.00  0.00     0.000 HD 
HETATM   22  O   UNL     1     -10.998  15.604  67.552  1.00  0.00    -0.316 OA 
BRANCH  20  23
HETATM   23  C   UNL     1     -10.440  16.396  65.312  1.00  0.00    -0.261 C  
HETATM   24  O   UNL     1     -11.206  16.603  64.125  1.00  0.00    -1.410 OA 
HETATM   25  H   UNL     1     -10.853  17.310  63.599  1.00  0.00     0.000 HD 
ENDBRANCH  20  23
ENDBRANCH  19  20
ENDBRANCH  17  19
ENDBRANCH  14  17
ENDBRANCH   8  14
BRANCH  11  26
HETATM   26  C   UNL     1      -9.739   9.112  71.070  1.00  0.00    -0.289 C  
HETATM   27  O   UNL     1      -8.591   9.412  71.712  1.00  0.00    -0.193 OA 
HETATM   28  H   UNL     1      -8.575   9.236  72.646  1.00  0.00     0.000 HD 
BRANCH  26  29
HETATM   29  N   UNL     1     -10.714   8.561  71.694  1.00  0.00    -0.258 NA 
HETATM   30  H   UNL     1     -11.651   8.958  71.643  1.00  0.00     0.000 HD 
BRANCH  29  31
HETATM   31  C   UNL     1     -10.461   7.346  72.485  1.00  0.00    -0.236 C  
BRANCH  31  32
HETATM   32  C   UNL     1     -11.340   6.156  72.034  1.00  0.00    -0.297 C  
HETATM   33  O   UNL     1     -12.739   6.393  72.257  1.00  0.00    -0.552 OA 
HETATM   34  H   UNL     1     -13.279   5.662  71.981  1.00  0.00     0.000 HD 
BRANCH  32  35
HETATM   35  C   UNL     1     -11.140   5.885  70.533  1.00  0.00    -0.277 C  
HETATM   36  O   UNL     1     -12.054   6.621  69.720  1.00  0.00    -0.638 OA 
HETATM   37  H   UNL     1     -11.930   6.453  68.793  1.00  0.00     0.000 HD 
ENDBRANCH  32  35
ENDBRANCH  31  32
ENDBRANCH  29  31
ENDBRANCH  26  29
ENDBRANCH  11  26
ENDBRANCH   2   5
BRANCH   4  38
HETATM   38  C   UNL     1     -10.314   6.317  66.477  1.00  0.00    -0.099 C  
HETATM   39  O   UNL     1     -10.344   5.154  67.282  1.00  0.00    -0.199 OA 
HETATM   40  H   UNL     1     -11.229   4.939  67.553  1.00  0.00     0.000 HD 
ENDBRANCH   4  38
TORSDOF 12
ENDMDL
MODEL       14
REMARK 921   NORMALIZED FREE ENERGY PREDICTED BY IDOCK:   -5.21 KCAL/MOL
REMARK 922        TOTAL FREE ENERGY PREDICTED BY IDOCK:   -9.90 KCAL/MOL
REMARK 923 INTER-LIGAND FREE ENERGY PREDICTED BY IDOCK:   -9.15 KCAL/MOL
REMARK 924 INTRA-LIGAND FREE ENERGY PREDICTED BY IDOCK:   -0.75 KCAL/MOL
REMARK 927      BINDING AFFINITY PREDICTED BY RF-SCORE:    0.00 PKD
ROOT
HETATM    1  C   UNL     1      -7.457   7.670  70.821  1.00  0.00    -0.071 C  
HETATM    2  N   UNL     1      -8.578   7.600  69.889  1.00  0.00    -0.137 N  
HETATM    3  O   UNL     1      -9.032   5.398  70.375  1.00  0.00    -0.129 OA 
HETATM    4  C   UNL     1      -9.285   6.406  69.722  1.00  0.00    -0.144 C  
ENDROOT
BRANCH   2   5
HETATM    5  C   UNL     1      -8.897   8.810  69.196  1.00  0.00    -0.137 A  
HETATM    6  I   UNL     1      -6.912   7.613  67.143  1.00  0.00    -0.085 I  
HETATM    7  C   UNL     1      -9.918   9.660  69.693  1.00  0.00    -0.221 A  
HETATM    8  C   UNL     1     -10.194  10.885  69.052  1.00  0.00    -0.219 A  
HETATM    9  C   UNL     1      -8.188   9.156  68.016  1.00  0.00    -0.112 A  
HETATM   10  I   UNL     1     -11.047   8.992  71.420  1.00  0.00    -0.469 I  
HETATM   11  C   UNL     1      -8.392  10.414  67.393  1.00  0.00    -0.121 A  
HETATM   12  I   UNL     1      -9.408  13.371  67.342  1.00  0.00    -0.253 I  
HETATM   13  C   UNL     1      -9.364  11.287  67.960  1.00  0.00    -0.166 A  
BRANCH   8  14
HETATM   14  C   UNL     1     -11.424  11.676  69.371  1.00  0.00    -0.307 C  
HETATM   15  H   UNL     1     -13.298  11.934  68.834  1.00  0.00     0.000 HD 
HETATM   16  O   UNL     1     -12.517  11.431  68.632  1.00  0.00    -0.396 OA 
BRANCH  14  17
HETATM   17  N   UNL     1     -11.431  12.558  70.299  1.00  0.00    -0.489 NA 
HETATM   18  H   UNL     1     -10.803  12.479  71.099  1.00  0.00     0.000 HD 
BRANCH  17  19
HETATM   19  C   UNL     1     -12.367  13.687  70.184  1.00  0.00    -0.304 C  
BRANCH  19  20
HETATM   20  C   UNL     1     -12.346  14.498  71.485  1.00  0.00    -0.361 C  
HETATM   21  H   UNL     1     -12.828  16.322  72.052  1.00  0.00     0.000 HD 
HETATM   22  O   UNL     1     -12.841  15.820  71.245  1.00  0.00    -0.475 OA 
BRANCH  20  23
HETATM   23  C   UNL     1     -13.171  13.805  72.583  1.00  0.00    -0.470 C  
HETATM   24  O   UNL     1     -13.442  12.442  72.258  1.00  0.00    -0.551 OA 
HETATM   25  H   UNL     1     -13.952  12.015  72.937  1.00  0.00     0.000 HD 
ENDBRANCH  20  23
ENDBRANCH  19  20
ENDBRANCH  17  19
ENDBRANCH  14  17
ENDBRANCH   8  14
BRANCH  11  26
HETATM   26  C   UNL     1      -7.591  10.774  66.175  1.00  0.00    -0.139 C  
HETATM   27  O   UNL     1      -6.425  11.416  66.398  1.00  0.00    -0.273 OA 
HETATM   28  H   UNL     1      -5.918  11.644  65.627  1.00  0.00     0.000 HD 
BRANCH  26  29
HETATM   29  N   UNL     1      -8.000  10.555  64.980  1.00  0.00    -0.280 NA 
HETATM   30  H   UNL     1      -7.333  10.444  64.217  1.00  0.00     0.000 HD 
BRANCH  29  31
HETATM   31  C   UNL     1      -9.446  10.463  64.725  1.00  0.00    -0.273 C  
BRANCH  31  32
HETATM   32  C   UNL     1      -9.892  11.350  63.538  1.00  0.00    -0.375 C  
HETATM   33  O   UNL     1     -10.360  10.576  62.422  1.00  0.00    -0.714 OA 
HETATM   34  H   UNL     1     -10.634  11.121  61.693  1.00  0.00     0.000 HD 
BRANCH  32  35
HETATM   35  C   UNL     1     -11.029  12.290  63.974  1.00  0.00    -0.383 C  
HETATM   36  O   UNL     1     -11.636  12.959  62.868  1.00  0.00    -0.747 OA 
HETATM   37  H   UNL     1     -12.338  13.539  63.137  1.00  0.00     0.000 HD 
ENDBRANCH  32  35
ENDBRANCH  31  32
ENDBRANCH  29  31
ENDBRANCH  26  29
ENDBRANCH  11  26
ENDBRANCH   2   5
BRANCH   4  38
HETATM   38  C   UNL     1     -10.398   6.366  68.658  1.00  0.00    -0.199 C  
HETATM   39  O   UNL     1     -10.152   5.368  67.686  1.00  0.00    -0.154 OA 
HETATM   40  H   UNL     1     -10.839   5.343  67.029  1.00  0.00     0.000 HD 
ENDBRANCH   4  38
TORSDOF 12
ENDMDL
MODEL       15
REMARK 921   NORMALIZED FREE ENERGY PREDICTED BY IDOCK:   -5.17 KCAL/MOL
REMARK 922        TOTAL FREE ENERGY PREDICTED BY IDOCK:   -9.84 KCAL/MOL
REMARK 923 INTER-LIGAND FREE ENERGY PREDICTED BY IDOCK:   -9.20 KCAL/MOL
REMARK 924 INTRA-LIGAND FREE ENERGY PREDICTED BY IDOCK:   -0.64 KCAL/MOL
REMARK 927      BINDING AFFINITY PREDICTED BY RF-SCORE:    0.00 PKD
ROOT
HETATM    1  C   UNL     1      -9.158   6.411  69.036  1.00  0.00    -0.130 C  
HETATM    2  N   UNL     1      -8.566   7.598  69.645  1.00  0.00    -0.135 N  
HETATM    3  O   UNL     1      -7.024   6.388  70.849  1.00  0.00    -0.064 OA 
HETATM    4  C   UNL     1      -7.517   7.475  70.561  1.00  0.00    -0.080 C  
ENDROOT
BRANCH   2   5
HETATM    5  C   UNL     1      -9.113   8.855  69.234  1.00  0.00    -0.145 A  
HETATM    6  I   UNL     1     -10.851   8.399  71.756  1.00  0.00    -0.433 I  
HETATM    7  C   UNL     1      -8.516   9.567  68.162  1.00  0.00    -0.119 A  
HETATM    8  C   UNL     1      -9.087  10.775  67.710  1.00  0.00    -0.151 A  
HETATM    9  C   UNL     1     -10.249   9.383  69.900  1.00  0.00    -0.222 A  
HETATM   10  I   UNL     1      -6.701   8.762  67.291  1.00  0.00    -0.062 I  
HETATM   11  C   UNL     1     -10.888  10.555  69.421  1.00  0.00    -0.291 A  
HETATM   12  I   UNL     1     -11.478  12.720  67.243  1.00  0.00    -0.433 I  
HETATM   13  C   UNL     1     -10.320  11.206  68.290  1.00  0.00    -0.180 A  
BRANCH   8  14
HETATM   14  C   UNL     1      -8.353  11.687  66.778  1.00  0.00    -0.171 C  
HETATM   15  H   UNL     1      -6.983  13.096  66.728  1.00  0.00     0.000 HD 
HETATM   16  O   UNL     1      -7.449  12.517  67.320  1.00  0.00    -0.150 OA 
BRANCH  14  17
HETATM   17  N   UNL     1      -8.586  11.686  65.519  1.00  0.00    -0.381 NA 
HETATM   18  H   UNL     1      -8.254  12.446  64.925  1.00  0.00     0.000 HD 
BRANCH  17  19
HETATM   19  C   UNL     1      -9.344  10.561  64.949  1.00  0.00    -0.232 C  
BRANCH  19  20
HETATM   20  C   UNL     1     -10.017  11.011  63.647  1.00  0.00    -0.361 C  
HETATM   21  H   UNL     1     -10.724  12.690  62.897  1.00  0.00     0.000 HD 
HETATM   22  O   UNL     1     -10.307  12.412  63.704  1.00  0.00    -0.424 OA 
BRANCH  20  23
HETATM   23  C   UNL     1      -9.135  10.693  62.428  1.00  0.00    -0.286 C  
HETATM   24  O   UNL     1      -7.936  11.467  62.428  1.00  0.00    -0.598 OA 
HETATM   25  H   UNL     1      -7.391  11.271  61.675  1.00  0.00     0.000 HD 
ENDBRANCH  20  23
ENDBRANCH  19  20
ENDBRANCH  17  19
ENDBRANCH  14  17
ENDBRANCH   8  14
BRANCH  11  26
HETATM   26  C   UNL     1     -12.120  11.062  70.115  1.00  0.00    -0.356 C  
HETATM   27  O   UNL     1     -13.280  10.456  69.785  1.00  0.00    -0.541 OA 
HETATM   28  H   UNL     1     -14.059  10.777  70.224  1.00  0.00     0.000 HD 
BRANCH  26  29
HETATM   29  N   UNL     1     -12.106  12.053  70.927  1.00  0.00    -0.408 NA 
HETATM   30  H   UNL     1     -11.362  12.749  70.882  1.00  0.00     0.000 HD 
BRANCH  29  31
HETATM   31  C   UNL     1     -13.179  12.173  71.927  1.00  0.00    -0.369 C  
BRANCH  31  32
HETATM   32  C   UNL     1     -13.539  13.647  72.230  1.00  0.00    -0.571 C  
HETATM   33  O   UNL     1     -13.203  14.028  73.573  1.00  0.00    -0.358 OA 
HETATM   34  H   UNL     1     -13.424  14.933  73.760  1.00  0.00     0.000 HD 
BRANCH  32  35
HETATM   35  C   UNL     1     -12.790  14.586  71.270  1.00  0.00    -0.332 C  
HETATM   36  O   UNL     1     -13.670  15.464  70.569  1.00  0.00    -0.787 OA 
HETATM   37  H   UNL     1     -13.208  16.044  69.976  1.00  0.00     0.000 HD 
ENDBRANCH  32  35
ENDBRANCH  31  32
ENDBRANCH  29  31
ENDBRANCH  26  29
ENDBRANCH  11  26
ENDBRANCH   2   5
BRANCH   4  38
HETATM   38  C   UNL     1      -6.995   8.754  71.241  1.00  0.00    -0.088 C  
HETATM   39  O   UNL     1      -7.406   8.830  72.592  1.00  0.00    -0.336 OA 
HETATM   40  H   UNL     1      -7.083   9.619  73.012  1.00  0.00     0.000 HD 
ENDBRANCH   4  38
TORSDOF 12
ENDMDL
MODEL       16
REMARK 921   NORMALIZED FREE ENERGY PREDICTED BY IDOCK:   -5.13 KCAL/MOL
REMARK 922        TOTAL FREE ENERGY PREDICTED BY IDOCK:   -9.77 KCAL/MOL
REMARK 923 INTER-LIGAND FREE ENERGY PREDICTED BY IDOCK:   -8.76 KCAL/MOL
REMARK 924 INTRA-LIGAND FREE ENERGY PREDICTED BY IDOCK:   -1.01 KCAL/MOL
REMARK 927      BINDING AFFINITY PREDICTED BY RF-SCORE:    0.00 PKD
ROOT
HETATM    1  C   UNL     1      -8.252   7.536  63.967  1.00  0.00     0.041 C  
HETATM    2  N   UNL     1      -7.802   8.731  64.675  1.00  0.00    -0.119 N  
HETATM    3  O   UNL     1      -5.712   8.690  63.715  1.00  0.00    -0.069 OA 
HETATM    4  C   UNL     1      -6.502   9.212  64.497  1.00  0.00    -0.075 C  
ENDROOT
BRANCH   2   5
HETATM    5  C   UNL     1      -8.768   9.361  65.522  1.00  0.00    -0.163 A  
HETATM    6  I   UNL     1      -9.527  10.737  62.855  1.00  0.00    -0.334 I  
HETATM    7  C   UNL     1      -8.914   8.931  66.866  1.00  0.00    -0.128 A  
HETATM    8  C   UNL     1      -9.819   9.588  67.725  1.00  0.00    -0.196 A  
HETATM    9  C   UNL     1      -9.573  10.413  65.015  1.00  0.00    -0.280 A  
HETATM   10  I   UNL     1      -7.746   7.226  67.523  1.00  0.00    -0.115 I  
HETATM   11  C   UNL     1     -10.436  11.141  65.873  1.00  0.00    -0.310 A  
HETATM   12  I   UNL     1     -11.442  12.072  68.684  1.00  0.00    -0.427 I  
HETATM   13  C   UNL     1     -10.504  10.745  67.239  1.00  0.00    -0.237 A  
BRANCH   8  14
HETATM   14  C   UNL     1     -10.202   9.009  69.051  1.00  0.00    -0.205 C  
HETATM   15  H   UNL     1      -9.759   9.064  70.965  1.00  0.00     0.000 HD 
HETATM   16  O   UNL     1      -9.515   9.431  70.124  1.00  0.00    -0.204 OA 
BRANCH  14  17
HETATM   17  N   UNL     1     -11.136   8.140  69.157  1.00  0.00    -0.424 NA 
HETATM   18  H   UNL     1     -11.824   8.019  68.414  1.00  0.00     0.000 HD 
BRANCH  17  19
HETATM   19  C   UNL     1     -11.191   7.319  70.376  1.00  0.00    -0.276 C  
BRANCH  19  20
HETATM   20  C   UNL     1     -12.351   7.798  71.258  1.00  0.00    -0.293 C  
HETATM   21  H   UNL     1     -13.957   7.005  72.080  1.00  0.00     0.000 HD 
HETATM   22  O   UNL     1     -13.238   6.708  71.533  1.00  0.00    -0.214 OA 
BRANCH  20  23
HETATM   23  C   UNL     1     -11.833   8.415  72.569  1.00  0.00    -0.358 C  
HETATM   24  O   UNL     1     -10.426   8.229  72.719  1.00  0.00    -0.333 OA 
HETATM   25  H   UNL     1     -10.107   8.610  73.528  1.00  0.00     0.000 HD 
ENDBRANCH  20  23
ENDBRANCH  19  20
ENDBRANCH  17  19
ENDBRANCH  14  17
ENDBRANCH   8  14
BRANCH  11  26
HETATM   26  C   UNL     1     -11.239  12.283  65.319  1.00  0.00    -0.328 C  
HETATM   27  O   UNL     1     -12.578  12.121  65.315  1.00  0.00    -0.494 OA 
HETATM   28  H   UNL     1     -13.087  12.843  64.964  1.00  0.00     0.000 HD 
BRANCH  26  29
HETATM   29  N   UNL     1     -10.705  13.332  64.813  1.00  0.00    -0.355 NA 
HETATM   30  H   UNL     1     -10.893  13.594  63.846  1.00  0.00     0.000 HD 
BRANCH  29  31
HETATM   31  C   UNL     1      -9.815  14.154  65.648  1.00  0.00    -0.249 C  
BRANCH  31  32
HETATM   32  C   UNL     1     -10.570  15.300  66.363  1.00  0.00    -0.308 C  
HETATM   33  O   UNL     1     -10.006  15.610  67.647  1.00  0.00    -0.233 OA 
HETATM   34  H   UNL     1     -10.469  16.313  68.086  1.00  0.00     0.000 HD 
BRANCH  32  35
HETATM   35  C   UNL     1     -10.532  16.578  65.507  1.00  0.00    -0.301 C  
HETATM   36  O   UNL     1     -11.190  16.411  64.251  1.00  0.00    -1.159 OA 
HETATM   37  H   UNL     1     -11.166  17.200  63.722  1.00  0.00     0.000 HD 
ENDBRANCH  32  35
ENDBRANCH  31  32
ENDBRANCH  29  31
ENDBRANCH  26  29
ENDBRANCH  11  26
ENDBRANCH   2   5
BRANCH   4  38
HETATM   38  C   UNL     1      -6.054  10.421  65.339  1.00  0.00    -0.132 C  
HETATM   39  O   UNL     1      -5.272  11.322  64.580  1.00  0.00    -0.482 OA 
HETATM   40  H   UNL     1      -4.996  12.069  65.100  1.00  0.00     0.000 HD 
ENDBRANCH   4  38
TORSDOF 12
ENDMDL
MODEL       17
REMARK 921   NORMALIZED FREE ENERGY PREDICTED BY IDOCK:   -5.11 KCAL/MOL
REMARK 922        TOTAL FREE ENERGY PREDICTED BY IDOCK:   -9.74 KCAL/MOL
REMARK 923 INTER-LIGAND FREE ENERGY PREDICTED BY IDOCK:   -9.21 KCAL/MOL
REMARK 924 INTRA-LIGAND FREE ENERGY PREDICTED BY IDOCK:   -0.53 KCAL/MOL
REMARK 927      BINDING AFFINITY PREDICTED BY RF-SCORE:    0.00 PKD
ROOT
HETATM    1  C   UNL     1      -5.724   7.941  66.276  1.00  0.00    -0.036 C  
HETATM    2  N   UNL     1      -7.067   7.379  66.166  1.00  0.00    -0.068 N  
HETATM    3  O   UNL     1      -6.308   5.331  65.441  1.00  0.00    -0.033 OA 
HETATM    4  C   UNL     1      -7.251   6.069  65.713  1.00  0.00    -0.075 C  
ENDROOT
BRANCH   2   5
HETATM    5  C   UNL     1      -8.142   8.237  66.560  1.00  0.00    -0.105 A  
HETATM    6  I   UNL     1      -8.097   8.912  63.538  1.00  0.00    -0.133 I  
HETATM    7  C   UNL     1      -8.649   8.170  67.883  1.00  0.00    -0.132 A  
HETATM    8  C   UNL     1      -9.665   9.056  68.297  1.00  0.00    -0.169 A  
HETATM    9  C   UNL     1      -8.694   9.152  65.626  1.00  0.00    -0.174 A  
HETATM   10  I   UNL     1      -7.848   6.650  69.205  1.00  0.00    -0.113 I  
HETATM   11  C   UNL     1      -9.662  10.105  66.034  1.00  0.00    -0.285 A  
HETATM   12  I   UNL     1     -11.219  11.757  68.185  1.00  0.00    -0.407 I  
HETATM   13  C   UNL     1     -10.096  10.073  67.390  1.00  0.00    -0.208 A  
BRANCH   8  14
HETATM   14  C   UNL     1     -10.411   8.848  69.578  1.00  0.00    -0.226 C  
HETATM   15  H   UNL     1     -10.379   9.290  71.493  1.00  0.00     0.000 HD 
HETATM   16  O   UNL     1      -9.905   9.421  70.680  1.00  0.00    -0.245 OA 
BRANCH  14  17
HETATM   17  N   UNL     1     -11.480   8.145  69.623  1.00  0.00    -0.369 NA 
HETATM   18  H   UNL     1     -12.116   8.108  68.826  1.00  0.00     0.000 HD 
BRANCH  17  19
HETATM   19  C   UNL     1     -11.768   7.390  70.853  1.00  0.00    -0.296 C  
BRANCH  19  20
HETATM   20  C   UNL     1     -13.179   7.737  71.342  1.00  0.00    -0.267 C  
HETATM   21  H   UNL     1     -14.650   6.810  72.269  1.00  0.00     0.000 HD 
HETATM   22  O   UNL     1     -13.775   6.595  71.966  1.00  0.00    -0.141 OA 
BRANCH  20  23
HETATM   23  C   UNL     1     -13.152   8.929  72.315  1.00  0.00    -0.436 C  
HETATM   24  O   UNL     1     -14.398   9.086  72.992  1.00  0.00    -1.108 OA 
HETATM   25  H   UNL     1     -14.381   9.822  73.592  1.00  0.00     0.000 HD 
ENDBRANCH  20  23
ENDBRANCH  19  20
ENDBRANCH  17  19
ENDBRANCH  14  17
ENDBRANCH   8  14
BRANCH  11  26
HETATM   26  C   UNL     1     -10.192  11.094  65.036  1.00  0.00    -0.296 C  
HETATM   27  O   UNL     1     -11.153  10.642  64.204  1.00  0.00    -0.129 OA 
HETATM   28  H   UNL     1     -11.489  11.268  63.572  1.00  0.00     0.000 HD 
BRANCH  26  29
HETATM   29  N   UNL     1      -9.728  12.283  64.917  1.00  0.00    -0.455 NA 
HETATM   30  H   UNL     1      -8.824  12.528  65.320  1.00  0.00     0.000 HD 
BRANCH  29  31
HETATM   31  C   UNL     1     -10.518  13.289  64.190  1.00  0.00    -0.260 C  
BRANCH  31  32
HETATM   32  C   UNL     1     -10.852  14.520  65.065  1.00  0.00    -0.412 C  
HETATM   33  O   UNL     1      -9.723  15.390  65.241  1.00  0.00    -0.264 OA 
HETATM   34  H   UNL     1      -9.928  16.146  65.779  1.00  0.00     0.000 HD 
BRANCH  32  35
HETATM   35  C   UNL     1     -11.985  15.338  64.422  1.00  0.00    -0.277 C  
HETATM   36  O   UNL     1     -11.503  16.504  63.753  1.00  0.00    -1.615 OA 
HETATM   37  H   UNL     1     -12.202  17.009  63.356  1.00  0.00     0.000 HD 
ENDBRANCH  32  35
ENDBRANCH  31  32
ENDBRANCH  29  31
ENDBRANCH  26  29
ENDBRANCH  11  26
ENDBRANCH   2   5
BRANCH   4  38
HETATM   38  C   UNL     1      -8.693   5.562  65.530  1.00  0.00    -0.154 C  
HETATM   39  O   UNL     1      -8.931   5.138  64.201  1.00  0.00    -0.318 OA 
HETATM   40  H   UNL     1      -9.821   4.824  64.088  1.00  0.00     0.000 HD 
ENDBRANCH   4  38
TORSDOF 12
ENDMDL
MODEL       18
REMARK 921   NORMALIZED FREE ENERGY PREDICTED BY IDOCK:   -5.09 KCAL/MOL
REMARK 922        TOTAL FREE ENERGY PREDICTED BY IDOCK:   -9.70 KCAL/MOL
REMARK 923 INTER-LIGAND FREE ENERGY PREDICTED BY IDOCK:   -8.72 KCAL/MOL
REMARK 924 INTRA-LIGAND FREE ENERGY PREDICTED BY IDOCK:   -0.98 KCAL/MOL
REMARK 927      BINDING AFFINITY PREDICTED BY RF-SCORE:    0.00 PKD
ROOT
HETATM    1  C   UNL     1      -6.101  10.443  66.282  1.00  0.00    -0.090 C  
HETATM    2  N   UNL     1      -6.682  10.719  67.593  1.00  0.00    -0.068 N  
HETATM    3  O   UNL     1      -5.407   9.126  68.655  1.00  0.00    -0.034 OA 
HETATM    4  C   UNL     1      -6.283   9.985  68.713  1.00  0.00    -0.040 C  
ENDROOT
BRANCH   2   5
HETATM    5  C   UNL     1      -7.645  11.776  67.643  1.00  0.00    -0.132 A  
HETATM    6  I   UNL     1      -9.596   9.383  67.408  1.00  0.00    -0.225 I  
HETATM    7  C   UNL     1      -7.223  13.104  67.905  1.00  0.00    -0.133 A  
HETATM    8  C   UNL     1      -8.158  14.160  67.893  1.00  0.00    -0.154 A  
HETATM    9  C   UNL     1      -9.019  11.490  67.429  1.00  0.00    -0.156 A  
HETATM   10  I   UNL     1      -5.129  13.436  68.359  1.00  0.00    -0.106 I  
HETATM   11  C   UNL     1      -9.970  12.538  67.337  1.00  0.00    -0.207 A  
HETATM   12  I   UNL     1     -10.798  15.530  66.956  1.00  0.00    -0.178 I  
HETATM   13  C   UNL     1      -9.507  13.872  67.520  1.00  0.00    -0.216 A  
BRANCH   8  14
HETATM   14  C   UNL     1      -7.814  15.517  68.422  1.00  0.00    -0.126 C  
HETATM   15  H   UNL     1      -7.949  16.648  70.024  1.00  0.00     0.000 HD 
HETATM   16  O   UNL     1      -8.167  15.787  69.689  1.00  0.00    -0.193 OA 
BRANCH  14  17
HETATM   17  N   UNL     1      -7.221  16.388  67.696  1.00  0.00    -0.126 NA 
HETATM   18  H   UNL     1      -6.660  16.104  66.892  1.00  0.00     0.000 HD 
BRANCH  17  19
HETATM   19  C   UNL     1      -7.366  17.809  68.049  1.00  0.00    -0.220 C  
BRANCH  19  20
HETATM   20  C   UNL     1      -7.828  18.594  66.815  1.00  0.00    -0.245 C  
HETATM   21  H   UNL     1      -8.215  18.203  64.923  1.00  0.00     0.000 HD 
HETATM   22  O   UNL     1      -7.930  17.717  65.688  1.00  0.00    -0.529 OA 
BRANCH  20  23
HETATM   23  C   UNL     1      -9.172  19.296  67.075  1.00  0.00    -0.307 C  
HETATM   24  O   UNL     1      -9.411  20.342  66.134  1.00  0.00    -0.589 OA 
HETATM   25  H   UNL     1     -10.241  20.775  66.294  1.00  0.00     0.000 HD 
ENDBRANCH  20  23
ENDBRANCH  19  20
ENDBRANCH  17  19
ENDBRANCH  14  17
ENDBRANCH   8  14
BRANCH  11  26
HETATM   26  C   UNL     1     -11.408  12.209  67.059  1.00  0.00    -0.337 C  
HETATM   27  O   UNL     1     -12.232  12.198  68.128  1.00  0.00    -0.388 OA 
HETATM   28  H   UNL     1     -13.143  11.989  67.953  1.00  0.00     0.000 HD 
BRANCH  26  29
HETATM   29  N   UNL     1     -11.840  11.889  65.896  1.00  0.00    -0.448 NA 
HETATM   30  H   UNL     1     -11.779  10.925  65.569  1.00  0.00     0.000 HD 
BRANCH  29  31
HETATM   31  C   UNL     1     -12.426  12.931  65.039  1.00  0.00    -0.492 C  
BRANCH  31  32
HETATM   32  C   UNL     1     -12.222  12.640  63.534  1.00  0.00    -0.547 C  
HETATM   33  O   UNL     1     -12.409  13.808  62.720  1.00  0.00    -0.863 OA 
HETATM   34  H   UNL     1     -12.284  13.629  61.795  1.00  0.00     0.000 HD 
BRANCH  32  35
HETATM   35  C   UNL     1     -10.800  12.110  63.282  1.00  0.00    -0.321 C  
HETATM   36  O   UNL     1      -9.796  12.959  63.839  1.00  0.00    -0.686 OA 
HETATM   37  H   UNL     1      -8.918  12.631  63.683  1.00  0.00     0.000 HD 
ENDBRANCH  32  35
ENDBRANCH  31  32
ENDBRANCH  29  31
ENDBRANCH  26  29
ENDBRANCH  11  26
ENDBRANCH   2   5
BRANCH   4  38
HETATM   38  C   UNL     1      -6.996  10.258  70.050  1.00  0.00    -0.151 C  
HETATM   39  O   UNL     1      -6.225  11.094  70.890  1.00  0.00    -0.414 OA 
HETATM   40  H   UNL     1      -6.665  11.263  71.716  1.00  0.00     0.000 HD 
ENDBRANCH   4  38
TORSDOF 12
ENDMDL
MODEL       19
REMARK 921   NORMALIZED FREE ENERGY PREDICTED BY IDOCK:   -5.06 KCAL/MOL
REMARK 922        TOTAL FREE ENERGY PREDICTED BY IDOCK:   -9.65 KCAL/MOL
REMARK 923 INTER-LIGAND FREE ENERGY PREDICTED BY IDOCK:   -8.91 KCAL/MOL
REMARK 924 INTRA-LIGAND FREE ENERGY PREDICTED BY IDOCK:   -0.74 KCAL/MOL
REMARK 927      BINDING AFFINITY PREDICTED BY RF-SCORE:    0.00 PKD
ROOT
HETATM    1  C   UNL     1      -8.054   6.976  69.580  1.00  0.00    -0.130 C  
HETATM    2  N   UNL     1      -9.249   7.150  68.761  1.00  0.00    -0.137 N  
HETATM    3  O   UNL     1      -9.578   4.888  68.501  1.00  0.00    -0.135 OA 
HETATM    4  C   UNL     1      -9.924   6.039  68.248  1.00  0.00    -0.147 C  
ENDROOT
BRANCH   2   5
HETATM    5  C   UNL     1      -9.672   8.500  68.545  1.00  0.00    -0.163 A  
HETATM    6  I   UNL     1     -11.135   7.980  71.224  1.00  0.00    -0.335 I  
HETATM    7  C   UNL     1      -9.122   9.249  67.473  1.00  0.00    -0.120 A  
HETATM    8  C   UNL     1      -9.580  10.557  67.216  1.00  0.00    -0.188 A  
HETATM    9  C   UNL     1     -10.640   9.082  69.404  1.00  0.00    -0.221 A  
HETATM   10  I   UNL     1      -7.548   8.335  66.295  1.00  0.00    -0.102 I  
HETATM   11  C   UNL     1     -11.174  10.367  69.126  1.00  0.00    -0.301 A  
HETATM   12  I   UNL     1     -11.735  12.811  67.257  1.00  0.00    -0.284 I  
HETATM   13  C   UNL     1     -10.666  11.066  67.994  1.00  0.00    -0.217 A  
BRANCH   8  14
HETATM   14  C   UNL     1      -8.852  11.473  66.282  1.00  0.00    -0.186 C  
HETATM   15  H   UNL     1      -8.866  12.156  64.439  1.00  0.00     0.000 HD 
HETATM   16  O   UNL     1      -9.328  11.575  65.032  1.00  0.00    -0.191 OA 
BRANCH  14  17
HETATM   17  N   UNL     1      -7.813  12.121  66.655  1.00  0.00    -0.385 NA 
HETATM   18  H   UNL     1      -6.907  11.952  66.218  1.00  0.00     0.000 HD 
BRANCH  17  19
HETATM   19  C   UNL     1      -7.957  13.116  67.729  1.00  0.00    -0.162 C  
BRANCH  19  20
HETATM   20  C   UNL     1      -6.686  13.124  68.588  1.00  0.00    -0.096 C  
HETATM   21  H   UNL     1      -6.059  14.028  70.222  1.00  0.00     0.000 HD 
HETATM   22  O   UNL     1      -6.847  14.023  69.690  1.00  0.00    -0.101 OA 
BRANCH  20  23
HETATM   23  C   UNL     1      -6.348  11.710  69.090  1.00  0.00    -0.084 C  
HETATM   24  O   UNL     1      -7.257  11.278  70.102  1.00  0.00    -0.419 OA 
HETATM   25  H   UNL     1      -7.047  10.405  70.413  1.00  0.00     0.000 HD 
ENDBRANCH  20  23
ENDBRANCH  19  20
ENDBRANCH  17  19
ENDBRANCH  14  17
ENDBRANCH   8  14
BRANCH  11  26
HETATM   26  C   UNL     1     -12.234  10.937  70.023  1.00  0.00    -0.347 C  
HETATM   27  O   UNL     1     -13.463  10.391  69.912  1.00  0.00    -0.422 OA 
HETATM   28  H   UNL     1     -14.135  10.751  70.480  1.00  0.00     0.000 HD 
BRANCH  26  29
HETATM   29  N   UNL     1     -12.026  11.928  70.809  1.00  0.00    -0.443 NA 
HETATM   30  H   UNL     1     -11.243  12.560  70.648  1.00  0.00     0.000 HD 
BRANCH  29  31
HETATM   31  C   UNL     1     -12.934  12.141  71.947  1.00  0.00    -0.314 C  
BRANCH  31  32
HETATM   32  C   UNL     1     -13.575  13.548  71.933  1.00  0.00    -0.424 C  
HETATM   33  O   UNL     1     -13.419  14.233  73.186  1.00  0.00    -0.632 OA 
HETATM   34  H   UNL     1     -13.813  15.098  73.178  1.00  0.00     0.000 HD 
BRANCH  32  35
HETATM   35  C   UNL     1     -12.933  14.415  70.836  1.00  0.00    -0.348 C  
HETATM   36  O   UNL     1     -13.686  15.599  70.568  1.00  0.00    -0.835 OA 
HETATM   37  H   UNL     1     -13.289  16.134  69.890  1.00  0.00     0.000 HD 
ENDBRANCH  32  35
ENDBRANCH  31  32
ENDBRANCH  29  31
ENDBRANCH  26  29
ENDBRANCH  11  26
ENDBRANCH   2   5
BRANCH   4  38
HETATM   38  C   UNL     1     -11.124   6.287  67.316  1.00  0.00    -0.296 C  
HETATM   39  O   UNL     1     -11.079   5.449  66.177  1.00  0.00    -0.748 OA 
HETATM   40  H   UNL     1     -11.820   5.602  65.601  1.00  0.00     0.000 HD 
ENDBRANCH   4  38
TORSDOF 12
ENDMDL
MODEL       20
REMARK 921   NORMALIZED FREE ENERGY PREDICTED BY IDOCK:   -5.06 KCAL/MOL
REMARK 922        TOTAL FREE ENERGY PREDICTED BY IDOCK:   -9.65 KCAL/MOL
REMARK 923 INTER-LIGAND FREE ENERGY PREDICTED BY IDOCK:   -9.30 KCAL/MOL
REMARK 924 INTRA-LIGAND FREE ENERGY PREDICTED BY IDOCK:   -0.35 KCAL/MOL
REMARK 927      BINDING AFFINITY PREDICTED BY RF-SCORE:    0.00 PKD
ROOT
HETATM    1  C   UNL     1     -12.639   7.168  70.782  1.00  0.00    -0.133 C  
HETATM    2  N   UNL     1     -11.355   7.843  70.950  1.00  0.00    -0.275 N  
HETATM    3  O   UNL     1     -11.238   7.370  73.199  1.00  0.00    -0.335 OA 
HETATM    4  C   UNL     1     -10.751   7.909  72.209  1.00  0.00    -0.283 C  
ENDROOT
BRANCH   2   5
HETATM    5  C   UNL     1     -10.776   8.397  69.766  1.00  0.00    -0.211 A  
HETATM    6  I   UNL     1     -12.239  10.926  70.789  1.00  0.00    -0.442 I  
HETATM    7  C   UNL     1      -9.858   7.629  69.003  1.00  0.00    -0.168 A  
HETATM    8  C   UNL     1      -9.332   8.144  67.801  1.00  0.00    -0.149 A  
HETATM    9  C   UNL     1     -11.122   9.711  69.358  1.00  0.00    -0.139 A  
HETATM   10  I   UNL     1      -9.274   5.686  69.768  1.00  0.00    -0.197 I  
HETATM   11  C   UNL     1     -10.668  10.226  68.117  1.00  0.00    -0.287 A  
HETATM   12  I   UNL     1      -9.453   9.933  65.250  1.00  0.00    -0.317 I  
HETATM   13  C   UNL     1      -9.815   9.403  67.328  1.00  0.00    -0.179 A  
BRANCH   8  14
HETATM   14  C   UNL     1      -8.172   7.495  67.112  1.00  0.00    -0.114 C  
HETATM   15  H   UNL     1      -6.211   7.358  67.151  1.00  0.00     0.000 HD 
HETATM   16  O   UNL     1      -6.947   7.769  67.588  1.00  0.00    -0.076 OA 
BRANCH  14  17
HETATM   17  N   UNL     1      -8.338   6.723  66.105  1.00  0.00    -0.124 NA 
HETATM   18  H   UNL     1      -8.730   7.078  65.233  1.00  0.00     0.000 HD 
BRANCH  17  19
HETATM   19  C   UNL     1      -7.950   5.310  66.236  1.00  0.00    -0.104 C  
BRANCH  19  20
HETATM   20  C   UNL     1      -9.005   4.429  65.557  1.00  0.00    -0.135 C  
HETATM   21  H   UNL     1      -9.315   2.501  65.291  1.00  0.00     0.000 HD 
HETATM   22  O   UNL     1      -8.662   3.047  65.712  1.00  0.00    -0.118 OA 
BRANCH  20  23
HETATM   23  C   UNL     1     -10.407   4.702  66.127  1.00  0.00    -0.275 C  
HETATM   24  O   UNL     1     -11.432   4.347  65.200  1.00  0.00    -1.069 OA 
HETATM   25  H   UNL     1     -12.298   4.516  65.552  1.00  0.00     0.000 HD 
ENDBRANCH  20  23
ENDBRANCH  19  20
ENDBRANCH  17  19
ENDBRANCH  14  17
ENDBRANCH   8  14
BRANCH  11  26
HETATM   26  C   UNL     1     -11.093  11.601  67.687  1.00  0.00    -0.255 C  
HETATM   27  O   UNL     1     -10.392  12.630  68.210  1.00  0.00    -0.229 OA 
HETATM   28  H   UNL     1     -10.661  13.500  67.938  1.00  0.00     0.000 HD 
BRANCH  26  29
HETATM   29  N   UNL     1     -12.099  11.815  66.923  1.00  0.00    -0.401 NA 
HETATM   30  H   UNL     1     -13.025  11.473  67.178  1.00  0.00     0.000 HD 
BRANCH  29  31
HETATM   31  C   UNL     1     -11.900  12.563  65.671  1.00  0.00    -0.438 C  
BRANCH  31  32
HETATM   32  C   UNL     1     -12.444  14.008  65.756  1.00  0.00    -0.494 C  
HETATM   33  O   UNL     1     -11.875  14.745  66.850  1.00  0.00    -0.354 OA 
HETATM   34  H   UNL     1     -12.209  15.633  66.902  1.00  0.00     0.000 HD 
BRANCH  32  35
HETATM   35  C   UNL     1     -12.130  14.772  64.457  1.00  0.00    -0.446 C  
HETATM   36  O   UNL     1     -12.638  14.108  63.300  1.00  0.00    -1.080 OA 
HETATM   37  H   UNL     1     -12.444  14.579  62.498  1.00  0.00     0.000 HD 
ENDBRANCH  32  35
ENDBRANCH  31  32
ENDBRANCH  29  31
ENDBRANCH  26  29
ENDBRANCH  11  26
ENDBRANCH   2   5
BRANCH   4  38
HETATM   38  C   UNL     1      -9.444   8.712  72.344  1.00  0.00    -0.225 C  
HETATM   39  O   UNL     1      -8.839   8.514  73.607  1.00  0.00    -0.249 OA 
HETATM   40  H   UNL     1      -8.033   9.010  73.690  1.00  0.00     0.000 HD 
ENDBRANCH   4  38
TORSDOF 12
ENDMDL
MODEL       21
REMARK 921   NORMALIZED FREE ENERGY PREDICTED BY IDOCK:   -5.04 KCAL/MOL
REMARK 922        TOTAL FREE ENERGY PREDICTED BY IDOCK:   -9.61 KCAL/MOL
REMARK 923 INTER-LIGAND FREE ENERGY PREDICTED BY IDOCK:   -8.58 KCAL/MOL
REMARK 924 INTRA-LIGAND FREE ENERGY PREDICTED BY IDOCK:   -1.02 KCAL/MOL
REMARK 927      BINDING AFFINITY PREDICTED BY RF-SCORE:    0.00 PKD
ROOT
HETATM    1  C   UNL     1      -6.869   6.298  66.445  1.00  0.00    -0.062 C  
HETATM    2  N   UNL     1      -8.318   6.333  66.614  1.00  0.00    -0.110 N  
HETATM    3  O   UNL     1      -8.595   4.146  65.955  1.00  0.00    -0.112 OA 
HETATM    4  C   UNL     1      -9.093   5.209  66.317  1.00  0.00    -0.136 C  
ENDROOT
BRANCH   2   5
HETATM    5  C   UNL     1      -8.864   7.561  67.107  1.00  0.00    -0.125 A  
HETATM    6  I   UNL     1      -8.283   6.190  69.822  1.00  0.00    -0.126 I  
HETATM    7  C   UNL     1      -9.157   8.616  66.206  1.00  0.00    -0.186 A  
HETATM    8  C   UNL     1      -9.753   9.804  66.676  1.00  0.00    -0.257 A  
HETATM    9  C   UNL     1      -9.110   7.716  68.496  1.00  0.00    -0.131 A  
HETATM   10  I   UNL     1      -8.622   8.351  64.121  1.00  0.00     0.479 I  
HETATM   11  C   UNL     1      -9.776   8.868  68.988  1.00  0.00    -0.171 A  
HETATM   12  I   UNL     1     -11.534  11.432  68.650  1.00  0.00    -0.422 I  
HETATM   13  C   UNL     1     -10.137   9.877  68.050  1.00  0.00    -0.171 A  
BRANCH   8  14
HETATM   14  C   UNL     1      -9.831  11.031  65.823  1.00  0.00    -0.235 C  
HETATM   15  H   UNL     1      -8.895  12.712  65.417  1.00  0.00     0.000 HD 
HETATM   16  O   UNL     1      -8.846  11.933  65.958  1.00  0.00    -0.135 OA 
BRANCH  14  17
HETATM   17  N   UNL     1     -10.801  11.221  65.010  1.00  0.00    -0.256 NA 
HETATM   18  H   UNL     1     -11.745  10.911  65.241  1.00  0.00     0.000 HD 
BRANCH  17  19
HETATM   19  C   UNL     1     -10.522  11.897  63.734  1.00  0.00    -0.423 C  
BRANCH  19  20
HETATM   20  C   UNL     1     -11.713  12.788  63.359  1.00  0.00    -0.488 C  
HETATM   21  H   UNL     1     -13.657  12.568  63.126  1.00  0.00     0.000 HD 
HETATM   22  O   UNL     1     -12.919  12.016  63.358  1.00  0.00    -0.772 OA 
BRANCH  20  23
HETATM   23  C   UNL     1     -11.838  13.981  64.323  1.00  0.00    -0.410 C  
HETATM   24  O   UNL     1     -10.608  14.245  64.996  1.00  0.00    -0.375 OA 
HETATM   25  H   UNL     1     -10.686  14.982  65.591  1.00  0.00     0.000 HD 
ENDBRANCH  20  23
ENDBRANCH  19  20
ENDBRANCH  17  19
ENDBRANCH  14  17
ENDBRANCH   8  14
BRANCH  11  26
HETATM   26  C   UNL     1     -10.069   8.982  70.456  1.00  0.00    -0.215 C  
HETATM   27  O   UNL     1      -9.028   9.321  71.245  1.00  0.00    -0.285 OA 
HETATM   28  H   UNL     1      -9.213   9.393  72.175  1.00  0.00     0.000 HD 
BRANCH  26  29
HETATM   29  N   UNL     1     -11.215   8.715  70.963  1.00  0.00    -0.261 NA 
HETATM   30  H   UNL     1     -11.812   9.463  71.315  1.00  0.00     0.000 HD 
BRANCH  29  31
HETATM   31  C   UNL     1     -11.659   7.314  71.029  1.00  0.00    -0.299 C  
BRANCH  31  32
HETATM   32  C   UNL     1     -13.167   7.188  71.350  1.00  0.00    -0.328 C  
HETATM   33  O   UNL     1     -13.424   6.272  72.426  1.00  0.00    -0.452 OA 
HETATM   34  H   UNL     1     -14.350   6.194  72.623  1.00  0.00     0.000 HD 
BRANCH  32  35
HETATM   35  C   UNL     1     -13.743   8.558  71.747  1.00  0.00    -0.407 C  
HETATM   36  O   UNL     1     -13.996   9.391  70.615  1.00  0.00    -0.509 OA 
HETATM   37  H   UNL     1     -14.351  10.237  70.860  1.00  0.00     0.000 HD 
ENDBRANCH  32  35
ENDBRANCH  31  32
ENDBRANCH  29  31
ENDBRANCH  26  29
ENDBRANCH  11  26
ENDBRANCH   2   5
BRANCH   4  38
HETATM   38  C   UNL     1     -10.624   5.334  66.426  1.00  0.00    -0.276 C  
HETATM   39  O   UNL     1     -11.280   4.611  65.402  1.00  0.00    -0.927 OA 
HETATM   40  H   UNL     1     -12.225   4.689  65.470  1.00  0.00     0.000 HD 
ENDBRANCH   4  38
TORSDOF 12
ENDMDL
MODEL       22
REMARK 921   NORMALIZED FREE ENERGY PREDICTED BY IDOCK:   -5.03 KCAL/MOL
REMARK 922        TOTAL FREE ENERGY PREDICTED BY IDOCK:   -9.60 KCAL/MOL
REMARK 923 INTER-LIGAND FREE ENERGY PREDICTED BY IDOCK:   -7.92 KCAL/MOL
REMARK 924 INTRA-LIGAND FREE ENERGY PREDICTED BY IDOCK:   -1.68 KCAL/MOL
REMARK 927      BINDING AFFINITY PREDICTED BY RF-SCORE:    0.00 PKD
ROOT
HETATM    1  C   UNL     1      -9.225   8.578  71.238  1.00  0.00    -0.200 C  
HETATM    2  N   UNL     1      -9.751   8.655  69.878  1.00  0.00    -0.171 N  
HETATM    3  O   UNL     1     -10.830   6.629  70.024  1.00  0.00    -0.238 OA 
HETATM    4  C   UNL     1     -10.524   7.613  69.358  1.00  0.00    -0.220 C  
ENDROOT
BRANCH   2   5
HETATM    5  C   UNL     1      -9.440   9.847  69.151  1.00  0.00    -0.196 A  
HETATM    6  I   UNL     1      -7.201   8.025  68.030  1.00  0.00    -0.099 I  
HETATM    7  C   UNL     1     -10.310  10.965  69.221  1.00  0.00    -0.187 A  
HETATM    8  C   UNL     1      -9.978  12.164  68.559  1.00  0.00    -0.180 A  
HETATM    9  C   UNL     1      -8.261   9.907  68.363  1.00  0.00    -0.106 A  
HETATM   10  I   UNL     1     -12.160  10.746  70.332  1.00  0.00    -0.483 I  
HETATM   11  C   UNL     1      -7.863  11.121  67.747  1.00  0.00    -0.114 A  
HETATM   12  I   UNL     1      -7.957  14.225  67.379  1.00  0.00    -0.071 I  
HETATM   13  C   UNL     1      -8.711  12.254  67.903  1.00  0.00    -0.177 A  
BRANCH   8  14
HETATM   14  C   UNL     1     -10.978  13.264  68.381  1.00  0.00    -0.264 C  
HETATM   15  H   UNL     1     -11.634  14.925  69.202  1.00  0.00     0.000 HD 
HETATM   16  O   UNL     1     -10.999  14.227  69.315  1.00  0.00    -0.252 OA 
BRANCH  14  17
HETATM   17  N   UNL     1     -11.786  13.280  67.388  1.00  0.00    -0.355 NA 
HETATM   18  H   UNL     1     -12.401  12.488  67.202  1.00  0.00     0.000 HD 
BRANCH  17  19
HETATM   19  C   UNL     1     -11.804  14.469  66.521  1.00  0.00    -0.352 C  
BRANCH  19  20
HETATM   20  C   UNL     1     -11.880  14.027  65.055  1.00  0.00    -0.378 C  
HETATM   21  H   UNL     1     -10.613  13.713  63.579  1.00  0.00     0.000 HD 
HETATM   22  O   UNL     1     -10.566  13.987  64.488  1.00  0.00    -0.416 OA 
BRANCH  20  23
HETATM   23  C   UNL     1     -12.565  12.655  64.924  1.00  0.00    -0.450 C  
HETATM   24  O   UNL     1     -11.691  11.682  64.352  1.00  0.00    -0.257 OA 
HETATM   25  H   UNL     1     -12.114  10.835  64.271  1.00  0.00     0.000 HD 
ENDBRANCH  20  23
ENDBRANCH  19  20
ENDBRANCH  17  19
ENDBRANCH  14  17
ENDBRANCH   8  14
BRANCH  11  26
HETATM   26  C   UNL     1      -6.583  11.167  66.962  1.00  0.00    -0.108 C  
HETATM   27  O   UNL     1      -5.443  11.185  67.684  1.00  0.00    -0.040 OA 
HETATM   28  H   UNL     1      -4.633  11.214  67.187  1.00  0.00     0.000 HD 
BRANCH  26  29
HETATM   29  N   UNL     1      -6.551  11.251  65.684  1.00  0.00    -0.336 NA 
HETATM   30  H   UNL     1      -6.154  12.074  65.230  1.00  0.00     0.000 HD 
BRANCH  29  31
HETATM   31  C   UNL     1      -7.093  10.144  64.880  1.00  0.00    -0.131 C  
BRANCH  31  32
HETATM   32  C   UNL     1      -8.578  10.361  64.506  1.00  0.00    -0.180 C  
HETATM   33  O   UNL     1      -8.941  11.750  64.485  1.00  0.00    -0.346 OA 
HETATM   34  H   UNL     1      -9.853  11.883  64.256  1.00  0.00     0.000 HD 
BRANCH  32  35
HETATM   35  C   UNL     1      -8.866   9.776  63.112  1.00  0.00    -0.246 C  
HETATM   36  O   UNL     1      -9.965  10.420  62.468  1.00  0.00    -0.714 OA 
HETATM   37  H   UNL     1     -10.143  10.058  61.608  1.00  0.00     0.000 HD 
ENDBRANCH  32  35
ENDBRANCH  31  32
ENDBRANCH  29  31
ENDBRANCH  26  29
ENDBRANCH  11  26
ENDBRANCH   2   5
BRANCH   4  38
HETATM   38  C   UNL     1     -10.973   7.709  67.888  1.00  0.00     0.081 C  
HETATM   39  O   UNL     1     -11.464   6.470  67.412  1.00  0.00    -0.740 OA 
HETATM   40  H   UNL     1     -11.742   6.529  66.505  1.00  0.00     0.000 HD 
ENDBRANCH   4  38
TORSDOF 12
ENDMDL
MODEL       23
REMARK 921   NORMALIZED FREE ENERGY PREDICTED BY IDOCK:   -4.99 KCAL/MOL
REMARK 922        TOTAL FREE ENERGY PREDICTED BY IDOCK:   -9.53 KCAL/MOL
REMARK 923 INTER-LIGAND FREE ENERGY PREDICTED BY IDOCK:   -8.61 KCAL/MOL
REMARK 924 INTRA-LIGAND FREE ENERGY PREDICTED BY IDOCK:   -0.93 KCAL/MOL
REMARK 927      BINDING AFFINITY PREDICTED BY RF-SCORE:    0.00 PKD
ROOT
HETATM    1  C   UNL     1     -10.311   7.118  73.556  1.00  0.00    -0.369 C  
HETATM    2  N   UNL     1     -10.385   7.032  72.100  1.00  0.00    -0.191 N  
HETATM    3  O   UNL     1     -11.117   4.851  72.122  1.00  0.00    -0.082 OA 
HETATM    4  C   UNL     1     -10.776   5.842  71.481  1.00  0.00    -0.256 C  
ENDROOT
BRANCH   2   5
HETATM    5  C   UNL     1     -10.053   8.225  71.383  1.00  0.00    -0.200 A  
HETATM    6  I   UNL     1     -12.960   8.950  72.166  1.00  0.00    -0.468 I  
HETATM    7  C   UNL     1      -8.723   8.433  70.935  1.00  0.00    -0.154 A  
HETATM    8  C   UNL     1      -8.403   9.575  70.173  1.00  0.00    -0.212 A  
HETATM    9  C   UNL     1     -11.057   9.193  71.120  1.00  0.00    -0.323 A  
HETATM   10  I   UNL     1      -7.220   6.975  71.497  1.00  0.00    -0.080 I  
HETATM   11  C   UNL     1     -10.783  10.312  70.294  1.00  0.00    -0.310 A  
HETATM   12  I   UNL     1      -9.088  11.871  68.177  1.00  0.00    -0.149 I  
HETATM   13  C   UNL     1      -9.460  10.456  69.786  1.00  0.00    -0.003 A  
BRANCH   8  14
HETATM   14  C   UNL     1      -6.984   9.971  69.913  1.00  0.00    -0.118 C  
HETATM   15  H   UNL     1      -5.420  10.817  70.752  1.00  0.00     0.000 HD 
HETATM   16  O   UNL     1      -6.321  10.566  70.917  1.00  0.00    -0.331 OA 
BRANCH  14  17
HETATM   17  N   UNL     1      -6.428   9.764  68.779  1.00  0.00    -0.046 NA 
HETATM   18  H   UNL     1      -5.924  10.510  68.299  1.00  0.00     0.000 HD 
BRANCH  17  19
HETATM   19  C   UNL     1      -6.533   8.422  68.183  1.00  0.00    -0.056 C  
BRANCH  19  20
HETATM   20  C   UNL     1      -7.587   8.442  67.070  1.00  0.00    -0.092 C  
HETATM   21  H   UNL     1      -7.619   8.214  65.113  1.00  0.00     0.000 HD 
HETATM   22  O   UNL     1      -6.965   8.202  65.803  1.00  0.00    -0.062 OA 
BRANCH  20  23
HETATM   23  C   UNL     1      -8.692   7.404  67.334  1.00  0.00    -0.121 C  
HETATM   24  O   UNL     1      -9.991   7.993  67.281  1.00  0.00    -0.175 OA 
HETATM   25  H   UNL     1     -10.673   7.351  67.444  1.00  0.00     0.000 HD 
ENDBRANCH  20  23
ENDBRANCH  19  20
ENDBRANCH  17  19
ENDBRANCH  14  17
ENDBRANCH   8  14
BRANCH  11  26
HETATM   26  C   UNL     1     -11.879  11.294  69.991  1.00  0.00    -0.367 C  
HETATM   27  O   UNL     1     -12.630  11.029  68.902  1.00  0.00    -0.633 OA 
HETATM   28  H   UNL     1     -13.323  11.650  68.710  1.00  0.00     0.000 HD 
BRANCH  26  29
HETATM   29  N   UNL     1     -12.068  12.362  70.673  1.00  0.00    -0.490 NA 
HETATM   30  H   UNL     1     -11.869  12.379  71.674  1.00  0.00     0.000 HD 
BRANCH  29  31
HETATM   31  C   UNL     1     -12.574  13.565  69.994  1.00  0.00    -0.069 C  
BRANCH  31  32
HETATM   32  C   UNL     1     -12.851  14.725  70.978  1.00  0.00    -0.352 C  
HETATM   33  O   UNL     1     -13.984  15.516  70.587  1.00  0.00    -0.868 OA 
HETATM   34  H   UNL     1     -14.154  16.230  71.192  1.00  0.00     0.000 HD 
BRANCH  32  35
HETATM   35  C   UNL     1     -13.121  14.174  72.388  1.00  0.00    -0.434 C  
HETATM   36  O   UNL     1     -14.316  13.395  72.449  1.00  0.00    -0.617 OA 
HETATM   37  H   UNL     1     -14.483  13.055  73.320  1.00  0.00     0.000 HD 
ENDBRANCH  32  35
ENDBRANCH  31  32
ENDBRANCH  29  31
ENDBRANCH  26  29
ENDBRANCH  11  26
ENDBRANCH   2   5
BRANCH   4  38
HETATM   38  C   UNL     1     -10.747   5.782  69.943  1.00  0.00    -0.342 C  
HETATM   39  O   UNL     1     -11.843   6.472  69.374  1.00  0.00    -0.636 OA 
HETATM   40  H   UNL     1     -11.825   6.435  68.424  1.00  0.00     0.000 HD 
ENDBRANCH   4  38
TORSDOF 12
ENDMDL
MODEL       24
REMARK 921   NORMALIZED FREE ENERGY PREDICTED BY IDOCK:   -4.99 KCAL/MOL
REMARK 922        TOTAL FREE ENERGY PREDICTED BY IDOCK:   -9.52 KCAL/MOL
REMARK 923 INTER-LIGAND FREE ENERGY PREDICTED BY IDOCK:   -8.81 KCAL/MOL
REMARK 924 INTRA-LIGAND FREE ENERGY PREDICTED BY IDOCK:   -0.71 KCAL/MOL
REMARK 927      BINDING AFFINITY PREDICTED BY RF-SCORE:    0.00 PKD
ROOT
HETATM    1  C   UNL     1     -11.619   6.575  69.868  1.00  0.00    -0.368 C  
HETATM    2  N   UNL     1     -10.477   7.420  70.207  1.00  0.00    -0.216 N  
HETATM    3  O   UNL     1      -9.914   6.165  72.052  1.00  0.00    -0.172 OA 
HETATM    4  C   UNL     1      -9.703   7.141  71.337  1.00  0.00    -0.168 C  
ENDROOT
BRANCH   2   5
HETATM    5  C   UNL     1     -10.211   8.506  69.315  1.00  0.00    -0.208 A  
HETATM    6  I   UNL     1      -8.659   6.285  67.815  1.00  0.00    -0.111 I  
HETATM    7  C   UNL     1     -10.857   9.753  69.509  1.00  0.00    -0.240 A  
HETATM    8  C   UNL     1     -10.552  10.846  68.673  1.00  0.00    -0.224 A  
HETATM    9  C   UNL     1      -9.301   8.330  68.240  1.00  0.00    -0.134 A  
HETATM   10  I   UNL     1     -12.337   9.899  71.088  1.00  0.00    -0.510 I  
HETATM   11  C   UNL     1      -8.919   9.429  67.430  1.00  0.00    -0.134 A  
HETATM   12  I   UNL     1      -8.662  12.484  66.810  1.00  0.00     0.052 I  
HETATM   13  C   UNL     1      -9.518  10.693  67.698  1.00  0.00    -0.153 A  
BRANCH   8  14
HETATM   14  C   UNL     1     -11.392  12.086  68.665  1.00  0.00    -0.277 C  
HETATM   15  H   UNL     1     -11.717  13.757  69.648  1.00  0.00     0.000 HD 
HETATM   16  O   UNL     1     -11.184  12.971  69.653  1.00  0.00    -0.148 OA 
BRANCH  14  17
HETATM   17  N   UNL     1     -12.278  12.288  67.764  1.00  0.00    -0.333 NA 
HETATM   18  H   UNL     1     -12.987  11.583  67.561  1.00  0.00     0.000 HD 
BRANCH  17  19
HETATM   19  C   UNL     1     -12.249  13.561  67.028  1.00  0.00    -0.303 C  
BRANCH  19  20
HETATM   20  C   UNL     1     -12.043  13.280  65.535  1.00  0.00    -0.435 C  
HETATM   21  H   UNL     1     -13.097  12.518  64.055  1.00  0.00     0.000 HD 
HETATM   22  O   UNL     1     -13.225  12.692  64.981  1.00  0.00    -0.753 OA 
BRANCH  20  23
HETATM   23  C   UNL     1     -11.674  14.565  64.774  1.00  0.00    -0.422 C  
HETATM   24  O   UNL     1     -12.574  14.817  63.696  1.00  0.00    -1.014 OA 
HETATM   25  H   UNL     1     -12.346  15.610  63.226  1.00  0.00     0.000 HD 
ENDBRANCH  20  23
ENDBRANCH  19  20
ENDBRANCH  17  19
ENDBRANCH  14  17
ENDBRANCH   8  14
BRANCH  11  26
HETATM   26  C   UNL     1      -7.915   9.224  66.331  1.00  0.00    -0.107 C  
HETATM   27  O   UNL     1      -6.617   9.311  66.689  1.00  0.00    -0.066 OA 
HETATM   28  H   UNL     1      -5.981   9.181  65.995  1.00  0.00     0.000 HD 
BRANCH  26  29
HETATM   29  N   UNL     1      -8.247   9.042  65.107  1.00  0.00    -0.136 NA 
HETATM   30  H   UNL     1      -8.950   8.346  64.859  1.00  0.00     0.000 HD 
BRANCH  29  31
HETATM   31  C   UNL     1      -7.599   9.851  64.063  1.00  0.00    -0.138 C  
BRANCH  31  32
HETATM   32  C   UNL     1      -8.532  10.114  62.858  1.00  0.00    -0.178 C  
HETATM   33  O   UNL     1      -9.348   8.976  62.539  1.00  0.00    -0.544 OA 
HETATM   34  H   UNL     1      -9.921   9.137  61.798  1.00  0.00     0.000 HD 
BRANCH  32  35
HETATM   35  C   UNL     1      -9.467  11.299  63.156  1.00  0.00    -0.353 C  
HETATM   36  O   UNL     1     -10.839  10.984  62.916  1.00  0.00    -0.797 OA 
HETATM   37  H   UNL     1     -11.416  11.715  63.100  1.00  0.00     0.000 HD 
ENDBRANCH  32  35
ENDBRANCH  31  32
ENDBRANCH  29  31
ENDBRANCH  26  29
ENDBRANCH  11  26
ENDBRANCH   2   5
BRANCH   4  38
HETATM   38  C   UNL     1      -8.569   8.119  71.697  1.00  0.00    -0.140 C  
HETATM   39  O   UNL     1      -7.518   7.466  72.382  1.00  0.00    -0.077 OA 
HETATM   40  H   UNL     1      -6.817   8.070  72.604  1.00  0.00     0.000 HD 
ENDBRANCH   4  38
TORSDOF 12
ENDMDL
MODEL       25
REMARK 921   NORMALIZED FREE ENERGY PREDICTED BY IDOCK:   -4.98 KCAL/MOL
REMARK 922        TOTAL FREE ENERGY PREDICTED BY IDOCK:   -9.51 KCAL/MOL
REMARK 923 INTER-LIGAND FREE ENERGY PREDICTED BY IDOCK:   -9.27 KCAL/MOL
REMARK 924 INTRA-LIGAND FREE ENERGY PREDICTED BY IDOCK:   -0.23 KCAL/MOL
REMARK 927      BINDING AFFINITY PREDICTED BY RF-SCORE:    0.00 PKD
ROOT
HETATM    1  C   UNL     1      -8.673  13.305  66.508  1.00  0.00     0.102 C  
HETATM    2  N   UNL     1      -9.789  12.468  66.078  1.00  0.00    -0.257 N  
HETATM    3  O   UNL     1     -10.040  13.578  64.078  1.00  0.00    -0.204 OA 
HETATM    4  C   UNL     1     -10.420  12.705  64.854  1.00  0.00    -0.309 C  
ENDROOT
BRANCH   2   5
HETATM    5  C   UNL     1     -10.163  11.412  66.968  1.00  0.00    -0.213 A  
HETATM    6  I   UNL     1     -12.099  13.595  68.004  1.00  0.00     0.166 I  
HETATM    7  C   UNL     1      -9.631  10.111  66.782  1.00  0.00    -0.177 A  
HETATM    8  C   UNL     1      -9.944   9.081  67.692  1.00  0.00    -0.252 A  
HETATM    9  C   UNL     1     -11.062  11.672  68.035  1.00  0.00    -0.242 A  
HETATM   10  I   UNL     1      -8.375   9.763  65.049  1.00  0.00    -0.205 I  
HETATM   11  C   UNL     1     -11.337  10.678  69.008  1.00  0.00    -0.340 A  
HETATM   12  I   UNL     1     -10.738   8.000  70.508  1.00  0.00    -0.256 I  
HETATM   13  C   UNL     1     -10.724   9.403  68.846  1.00  0.00    -0.178 A  
BRANCH   8  14
HETATM   14  C   UNL     1      -9.632   7.648  67.392  1.00  0.00    -0.147 C  
HETATM   15  H   UNL     1      -8.276   6.253  67.675  1.00  0.00     0.000 HD 
HETATM   16  O   UNL     1      -8.474   7.162  67.866  1.00  0.00    -0.121 OA 
BRANCH  14  17
HETATM   17  N   UNL     1     -10.428   6.920  66.703  1.00  0.00    -0.487 NA 
HETATM   18  H   UNL     1     -11.115   7.342  66.079  1.00  0.00     0.000 HD 
BRANCH  17  19
HETATM   19  C   UNL     1     -10.328   5.458  66.834  1.00  0.00    -0.260 C  
BRANCH  19  20
HETATM   20  C   UNL     1      -9.393   4.914  65.746  1.00  0.00    -0.161 C  
HETATM   21  H   UNL     1      -7.747   3.835  65.671  1.00  0.00     0.000 HD 
HETATM   22  O   UNL     1      -8.326   4.172  66.345  1.00  0.00    -0.104 OA 
BRANCH  20  23
HETATM   23  C   UNL     1     -10.162   4.037  64.742  1.00  0.00    -0.212 C  
HETATM   24  O   UNL     1     -11.554   4.350  64.727  1.00  0.00    -1.000 OA 
HETATM   25  H   UNL     1     -12.028   3.808  64.107  1.00  0.00     0.000 HD 
ENDBRANCH  20  23
ENDBRANCH  19  20
ENDBRANCH  17  19
ENDBRANCH  14  17
ENDBRANCH   8  14
BRANCH  11  26
HETATM   26  C   UNL     1     -12.253  10.998  70.154  1.00  0.00    -0.344 C  
HETATM   27  O   UNL     1     -13.405  10.296  70.208  1.00  0.00    -0.502 OA 
HETATM   28  H   UNL     1     -13.985  10.498  70.933  1.00  0.00     0.000 HD 
BRANCH  26  29
HETATM   29  N   UNL     1     -12.010  11.924  71.005  1.00  0.00    -0.283 NA 
HETATM   30  H   UNL     1     -11.051  12.212  71.197  1.00  0.00     0.000 HD 
BRANCH  29  31
HETATM   31  C   UNL     1     -13.135  12.567  71.703  1.00  0.00    -0.315 C  
BRANCH  31  32
HETATM   32  C   UNL     1     -13.039  14.110  71.678  1.00  0.00    -0.351 C  
HETATM   33  O   UNL     1     -14.149  14.718  70.999  1.00  0.00    -0.575 OA 
HETATM   34  H   UNL     1     -14.090  15.666  70.984  1.00  0.00     0.000 HD 
BRANCH  32  35
HETATM   35  C   UNL     1     -13.001  14.664  73.113  1.00  0.00    -0.500 C  
HETATM   36  O   UNL     1     -12.077  15.743  73.256  1.00  0.00    -0.437 OA 
HETATM   37  H   UNL     1     -12.053  16.085  74.142  1.00  0.00     0.000 HD 
ENDBRANCH  32  35
ENDBRANCH  31  32
ENDBRANCH  29  31
ENDBRANCH  26  29
ENDBRANCH  11  26
ENDBRANCH   2   5
BRANCH   4  38
HETATM   38  C   UNL     1     -11.649  11.849  64.495  1.00  0.00    -0.271 C  
HETATM   39  O   UNL     1     -11.649  11.486  63.128  1.00  0.00    -0.840 OA 
HETATM   40  H   UNL     1     -12.408  10.958  62.907  1.00  0.00     0.000 HD 
ENDBRANCH   4  38
TORSDOF 12
ENDMDL
MODEL       26
REMARK 921   NORMALIZED FREE ENERGY PREDICTED BY IDOCK:   -4.97 KCAL/MOL
REMARK 922        TOTAL FREE ENERGY PREDICTED BY IDOCK:   -9.50 KCAL/MOL
REMARK 923 INTER-LIGAND FREE ENERGY PREDICTED BY IDOCK:   -8.80 KCAL/MOL
REMARK 924 INTRA-LIGAND FREE ENERGY PREDICTED BY IDOCK:   -0.70 KCAL/MOL
REMARK 927      BINDING AFFINITY PREDICTED BY RF-SCORE:    0.00 PKD
ROOT
HETATM    1  C   UNL     1     -12.029  13.618  67.985  1.00  0.00    -0.350 C  
HETATM    2  N   UNL     1     -11.185  14.052  66.876  1.00  0.00    -0.304 N  
HETATM    3  O   UNL     1     -12.970  14.448  65.480  1.00  0.00    -0.523 OA 
HETATM    4  C   UNL     1     -11.755  14.423  65.655  1.00  0.00    -0.356 C  
ENDROOT
BRANCH   2   5
HETATM    5  C   UNL     1      -9.778  14.084  67.132  1.00  0.00    -0.242 A  
HETATM    6  I   UNL     1      -9.950  11.269  65.855  1.00  0.00    -0.322 I  
HETATM    7  C   UNL     1      -9.172  15.279  67.600  1.00  0.00    -0.187 A  
HETATM    8  C   UNL     1      -7.798  15.299  67.916  1.00  0.00    -0.149 A  
HETATM    9  C   UNL     1      -8.994  12.920  66.919  1.00  0.00    -0.210 A  
HETATM   10  I   UNL     1     -10.411  17.050  67.766  1.00  0.00    -0.292 I  
HETATM   11  C   UNL     1      -7.628  12.889  67.298  1.00  0.00    -0.104 A  
HETATM   12  I   UNL     1      -5.135  13.971  68.846  1.00  0.00    -0.088 I  
HETATM   13  C   UNL     1      -7.062  14.076  67.844  1.00  0.00    -0.160 A  
BRANCH   8  14
HETATM   14  C   UNL     1      -7.067  16.585  68.149  1.00  0.00    -0.145 C  
HETATM   15  H   UNL     1      -5.879  17.886  67.278  1.00  0.00     0.000 HD 
HETATM   16  O   UNL     1      -6.343  17.070  67.130  1.00  0.00    -0.145 OA 
BRANCH  14  17
HETATM   17  N   UNL     1      -7.120  17.189  69.277  1.00  0.00    -0.209 NA 
HETATM   18  H   UNL     1      -8.005  17.292  69.774  1.00  0.00     0.000 HD 
BRANCH  17  19
HETATM   19  C   UNL     1      -5.873  17.732  69.838  1.00  0.00    -0.240 C  
BRANCH  19  20
HETATM   20  C   UNL     1      -5.915  19.264  69.777  1.00  0.00    -0.263 C  
HETATM   21  H   UNL     1      -7.129  20.644  69.067  1.00  0.00     0.000 HD 
HETATM   22  O   UNL     1      -7.103  19.695  69.105  1.00  0.00    -0.347 OA 
BRANCH  20  23
HETATM   23  C   UNL     1      -5.840  19.877  71.186  1.00  0.00    -0.271 C  
HETATM   24  O   UNL     1      -5.355  18.938  72.144  1.00  0.00    -0.695 OA 
HETATM   25  H   UNL     1      -5.309  19.317  73.014  1.00  0.00     0.000 HD 
ENDBRANCH  20  23
ENDBRANCH  19  20
ENDBRANCH  17  19
ENDBRANCH  14  17
ENDBRANCH   8  14
BRANCH  11  26
HETATM   26  C   UNL     1      -6.836  11.627  67.108  1.00  0.00    -0.143 C  
HETATM   27  O   UNL     1      -6.125  11.538  65.965  1.00  0.00    -0.422 OA 
HETATM   28  H   UNL     1      -5.624  10.739  65.844  1.00  0.00     0.000 HD 
BRANCH  26  29
HETATM   29  N   UNL     1      -6.870  10.649  67.935  1.00  0.00    -0.072 NA 
HETATM   30  H   UNL     1      -6.488   9.740  67.678  1.00  0.00     0.000 HD 
BRANCH  29  31
HETATM   31  C   UNL     1      -7.469  10.857  69.263  1.00  0.00    -0.124 C  
BRANCH  31  32
HETATM   32  C   UNL     1      -8.068   9.558  69.850  1.00  0.00    -0.157 C  
HETATM   33  O   UNL     1      -7.705   9.358  71.225  1.00  0.00    -0.336 OA 
HETATM   34  H   UNL     1      -8.073   8.560  71.585  1.00  0.00     0.000 HD 
BRANCH  32  35
HETATM   35  C   UNL     1      -9.604   9.595  69.766  1.00  0.00    -0.219 C  
HETATM   36  O   UNL     1     -10.110  10.925  69.643  1.00  0.00    -0.431 OA 
HETATM   37  H   UNL     1     -11.059  10.948  69.592  1.00  0.00     0.000 HD 
ENDBRANCH  32  35
ENDBRANCH  31  32
ENDBRANCH  29  31
ENDBRANCH  26  29
ENDBRANCH  11  26
ENDBRANCH   2   5
BRANCH   4  38
HETATM   38  C   UNL     1     -10.810  14.783  64.494  1.00  0.00    -0.159 C  
HETATM   39  O   UNL     1     -11.044  16.095  64.020  1.00  0.00    -1.137 OA 
HETATM   40  H   UNL     1     -10.460  16.317  63.303  1.00  0.00     0.000 HD 
ENDBRANCH   4  38
TORSDOF 12
ENDMDL
MODEL       27
REMARK 921   NORMALIZED FREE ENERGY PREDICTED BY IDOCK:   -4.95 KCAL/MOL
REMARK 922        TOTAL FREE ENERGY PREDICTED BY IDOCK:   -9.46 KCAL/MOL
REMARK 923 INTER-LIGAND FREE ENERGY PREDICTED BY IDOCK:   -8.19 KCAL/MOL
REMARK 924 INTRA-LIGAND FREE ENERGY PREDICTED BY IDOCK:   -1.27 KCAL/MOL
REMARK 927      BINDING AFFINITY PREDICTED BY RF-SCORE:    0.00 PKD
ROOT
HETATM    1  C   UNL     1      -7.955   7.372  62.884  1.00  0.00    -0.114 C  
HETATM    2  N   UNL     1      -7.484   8.366  63.844  1.00  0.00    -0.109 N  
HETATM    3  O   UNL     1      -5.337   8.358  63.019  1.00  0.00    -0.065 OA 
HETATM    4  C   UNL     1      -6.147   8.773  63.843  1.00  0.00    -0.072 C  
ENDROOT
BRANCH   2   5
HETATM    5  C   UNL     1      -8.467   8.885  64.744  1.00  0.00    -0.176 A  
HETATM    6  I   UNL     1      -8.977  10.788  62.355  1.00  0.00    -0.257 I  
HETATM    7  C   UNL     1      -8.724   8.220  65.970  1.00  0.00    -0.155 A  
HETATM    8  C   UNL     1      -9.645   8.761  66.890  1.00  0.00    -0.249 A  
HETATM    9  C   UNL     1      -9.180  10.065  64.407  1.00  0.00    -0.266 A  
HETATM   10  I   UNL     1      -7.695   6.349  66.348  1.00  0.00    -0.105 I  
HETATM   11  C   UNL     1     -10.056  10.673  65.342  1.00  0.00    -0.356 A  
HETATM   12  I   UNL     1     -11.191  11.119  68.222  1.00  0.00    -0.396 I  
HETATM   13  C   UNL     1     -10.234  10.031  66.600  1.00  0.00    -0.223 A  
BRANCH   8  14
HETATM   14  C   UNL     1     -10.145   7.968  68.057  1.00  0.00    -0.194 C  
HETATM   15  H   UNL     1     -11.463   6.602  68.568  1.00  0.00     0.000 HD 
HETATM   16  O   UNL     1     -11.146   7.105  67.827  1.00  0.00    -0.142 OA 
BRANCH  14  17
HETATM   17  N   UNL     1      -9.648   8.115  69.228  1.00  0.00    -0.162 NA 
HETATM   18  H   UNL     1      -9.168   8.977  69.488  1.00  0.00     0.000 HD 
BRANCH  17  19
HETATM   19  C   UNL     1      -9.784   7.009  70.189  1.00  0.00    -0.175 C  
BRANCH  19  20
HETATM   20  C   UNL     1     -10.495   7.518  71.449  1.00  0.00    -0.209 C  
HETATM   21  H   UNL     1     -10.883   9.262  72.279  1.00  0.00     0.000 HD 
HETATM   22  O   UNL     1     -10.442   8.947  71.497  1.00  0.00    -0.267 OA 
BRANCH  20  23
HETATM   23  C   UNL     1     -11.953   7.030  71.499  1.00  0.00    -0.334 C  
HETATM   24  O   UNL     1     -12.459   6.749  70.194  1.00  0.00    -0.572 OA 
HETATM   25  H   UNL     1     -13.360   6.448  70.225  1.00  0.00     0.000 HD 
ENDBRANCH  20  23
ENDBRANCH  19  20
ENDBRANCH  17  19
ENDBRANCH  14  17
ENDBRANCH   8  14
BRANCH  11  26
HETATM   26  C   UNL     1     -10.759  11.949  64.976  1.00  0.00    -0.292 C  
HETATM   27  O   UNL     1     -12.078  11.846  64.710  1.00  0.00    -0.245 OA 
HETATM   28  H   UNL     1     -12.523  12.653  64.478  1.00  0.00     0.000 HD 
BRANCH  26  29
HETATM   29  N   UNL     1     -10.151  13.070  64.852  1.00  0.00    -0.499 NA 
HETATM   30  H   UNL     1      -9.837  13.390  63.936  1.00  0.00     0.000 HD 
BRANCH  29  31
HETATM   31  C   UNL     1      -9.912  13.890  66.050  1.00  0.00    -0.310 C  
BRANCH  31  32
HETATM   32  C   UNL     1     -10.766  15.180  66.060  1.00  0.00    -0.329 C  
HETATM   33  O   UNL     1     -10.142  16.244  66.797  1.00  0.00    -0.261 OA 
HETATM   34  H   UNL     1     -10.667  17.036  66.804  1.00  0.00     0.000 HD 
BRANCH  32  35
HETATM   35  C   UNL     1     -11.001  15.675  64.622  1.00  0.00    -0.325 C  
HETATM   36  O   UNL     1     -12.044  14.957  63.963  1.00  0.00    -0.822 OA 
HETATM   37  H   UNL     1     -12.189  15.262  63.075  1.00  0.00     0.000 HD 
ENDBRANCH  32  35
ENDBRANCH  31  32
ENDBRANCH  29  31
ENDBRANCH  26  29
ENDBRANCH  11  26
ENDBRANCH   2   5
BRANCH   4  38
HETATM   38  C   UNL     1      -5.687   9.753  64.937  1.00  0.00    -0.079 C  
HETATM   39  O   UNL     1      -5.637  11.083  64.457  1.00  0.00    -0.430 OA 
HETATM   40  H   UNL     1      -5.353  11.688  65.132  1.00  0.00     0.000 HD 
ENDBRANCH   4  38
TORSDOF 12
ENDMDL
MODEL       28
REMARK 921   NORMALIZED FREE ENERGY PREDICTED BY IDOCK:   -4.94 KCAL/MOL
REMARK 922        TOTAL FREE ENERGY PREDICTED BY IDOCK:   -9.45 KCAL/MOL
REMARK 923 INTER-LIGAND FREE ENERGY PREDICTED BY IDOCK:   -8.52 KCAL/MOL
REMARK 924 INTRA-LIGAND FREE ENERGY PREDICTED BY IDOCK:   -0.93 KCAL/MOL
REMARK 927      BINDING AFFINITY PREDICTED BY RF-SCORE:    0.00 PKD
ROOT
HETATM    1  C   UNL     1      -7.014  11.202  67.590  1.00  0.00    -0.084 C  
HETATM    2  N   UNL     1      -8.066  10.326  67.082  1.00  0.00    -0.120 N  
HETATM    3  O   UNL     1      -7.365  10.509  64.898  1.00  0.00    -0.095 OA 
HETATM    4  C   UNL     1      -8.169  10.064  65.713  1.00  0.00    -0.130 C  
ENDROOT
BRANCH   2   5
HETATM    5  C   UNL     1      -8.943   9.763  68.062  1.00  0.00    -0.118 A  
HETATM    6  I   UNL     1     -10.614  12.265  67.331  1.00  0.00    -0.289 I  
HETATM    7  C   UNL     1      -8.666   8.482  68.604  1.00  0.00    -0.139 A  
HETATM    8  C   UNL     1      -9.490   7.949  69.616  1.00  0.00    -0.160 A  
HETATM    9  C   UNL     1     -10.084  10.490  68.489  1.00  0.00    -0.173 A  
HETATM   10  I   UNL     1      -6.983   7.378  67.799  1.00  0.00    -0.081 I  
HETATM   11  C   UNL     1     -10.888  10.013  69.556  1.00  0.00    -0.283 A  
HETATM   12  I   UNL     1     -11.434   8.195  72.042  1.00  0.00    -0.476 I  
HETATM   13  C   UNL     1     -10.540   8.763  70.142  1.00  0.00    -0.221 A  
BRANCH   8  14
HETATM   14  C   UNL     1      -9.401   6.510  70.022  1.00  0.00    -0.157 C  
HETATM   15  H   UNL     1      -8.409   5.275  71.185  1.00  0.00     0.000 HD 
HETATM   16  O   UNL     1      -8.465   6.187  70.928  1.00  0.00    -0.125 OA 
BRANCH  14  17
HETATM   17  N   UNL     1     -10.175   5.624  69.518  1.00  0.00    -0.225 NA 
HETATM   18  H   UNL     1     -10.532   4.857  70.088  1.00  0.00     0.000 HD 
BRANCH  17  19
HETATM   19  C   UNL     1     -10.537   5.738  68.097  1.00  0.00    -0.216 C  
BRANCH  19  20
HETATM   20  C   UNL     1      -9.668   4.780  67.273  1.00  0.00    -0.182 C  
HETATM   21  H   UNL     1      -9.241   2.857  67.282  1.00  0.00     0.000 HD 
HETATM   22  O   UNL     1      -9.779   3.451  67.792  1.00  0.00    -0.162 OA 
BRANCH  20  23
HETATM   23  C   UNL     1     -10.064   4.812  65.786  1.00  0.00    -0.214 C  
HETATM   24  O   UNL     1     -11.481   4.800  65.618  1.00  0.00    -0.856 OA 
HETATM   25  H   UNL     1     -11.725   4.820  64.700  1.00  0.00     0.000 HD 
ENDBRANCH  20  23
ENDBRANCH  19  20
ENDBRANCH  17  19
ENDBRANCH  14  17
ENDBRANCH   8  14
BRANCH  11  26
HETATM   26  C   UNL     1     -12.060  10.829  70.021  1.00  0.00    -0.345 C  
HETATM   27  O   UNL     1     -13.268  10.453  69.552  1.00  0.00    -0.363 OA 
HETATM   28  H   UNL     1     -14.011  10.969  69.845  1.00  0.00     0.000 HD 
BRANCH  26  29
HETATM   29  N   UNL     1     -11.940  11.865  70.765  1.00  0.00    -0.443 NA 
HETATM   30  H   UNL     1     -11.116  12.461  70.693  1.00  0.00     0.000 HD 
BRANCH  29  31
HETATM   31  C   UNL     1     -13.008  12.183  71.726  1.00  0.00    -0.332 C  
BRANCH  31  32
HETATM   32  C   UNL     1     -13.382  13.684  71.716  1.00  0.00    -0.388 C  
HETATM   33  O   UNL     1     -13.533  14.220  73.040  1.00  0.00    -0.644 OA 
HETATM   34  H   UNL     1     -13.763  15.142  73.034  1.00  0.00     0.000 HD 
BRANCH  32  35
HETATM   35  C   UNL     1     -12.293  14.498  70.996  1.00  0.00    -0.347 C  
HETATM   36  O   UNL     1     -12.566  14.663  69.605  1.00  0.00    -0.554 OA 
HETATM   37  H   UNL     1     -11.893  15.166  69.161  1.00  0.00     0.000 HD 
ENDBRANCH  32  35
ENDBRANCH  31  32
ENDBRANCH  29  31
ENDBRANCH  26  29
ENDBRANCH  11  26
ENDBRANCH   2   5
BRANCH   4  38
HETATM   38  C   UNL     1      -9.353   9.208  65.226  1.00  0.00    -0.156 C  
HETATM   39  O   UNL     1     -10.094   9.870  64.219  1.00  0.00    -0.443 OA 
HETATM   40  H   UNL     1     -10.825   9.342  63.919  1.00  0.00     0.000 HD 
ENDBRANCH   4  38
TORSDOF 12
ENDMDL
MODEL       29
REMARK 921   NORMALIZED FREE ENERGY PREDICTED BY IDOCK:   -4.93 KCAL/MOL
REMARK 922        TOTAL FREE ENERGY PREDICTED BY IDOCK:   -9.43 KCAL/MOL
REMARK 923 INTER-LIGAND FREE ENERGY PREDICTED BY IDOCK:   -8.47 KCAL/MOL
REMARK 924 INTRA-LIGAND FREE ENERGY PREDICTED BY IDOCK:   -0.96 KCAL/MOL
REMARK 927      BINDING AFFINITY PREDICTED BY RF-SCORE:    0.00 PKD
ROOT
HETATM    1  C   UNL     1     -12.105  13.342  68.043  1.00  0.00    -0.221 C  
HETATM    2  N   UNL     1     -11.334  13.769  66.879  1.00  0.00    -0.317 N  
HETATM    3  O   UNL     1     -13.203  14.091  65.577  1.00  0.00    -0.710 OA 
HETATM    4  C   UNL     1     -11.979  14.098  65.684  1.00  0.00    -0.396 C  
ENDROOT
BRANCH   2   5
HETATM    5  C   UNL     1      -9.916  13.840  67.057  1.00  0.00    -0.251 A  
HETATM    6  I   UNL     1     -10.092  10.985  65.870  1.00  0.00    -0.323 I  
HETATM    7  C   UNL     1      -9.314  15.060  67.456  1.00  0.00    -0.195 A  
HETATM    8  C   UNL     1      -7.926  15.121  67.695  1.00  0.00    -0.177 A  
HETATM    9  C   UNL     1      -9.118  12.687  66.834  1.00  0.00    -0.218 A  
HETATM   10  I   UNL     1     -10.584  16.809  67.641  1.00  0.00    -0.196 I  
HETATM   11  C   UNL     1      -7.733  12.697  67.137  1.00  0.00    -0.094 A  
HETATM   12  I   UNL     1      -5.185  13.879  68.513  1.00  0.00    -0.113 I  
HETATM   13  C   UNL     1      -7.167  13.912  67.617  1.00  0.00    -0.174 A  
BRANCH   8  14
HETATM   14  C   UNL     1      -7.214  16.428  67.851  1.00  0.00    -0.137 C  
HETATM   15  H   UNL     1      -6.653  17.749  69.195  1.00  0.00     0.000 HD 
HETATM   16  O   UNL     1      -7.105  16.920  69.096  1.00  0.00    -0.228 OA 
BRANCH  14  17
HETATM   17  N   UNL     1      -6.740  17.057  66.842  1.00  0.00    -0.196 NA 
HETATM   18  H   UNL     1      -6.943  16.749  65.891  1.00  0.00     0.000 HD 
BRANCH  17  19
HETATM   19  C   UNL     1      -5.895  18.236  67.088  1.00  0.00    -0.145 C  
BRANCH  19  20
HETATM   20  C   UNL     1      -6.288  19.354  66.113  1.00  0.00    -0.186 C  
HETATM   21  H   UNL     1      -6.524  19.549  64.167  1.00  0.00     0.000 HD 
HETATM   22  O   UNL     1      -6.281  18.856  64.771  1.00  0.00    -0.407 OA 
BRANCH  20  23
HETATM   23  C   UNL     1      -7.667  19.937  66.465  1.00  0.00    -0.295 C  
HETATM   24  O   UNL     1      -7.564  21.266  66.974  1.00  0.00    -0.741 OA 
HETATM   25  H   UNL     1      -8.416  21.626  67.191  1.00  0.00     0.000 HD 
ENDBRANCH  20  23
ENDBRANCH  19  20
ENDBRANCH  17  19
ENDBRANCH  14  17
ENDBRANCH   8  14
BRANCH  11  26
HETATM   26  C   UNL     1      -6.923  11.448  66.938  1.00  0.00    -0.140 C  
HETATM   27  O   UNL     1      -6.241  11.360  65.778  1.00  0.00    -0.391 OA 
HETATM   28  H   UNL     1      -5.728  10.569  65.652  1.00  0.00     0.000 HD 
BRANCH  26  29
HETATM   29  N   UNL     1      -6.917  10.479  67.777  1.00  0.00    -0.077 NA 
HETATM   30  H   UNL     1      -6.848   9.515  67.453  1.00  0.00     0.000 HD 
BRANCH  29  31
HETATM   31  C   UNL     1      -7.011  10.777  69.215  1.00  0.00    -0.102 C  
BRANCH  31  32
HETATM   32  C   UNL     1      -8.024   9.861  69.941  1.00  0.00    -0.182 C  
HETATM   33  O   UNL     1      -9.362  10.382  69.899  1.00  0.00    -0.407 OA 
HETATM   34  H   UNL     1      -9.984   9.820  70.345  1.00  0.00     0.000 HD 
BRANCH  32  35
HETATM   35  C   UNL     1      -8.039   8.465  69.295  1.00  0.00    -0.115 C  
HETATM   36  O   UNL     1      -9.221   8.232  68.530  1.00  0.00    -0.137 OA 
HETATM   37  H   UNL     1      -9.231   7.370  68.132  1.00  0.00     0.000 HD 
ENDBRANCH  32  35
ENDBRANCH  31  32
ENDBRANCH  29  31
ENDBRANCH  26  29
ENDBRANCH  11  26
ENDBRANCH   2   5
BRANCH   4  38
HETATM   38  C   UNL     1     -11.109  14.453  64.465  1.00  0.00    -0.291 C  
HETATM   39  O   UNL     1     -11.122  15.843  64.203  1.00  0.00    -0.905 OA 
HETATM   40  H   UNL     1     -10.584  16.062  63.450  1.00  0.00     0.000 HD 
ENDBRANCH   4  38
TORSDOF 12
ENDMDL
MODEL       30
REMARK 921   NORMALIZED FREE ENERGY PREDICTED BY IDOCK:   -4.92 KCAL/MOL
REMARK 922        TOTAL FREE ENERGY PREDICTED BY IDOCK:   -9.42 KCAL/MOL
REMARK 923 INTER-LIGAND FREE ENERGY PREDICTED BY IDOCK:   -8.05 KCAL/MOL
REMARK 924 INTRA-LIGAND FREE ENERGY PREDICTED BY IDOCK:   -1.37 KCAL/MOL
REMARK 927      BINDING AFFINITY PREDICTED BY RF-SCORE:    0.00 PKD
ROOT
HETATM    1  C   UNL     1      -6.448   9.362  66.614  1.00  0.00    -0.067 C  
HETATM    2  N   UNL     1      -7.758   8.725  66.517  1.00  0.00    -0.098 N  
HETATM    3  O   UNL     1      -6.931   6.852  65.467  1.00  0.00    -0.057 OA 
HETATM    4  C   UNL     1      -7.894   7.478  65.901  1.00  0.00    -0.107 C  
ENDROOT
BRANCH   2   5
HETATM    5  C   UNL     1      -8.851   9.443  67.097  1.00  0.00    -0.127 A  
HETATM    6  I   UNL     1      -9.071  10.526  64.205  1.00  0.00    -0.284 I  
HETATM    7  C   UNL     1      -9.254   9.160  68.427  1.00  0.00    -0.132 A  
HETATM    8  C   UNL     1     -10.288   9.907  69.027  1.00  0.00    -0.224 A  
HETATM    9  C   UNL     1      -9.525  10.436  66.340  1.00  0.00    -0.169 A  
HETATM   10  I   UNL     1      -8.266   7.534  69.467  1.00  0.00    -0.132 I  
HETATM   11  C   UNL     1     -10.517  11.253  66.940  1.00  0.00    -0.286 A  
HETATM   12  I   UNL     1     -12.008  12.482  69.399  1.00  0.00    -0.091 I  
HETATM   13  C   UNL     1     -10.846  11.006  68.303  1.00  0.00    -0.215 A  
BRANCH   8  14
HETATM   14  C   UNL     1     -10.924   9.474  70.311  1.00  0.00    -0.269 C  
HETATM   15  H   UNL     1     -10.713   9.558  72.264  1.00  0.00     0.000 HD 
HETATM   16  O   UNL     1     -10.309   9.832  71.449  1.00  0.00    -0.136 OA 
BRANCH  14  17
HETATM   17  N   UNL     1     -12.001   8.782  70.325  1.00  0.00    -0.451 NA 
HETATM   18  H   UNL     1     -12.532   8.624  69.468  1.00  0.00     0.000 HD 
BRANCH  17  19
HETATM   19  C   UNL     1     -12.455   8.221  71.607  1.00  0.00    -0.320 C  
BRANCH  19  20
HETATM   20  C   UNL     1     -12.302   6.695  71.576  1.00  0.00    -0.313 C  
HETATM   21  H   UNL     1     -12.006   5.306  70.211  1.00  0.00     0.000 HD 
HETATM   22  O   UNL     1     -12.101   6.252  70.230  1.00  0.00    -0.180 OA 
BRANCH  20  23
HETATM   23  C   UNL     1     -11.141   6.236  72.474  1.00  0.00    -0.272 C  
HETATM   24  O   UNL     1     -10.267   7.316  72.800  1.00  0.00    -0.191 OA 
HETATM   25  H   UNL     1      -9.550   7.032  73.354  1.00  0.00     0.000 HD 
ENDBRANCH  20  23
ENDBRANCH  19  20
ENDBRANCH  17  19
ENDBRANCH  14  17
ENDBRANCH   8  14
BRANCH  11  26
HETATM   26  C   UNL     1     -11.177  12.330  66.128  1.00  0.00    -0.328 C  
HETATM   27  O   UNL     1     -12.293  11.970  65.459  1.00  0.00    -0.460 OA 
HETATM   28  H   UNL     1     -12.711  12.651  64.945  1.00  0.00     0.000 HD 
BRANCH  26  29
HETATM   29  N   UNL     1     -10.694  13.511  66.008  1.00  0.00    -0.277 NA 
HETATM   30  H   UNL     1      -9.729  13.704  66.273  1.00  0.00     0.000 HD 
BRANCH  29  31
HETATM   31  C   UNL     1     -11.551  14.584  65.481  1.00  0.00    -0.350 C  
BRANCH  31  32
HETATM   32  C   UNL     1     -10.732  15.765  64.910  1.00  0.00    -0.361 C  
HETATM   33  O   UNL     1     -11.436  16.471  63.876  1.00  0.00    -1.608 OA 
HETATM   34  H   UNL     1     -10.933  17.196  63.525  1.00  0.00     0.000 HD 
BRANCH  32  35
HETATM   35  C   UNL     1     -10.397  16.770  66.026  1.00  0.00    -0.335 C  
HETATM   36  O   UNL     1     -10.325  16.153  67.311  1.00  0.00    -0.276 OA 
HETATM   37  H   UNL     1     -10.118  16.773  68.000  1.00  0.00     0.000 HD 
ENDBRANCH  32  35
ENDBRANCH  31  32
ENDBRANCH  29  31
ENDBRANCH  26  29
ENDBRANCH  11  26
ENDBRANCH   2   5
BRANCH   4  38
HETATM   38  C   UNL     1      -9.312   6.897  65.746  1.00  0.00     0.212 C  
HETATM   39  O   UNL     1      -9.448   5.667  66.432  1.00  0.00    -0.149 OA 
HETATM   40  H   UNL     1     -10.324   5.309  66.336  1.00  0.00     0.000 HD 
ENDBRANCH   4  38
TORSDOF 12
ENDMDL
MODEL       31
REMARK 921   NORMALIZED FREE ENERGY PREDICTED BY IDOCK:   -4.92 KCAL/MOL
REMARK 922        TOTAL FREE ENERGY PREDICTED BY IDOCK:   -9.41 KCAL/MOL
REMARK 923 INTER-LIGAND FREE ENERGY PREDICTED BY IDOCK:   -8.46 KCAL/MOL
REMARK 924 INTRA-LIGAND FREE ENERGY PREDICTED BY IDOCK:   -0.95 KCAL/MOL
REMARK 927      BINDING AFFINITY PREDICTED BY RF-SCORE:    0.00 PKD
ROOT
HETATM    1  C   UNL     1     -12.857   7.428  71.037  1.00  0.00    -0.180 C  
HETATM    2  N   UNL     1     -11.488   7.927  71.121  1.00  0.00    -0.270 N  
HETATM    3  O   UNL     1     -11.249   7.324  73.329  1.00  0.00    -0.290 OA 
HETATM    4  C   UNL     1     -10.779   7.850  72.323  1.00  0.00    -0.283 C  
ENDROOT
BRANCH   2   5
HETATM    5  C   UNL     1     -10.940   8.467  69.915  1.00  0.00    -0.166 A  
HETATM    6  I   UNL     1     -10.316   5.477  69.407  1.00  0.00    -0.273 I  
HETATM    7  C   UNL     1     -11.123   9.840  69.609  1.00  0.00    -0.217 A  
HETATM    8  C   UNL     1     -10.533  10.393  68.454  1.00  0.00    -0.216 A  
HETATM    9  C   UNL     1     -10.216   7.626  69.030  1.00  0.00    -0.206 A  
HETATM   10  I   UNL     1     -12.358  11.024  70.941  1.00  0.00    -0.401 I  
HETATM   11  C   UNL     1      -9.549   8.168  67.901  1.00  0.00    -0.179 A  
HETATM   12  I   UNL     1      -8.342  10.526  66.239  1.00  0.00    -0.171 I  
HETATM   13  C   UNL     1      -9.678   9.566  67.662  1.00  0.00    -0.154 A  
BRANCH   8  14
HETATM   14  C   UNL     1     -10.914  11.750  67.953  1.00  0.00    -0.221 C  
HETATM   15  H   UNL     1     -10.594  13.668  68.241  1.00  0.00     0.000 HD 
HETATM   16  O   UNL     1     -10.351  12.807  68.559  1.00  0.00    -0.235 OA 
BRANCH  14  17
HETATM   17  N   UNL     1     -11.751  11.899  66.995  1.00  0.00    -0.589 NA 
HETATM   18  H   UNL     1     -12.537  11.259  66.883  1.00  0.00     0.000 HD 
BRANCH  17  19
HETATM   19  C   UNL     1     -11.550  13.017  66.060  1.00  0.00    -0.365 C  
BRANCH  19  20
HETATM   20  C   UNL     1     -12.172  12.661  64.703  1.00  0.00    -0.452 C  
HETATM   21  H   UNL     1     -13.083  13.618  63.242  1.00  0.00     0.000 HD 
HETATM   22  O   UNL     1     -12.698  13.839  64.083  1.00  0.00    -0.664 OA 
BRANCH  20  23
HETATM   23  C   UNL     1     -11.143  11.981  63.783  1.00  0.00    -0.439 C  
HETATM   24  O   UNL     1     -10.050  12.847  63.484  1.00  0.00    -0.661 OA 
HETATM   25  H   UNL     1      -9.415  12.427  62.916  1.00  0.00     0.000 HD 
ENDBRANCH  20  23
ENDBRANCH  19  20
ENDBRANCH  17  19
ENDBRANCH  14  17
ENDBRANCH   8  14
BRANCH  11  26
HETATM   26  C   UNL     1      -8.748   7.262  67.011  1.00  0.00    -0.123 C  
HETATM   27  O   UNL     1      -7.476   7.026  67.393  1.00  0.00    -0.092 OA 
HETATM   28  H   UNL     1      -6.969   6.453  66.830  1.00  0.00     0.000 HD 
BRANCH  26  29
HETATM   29  N   UNL     1      -9.202   6.783  65.912  1.00  0.00    -0.368 NA 
HETATM   30  H   UNL     1     -10.092   7.108  65.534  1.00  0.00     0.000 HD 
BRANCH  29  31
HETATM   31  C   UNL     1      -8.421   5.758  65.203  1.00  0.00    -0.138 C  
BRANCH  31  32
HETATM   32  C   UNL     1      -7.861   6.271  63.855  1.00  0.00    -0.112 C  
HETATM   33  O   UNL     1      -8.532   7.456  63.399  1.00  0.00    -0.368 OA 
HETATM   34  H   UNL     1      -8.188   7.771  62.571  1.00  0.00     0.000 HD 
BRANCH  32  35
HETATM   35  C   UNL     1      -6.363   6.597  63.991  1.00  0.00    -0.034 C  
HETATM   36  O   UNL     1      -6.113   8.002  64.029  1.00  0.00    -0.060 OA 
HETATM   37  H   UNL     1      -5.189   8.203  64.112  1.00  0.00     0.000 HD 
ENDBRANCH  32  35
ENDBRANCH  31  32
ENDBRANCH  29  31
ENDBRANCH  26  29
ENDBRANCH  11  26
ENDBRANCH   2   5
BRANCH   4  38
HETATM   38  C   UNL     1      -9.374   8.476  72.377  1.00  0.00    -0.278 C  
HETATM   39  O   UNL     1      -8.731   8.207  73.608  1.00  0.00    -0.258 OA 
HETATM   40  H   UNL     1      -7.863   8.593  73.642  1.00  0.00     0.000 HD 
ENDBRANCH   4  38
TORSDOF 12
ENDMDL
MODEL       32
REMARK 921   NORMALIZED FREE ENERGY PREDICTED BY IDOCK:   -4.88 KCAL/MOL
REMARK 922        TOTAL FREE ENERGY PREDICTED BY IDOCK:   -9.35 KCAL/MOL
REMARK 923 INTER-LIGAND FREE ENERGY PREDICTED BY IDOCK:   -8.11 KCAL/MOL
REMARK 924 INTRA-LIGAND FREE ENERGY PREDICTED BY IDOCK:   -1.24 KCAL/MOL
REMARK 927      BINDING AFFINITY PREDICTED BY RF-SCORE:    0.00 PKD
ROOT
HETATM    1  C   UNL     1      -9.248  15.502  66.015  1.00  0.00    -0.326 C  
HETATM    2  N   UNL     1      -9.529  15.148  67.403  1.00  0.00    -0.202 N  
HETATM    3  O   UNL     1     -10.329  17.240  67.928  1.00  0.00    -0.327 OA 
HETATM    4  C   UNL     1     -10.046  16.100  68.286  1.00  0.00    -0.232 C  
ENDROOT
BRANCH   2   5
HETATM    5  C   UNL     1      -9.259  13.792  67.772  1.00  0.00    -0.206 A  
HETATM    6  I   UNL     1     -12.139  13.414  66.700  1.00  0.00    -0.251 I  
HETATM    7  C   UNL     1      -7.957  13.422  68.197  1.00  0.00    -0.150 A  
HETATM    8  C   UNL     1      -7.700  12.103  68.622  1.00  0.00    -0.089 A  
HETATM    9  C   UNL     1     -10.295  12.824  67.713  1.00  0.00    -0.221 A  
HETATM   10  I   UNL     1      -6.397  14.926  68.125  1.00  0.00    -0.185 I  
HETATM   11  C   UNL     1     -10.086  11.510  68.204  1.00  0.00    -0.201 A  
HETATM   12  I   UNL     1      -8.530   9.367  69.868  1.00  0.00    -0.250 I  
HETATM   13  C   UNL     1      -8.793  11.186  68.705  1.00  0.00    -0.155 A  
BRANCH   8  14
HETATM   14  C   UNL     1      -6.303  11.601  68.819  1.00  0.00    -0.056 C  
HETATM   15  H   UNL     1      -4.810  11.600  70.097  1.00  0.00     0.000 HD 
HETATM   16  O   UNL     1      -5.696  11.919  69.973  1.00  0.00    -0.106 OA 
BRANCH  14  17
HETATM   17  N   UNL     1      -5.708  10.910  67.920  1.00  0.00    -0.042 NA 
HETATM   18  H   UNL     1      -5.110  10.124  68.176  1.00  0.00     0.000 HD 
BRANCH  17  19
HETATM   19  C   UNL     1      -5.906  11.278  66.510  1.00  0.00    -0.146 C  
BRANCH  19  20
HETATM   20  C   UNL     1      -6.452  10.068  65.742  1.00  0.00    -0.099 C  
HETATM   21  H   UNL     1      -6.793   8.163  66.111  1.00  0.00     0.000 HD 
HETATM   22  O   UNL     1      -6.455   8.913  66.588  1.00  0.00    -0.061 OA 
BRANCH  20  23
HETATM   23  C   UNL     1      -7.866  10.345  65.203  1.00  0.00    -0.122 C  
HETATM   24  O   UNL     1      -8.777   9.304  65.556  1.00  0.00    -0.153 OA 
HETATM   25  H   UNL     1      -9.651   9.476  65.223  1.00  0.00     0.000 HD 
ENDBRANCH  20  23
ENDBRANCH  19  20
ENDBRANCH  17  19
ENDBRANCH  14  17
ENDBRANCH   8  14
BRANCH  11  26
HETATM   26  C   UNL     1     -11.217  10.522  68.176  1.00  0.00    -0.293 C  
HETATM   27  O   UNL     1     -11.149   9.569  67.223  1.00  0.00    -0.336 OA 
HETATM   28  H   UNL     1     -11.864   8.943  67.204  1.00  0.00     0.000 HD 
BRANCH  26  29
HETATM   29  N   UNL     1     -12.230  10.597  68.957  1.00  0.00    -0.769 NA 
HETATM   30  H   UNL     1     -13.167  10.393  68.609  1.00  0.00     0.000 HD 
BRANCH  29  31
HETATM   31  C   UNL     1     -12.023  10.980  70.362  1.00  0.00    -0.368 C  
BRANCH  31  32
HETATM   32  C   UNL     1     -12.832  10.094  71.339  1.00  0.00    -0.428 C  
HETATM   33  O   UNL     1     -13.870   9.354  70.676  1.00  0.00    -0.540 OA 
HETATM   34  H   UNL     1     -14.367   8.811  71.276  1.00  0.00     0.000 HD 
BRANCH  32  35
HETATM   35  C   UNL     1     -11.904   9.086  72.037  1.00  0.00    -0.356 C  
HETATM   36  O   UNL     1     -12.598   8.270  72.981  1.00  0.00    -0.680 OA 
HETATM   37  H   UNL     1     -12.024   7.648  73.412  1.00  0.00     0.000 HD 
ENDBRANCH  32  35
ENDBRANCH  31  32
ENDBRANCH  29  31
ENDBRANCH  26  29
ENDBRANCH  11  26
ENDBRANCH   2   5
BRANCH   4  38
HETATM   38  C   UNL     1     -10.235  15.694  69.759  1.00  0.00    -0.300 C  
HETATM   39  O   UNL     1     -11.305  16.398  70.359  1.00  0.00    -0.458 OA 
HETATM   40  H   UNL     1     -11.422  16.148  71.269  1.00  0.00     0.000 HD 
ENDBRANCH   4  38
TORSDOF 12
ENDMDL
MODEL       33
REMARK 921   NORMALIZED FREE ENERGY PREDICTED BY IDOCK:   -4.87 KCAL/MOL
REMARK 922        TOTAL FREE ENERGY PREDICTED BY IDOCK:   -9.32 KCAL/MOL
REMARK 923 INTER-LIGAND FREE ENERGY PREDICTED BY IDOCK:   -8.49 KCAL/MOL
REMARK 924 INTRA-LIGAND FREE ENERGY PREDICTED BY IDOCK:   -0.83 KCAL/MOL
REMARK 927      BINDING AFFINITY PREDICTED BY RF-SCORE:    0.00 PKD
ROOT
HETATM    1  C   UNL     1     -11.852   6.225  70.940  1.00  0.00    -0.146 C  
HETATM    2  N   UNL     1     -10.846   7.162  71.434  1.00  0.00    -0.230 N  
HETATM    3  O   UNL     1     -10.546   6.022  73.410  1.00  0.00    -0.231 OA 
HETATM    4  C   UNL     1     -10.272   6.983  72.695  1.00  0.00    -0.194 C  
ENDROOT
BRANCH   2   5
HETATM    5  C   UNL     1     -10.493   8.229  70.549  1.00  0.00    -0.210 A  
HETATM    6  I   UNL     1      -8.543   6.077  69.476  1.00  0.00    -0.118 I  
HETATM    7  C   UNL     1     -11.247   9.431  70.557  1.00  0.00    -0.275 A  
HETATM    8  C   UNL     1     -10.867  10.511  69.734  1.00  0.00    -0.335 A  
HETATM    9  C   UNL     1      -9.390   8.082  69.669  1.00  0.00    -0.156 A  
HETATM   10  I   UNL     1     -13.001   9.524  71.829  1.00  0.00    -0.567 I  
HETATM   11  C   UNL     1      -8.939   9.175  68.886  1.00  0.00    -0.139 A  
HETATM   12  I   UNL     1      -8.779  12.214  68.164  1.00  0.00    -0.129 I  
HETATM   13  C   UNL     1      -9.662  10.398  68.974  1.00  0.00    -0.206 A  
BRANCH   8  14
HETATM   14  C   UNL     1     -11.772  11.681  69.509  1.00  0.00    -0.344 C  
HETATM   15  H   UNL     1     -12.888  12.552  68.144  1.00  0.00     0.000 HD 
HETATM   16  O   UNL     1     -12.313  11.809  68.287  1.00  0.00    -0.379 OA 
BRANCH  14  17
HETATM   17  N   UNL     1     -12.012  12.530  70.436  1.00  0.00    -0.519 NA 
HETATM   18  H   UNL     1     -12.074  12.236  71.411  1.00  0.00     0.000 HD 
BRANCH  17  19
HETATM   19  C   UNL     1     -12.196  13.941  70.062  1.00  0.00    -0.344 C  
BRANCH  19  20
HETATM   20  C   UNL     1     -12.332  14.790  71.332  1.00  0.00    -0.337 C  
HETATM   21  H   UNL     1     -12.090  16.680  71.832  1.00  0.00     0.000 HD 
HETATM   22  O   UNL     1     -12.006  16.154  71.045  1.00  0.00    -0.392 OA 
BRANCH  20  23
HETATM   23  C   UNL     1     -13.751  14.687  71.918  1.00  0.00    -0.419 C  
HETATM   24  O   UNL     1     -13.964  13.433  72.564  1.00  0.00    -0.707 OA 
HETATM   25  H   UNL     1     -14.841  13.369  72.927  1.00  0.00     0.000 HD 
ENDBRANCH  20  23
ENDBRANCH  19  20
ENDBRANCH  17  19
ENDBRANCH  14  17
ENDBRANCH   8  14
BRANCH  11  26
HETATM   26  C   UNL     1      -7.737   9.004  68.001  1.00  0.00    -0.097 C  
HETATM   27  O   UNL     1      -6.549   9.349  68.540  1.00  0.00    -0.053 OA 
HETATM   28  H   UNL     1      -5.788   9.242  67.981  1.00  0.00     0.000 HD 
BRANCH  26  29
HETATM   29  N   UNL     1      -7.816   8.619  66.782  1.00  0.00    -0.093 NA 
HETATM   30  H   UNL     1      -8.506   7.922  66.503  1.00  0.00     0.000 HD 
BRANCH  29  31
HETATM   31  C   UNL     1      -6.898   9.197  65.788  1.00  0.00    -0.077 C  
BRANCH  31  32
HETATM   32  C   UNL     1      -7.603  10.205  64.850  1.00  0.00    -0.138 C  
HETATM   33  O   UNL     1      -6.698  10.802  63.908  1.00  0.00    -0.348 OA 
HETATM   34  H   UNL     1      -7.131  11.421  63.332  1.00  0.00     0.000 HD 
BRANCH  32  35
HETATM   35  C   UNL     1      -8.718   9.503  64.056  1.00  0.00    -0.216 C  
HETATM   36  O   UNL     1      -8.503   8.096  63.943  1.00  0.00    -0.377 OA 
HETATM   37  H   UNL     1      -9.191   7.662  63.453  1.00  0.00     0.000 HD 
ENDBRANCH  32  35
ENDBRANCH  31  32
ENDBRANCH  29  31
ENDBRANCH  26  29
ENDBRANCH  11  26
ENDBRANCH   2   5
BRANCH   4  38
HETATM   38  C   UNL     1      -9.287   8.052  73.201  1.00  0.00    -0.277 C  
HETATM   39  O   UNL     1      -8.840   7.769  74.513  1.00  0.00    -0.434 OA 
HETATM   40  H   UNL     1      -8.231   8.429  74.825  1.00  0.00     0.000 HD 
ENDBRANCH   4  38
TORSDOF 12
ENDMDL
MODEL       34
REMARK 921   NORMALIZED FREE ENERGY PREDICTED BY IDOCK:   -4.86 KCAL/MOL
REMARK 922        TOTAL FREE ENERGY PREDICTED BY IDOCK:   -9.30 KCAL/MOL
REMARK 923 INTER-LIGAND FREE ENERGY PREDICTED BY IDOCK:   -9.95 KCAL/MOL
REMARK 924 INTRA-LIGAND FREE ENERGY PREDICTED BY IDOCK:    0.65 KCAL/MOL
REMARK 927      BINDING AFFINITY PREDICTED BY RF-SCORE:    0.00 PKD
ROOT
HETATM    1  C   UNL     1     -10.016   6.252  69.140  1.00  0.00    -0.150 C  
HETATM    2  N   UNL     1      -9.326   7.470  69.556  1.00  0.00    -0.153 N  
HETATM    3  O   UNL     1      -7.540   6.327  70.447  1.00  0.00    -0.091 OA 
HETATM    4  C   UNL     1      -8.102   7.396  70.226  1.00  0.00    -0.116 C  
ENDROOT
BRANCH   2   5
HETATM    5  C   UNL     1      -9.969   8.703  69.219  1.00  0.00    -0.195 A  
HETATM    6  I   UNL     1      -8.711   8.070  66.461  1.00  0.00    -0.205 I  
HETATM    7  C   UNL     1     -10.829   9.329  70.157  1.00  0.00    -0.242 A  
HETATM    8  C   UNL     1     -11.416  10.576  69.857  1.00  0.00    -0.384 A  
HETATM    9  C   UNL     1      -9.742   9.294  67.949  1.00  0.00    -0.153 A  
HETATM   10  I   UNL     1     -11.233   8.293  72.018  1.00  0.00    -0.462 I  
HETATM   11  C   UNL     1     -10.258  10.580  67.647  1.00  0.00    -0.234 A  
HETATM   12  I   UNL     1     -11.488  13.347  68.429  1.00  0.00    -0.423 I  
HETATM   13  C   UNL     1     -11.050  11.227  68.638  1.00  0.00    -0.232 A  
BRANCH   8  14
HETATM   14  C   UNL     1     -12.527  11.139  70.687  1.00  0.00    -0.356 C  
HETATM   15  H   UNL     1     -14.366  10.782  71.283  1.00  0.00     0.000 HD 
HETATM   16  O   UNL     1     -13.661  10.425  70.756  1.00  0.00    -0.120 OA 
BRANCH  14  17
HETATM   17  N   UNL     1     -12.406  12.259  71.295  1.00  0.00    -0.250 NA 
HETATM   18  H   UNL     1     -11.704  12.939  71.003  1.00  0.00     0.000 HD 
BRANCH  17  19
HETATM   19  C   UNL     1     -13.306  12.542  72.424  1.00  0.00    -0.249 C  
BRANCH  19  20
HETATM   20  C   UNL     1     -13.477  14.059  72.569  1.00  0.00    -0.558 C  
HETATM   21  H   UNL     1     -12.641  15.508  73.608  1.00  0.00     0.000 HD 
HETATM   22  O   UNL     1     -12.535  14.568  73.518  1.00  0.00    -0.361 OA 
BRANCH  20  23
HETATM   23  C   UNL     1     -13.313  14.768  71.214  1.00  0.00    -0.399 C  
HETATM   24  O   UNL     1     -14.343  15.731  70.994  1.00  0.00    -0.664 OA 
HETATM   25  H   UNL     1     -14.242  16.168  70.157  1.00  0.00     0.000 HD 
ENDBRANCH  20  23
ENDBRANCH  19  20
ENDBRANCH  17  19
ENDBRANCH  14  17
ENDBRANCH   8  14
BRANCH  11  26
HETATM   26  C   UNL     1      -9.959  11.203  66.314  1.00  0.00    -0.219 C  
HETATM   27  O   UNL     1      -8.654  11.382  66.021  1.00  0.00    -0.261 OA 
HETATM   28  H   UNL     1      -8.465  11.776  65.177  1.00  0.00     0.000 HD 
BRANCH  26  29
HETATM   29  N   UNL     1     -10.872  11.608  65.512  1.00  0.00    -0.287 NA 
HETATM   30  H   UNL     1     -11.767  11.939  65.872  1.00  0.00     0.000 HD 
BRANCH  29  31
HETATM   31  C   UNL     1     -10.612  11.591  64.064  1.00  0.00    -0.379 C  
BRANCH  31  32
HETATM   32  C   UNL     1     -11.695  12.349  63.261  1.00  0.00    -0.382 C  
HETATM   33  O   UNL     1     -12.692  11.468  62.720  1.00  0.00    -0.907 OA 
HETATM   34  H   UNL     1     -13.358  11.934  62.226  1.00  0.00     0.000 HD 
BRANCH  32  35
HETATM   35  C   UNL     1     -12.407  13.372  64.163  1.00  0.00    -0.333 C  
HETATM   36  O   UNL     1     -12.471  14.669  63.569  1.00  0.00    -1.069 OA 
HETATM   37  H   UNL     1     -12.910  15.301  64.126  1.00  0.00     0.000 HD 
ENDBRANCH  32  35
ENDBRANCH  31  32
ENDBRANCH  29  31
ENDBRANCH  26  29
ENDBRANCH  11  26
ENDBRANCH   2   5
BRANCH   4  38
HETATM   38  C   UNL     1      -7.466   8.708  70.721  1.00  0.00    -0.080 C  
HETATM   39  O   UNL     1      -6.501   9.195  69.808  1.00  0.00    -0.038 OA 
HETATM   40  H   UNL     1      -6.109  10.005  70.113  1.00  0.00     0.000 HD 
ENDBRANCH   4  38
TORSDOF 12
ENDMDL
MODEL       35
REMARK 921   NORMALIZED FREE ENERGY PREDICTED BY IDOCK:   -4.85 KCAL/MOL
REMARK 922        TOTAL FREE ENERGY PREDICTED BY IDOCK:   -9.29 KCAL/MOL
REMARK 923 INTER-LIGAND FREE ENERGY PREDICTED BY IDOCK:   -8.40 KCAL/MOL
REMARK 924 INTRA-LIGAND FREE ENERGY PREDICTED BY IDOCK:   -0.90 KCAL/MOL
REMARK 927      BINDING AFFINITY PREDICTED BY RF-SCORE:    0.00 PKD
ROOT
HETATM    1  C   UNL     1      -8.438  12.853  67.075  1.00  0.00    -0.142 C  
HETATM    2  N   UNL     1      -9.381  11.934  66.445  1.00  0.00    -0.222 N  
HETATM    3  O   UNL     1     -10.140  13.509  64.949  1.00  0.00    -0.327 OA 
HETATM    4  C   UNL     1     -10.206  12.370  65.404  1.00  0.00    -0.278 C  
ENDROOT
BRANCH   2   5
HETATM    5  C   UNL     1      -9.383  10.594  66.946  1.00  0.00    -0.159 A  
HETATM    6  I   UNL     1     -11.504  11.803  68.851  1.00  0.00    -0.449 I  
HETATM    7  C   UNL     1      -8.647   9.587  66.271  1.00  0.00    -0.130 A  
HETATM    8  C   UNL     1      -8.593   8.279  66.794  1.00  0.00    -0.131 A  
HETATM    9  C   UNL     1     -10.121  10.279  68.116  1.00  0.00    -0.150 A  
HETATM   10  I   UNL     1      -7.661  10.118  64.414  1.00  0.00     0.002 I  
HETATM   11  C   UNL     1     -10.026   8.993  68.706  1.00  0.00    -0.194 A  
HETATM   12  I   UNL     1      -8.668   6.207  69.123  1.00  0.00    -0.119 I  
HETATM   13  C   UNL     1      -9.212   8.022  68.056  1.00  0.00    -0.135 A  
BRANCH   8  14
HETATM   14  C   UNL     1      -8.062   7.134  65.989  1.00  0.00    -0.115 C  
HETATM   15  H   UNL     1      -6.405   6.177  65.539  1.00  0.00     0.000 HD 
HETATM   16  O   UNL     1      -6.742   6.903  66.050  1.00  0.00    -0.050 OA 
BRANCH  14  17
HETATM   17  N   UNL     1      -8.832   6.413  65.262  1.00  0.00    -0.364 NA 
HETATM   18  H   UNL     1      -9.743   6.760  64.963  1.00  0.00     0.000 HD 
BRANCH  17  19
HETATM   19  C   UNL     1      -8.369   5.073  64.870  1.00  0.00    -0.142 C  
BRANCH  19  20
HETATM   20  C   UNL     1      -9.355   4.022  65.394  1.00  0.00    -0.162 C  
HETATM   21  H   UNL     1      -9.341   2.576  66.732  1.00  0.00     0.000 HD 
HETATM   22  O   UNL     1      -8.730   3.227  66.408  1.00  0.00    -0.116 OA 
BRANCH  20  23
HETATM   23  C   UNL     1     -10.633   4.683  65.940  1.00  0.00    -0.223 C  
HETATM   24  O   UNL     1     -11.712   4.590  65.011  1.00  0.00    -1.044 OA 
HETATM   25  H   UNL     1     -12.501   4.998  65.348  1.00  0.00     0.000 HD 
ENDBRANCH  20  23
ENDBRANCH  19  20
ENDBRANCH  17  19
ENDBRANCH  14  17
ENDBRANCH   8  14
BRANCH  11  26
HETATM   26  C   UNL     1     -10.779   8.703  69.974  1.00  0.00    -0.228 C  
HETATM   27  O   UNL     1     -11.897   7.960  69.844  1.00  0.00    -0.356 OA 
HETATM   28  H   UNL     1     -12.374   7.776  70.645  1.00  0.00     0.000 HD 
BRANCH  26  29
HETATM   29  N   UNL     1     -10.436   9.178  71.113  1.00  0.00    -0.287 NA 
HETATM   30  H   UNL     1     -10.539  10.173  71.312  1.00  0.00     0.000 HD 
BRANCH  29  31
HETATM   31  C   UNL     1      -9.893   8.267  72.133  1.00  0.00    -0.272 C  
BRANCH  31  32
HETATM   32  C   UNL     1     -11.002   7.623  72.999  1.00  0.00    -0.400 C  
HETATM   33  O   UNL     1     -12.290   8.216  72.769  1.00  0.00    -0.611 OA 
HETATM   34  H   UNL     1     -12.971   7.821  73.301  1.00  0.00     0.000 HD 
BRANCH  32  35
HETATM   35  C   UNL     1     -11.111   6.120  72.692  1.00  0.00    -0.272 C  
HETATM   36  O   UNL     1     -12.451   5.639  72.794  1.00  0.00    -0.505 OA 
HETATM   37  H   UNL     1     -12.518   4.711  72.605  1.00  0.00     0.000 HD 
ENDBRANCH  32  35
ENDBRANCH  31  32
ENDBRANCH  29  31
ENDBRANCH  26  29
ENDBRANCH  11  26
ENDBRANCH   2   5
BRANCH   4  38
HETATM   38  C   UNL     1     -11.244  11.383  64.840  1.00  0.00    -0.110 C  
HETATM   39  O   UNL     1     -11.063  11.172  63.453  1.00  0.00    -0.704 OA 
HETATM   40  H   UNL     1     -11.704  10.563  63.105  1.00  0.00     0.000 HD 
ENDBRANCH   4  38
TORSDOF 12
ENDMDL
MODEL       36
REMARK 921   NORMALIZED FREE ENERGY PREDICTED BY IDOCK:   -4.84 KCAL/MOL
REMARK 922        TOTAL FREE ENERGY PREDICTED BY IDOCK:   -9.28 KCAL/MOL
REMARK 923 INTER-LIGAND FREE ENERGY PREDICTED BY IDOCK:   -8.49 KCAL/MOL
REMARK 924 INTRA-LIGAND FREE ENERGY PREDICTED BY IDOCK:   -0.79 KCAL/MOL
REMARK 927      BINDING AFFINITY PREDICTED BY RF-SCORE:    0.00 PKD
ROOT
HETATM    1  C   UNL     1     -11.495  11.495  64.606  1.00  0.00    -0.098 C  
HETATM    2  N   UNL     1     -10.415  11.484  65.588  1.00  0.00    -0.259 N  
HETATM    3  O   UNL     1      -8.862  10.692  64.087  1.00  0.00    -0.181 OA 
HETATM    4  C   UNL     1      -9.139  11.040  65.232  1.00  0.00    -0.189 C  
ENDROOT
BRANCH   2   5
HETATM    5  C   UNL     1     -10.749  11.964  66.894  1.00  0.00    -0.246 A  
HETATM    6  I   UNL     1     -10.635   8.936  67.530  1.00  0.00    -0.012 I  
HETATM    7  C   UNL     1     -10.770  13.359  67.149  1.00  0.00    -0.264 A  
HETATM    8  C   UNL     1     -11.159  13.841  68.416  1.00  0.00    -0.287 A  
HETATM    9  C   UNL     1     -11.058  11.042  67.927  1.00  0.00    -0.288 A  
HETATM   10  I   UNL     1     -10.149  14.695  65.558  1.00  0.00    -0.283 I  
HETATM   11  C   UNL     1     -11.525  11.498  69.187  1.00  0.00    -0.362 A  
HETATM   12  I   UNL     1     -12.731  13.656  71.102  1.00  0.00    -0.260 I  
HETATM   13  C   UNL     1     -11.618  12.904  69.392  1.00  0.00    -0.302 A  
BRANCH   8  14
HETATM   14  C   UNL     1     -10.940  15.268  68.812  1.00  0.00    -0.260 C  
HETATM   15  H   UNL     1     -11.742  17.059  68.702  1.00  0.00     0.000 HD 
HETATM   16  O   UNL     1     -11.881  16.154  68.451  1.00  0.00    -0.260 OA 
BRANCH  14  17
HETATM   17  N   UNL     1      -9.895  15.631  69.456  1.00  0.00    -0.277 NA 
HETATM   18  H   UNL     1      -9.917  15.738  70.470  1.00  0.00     0.000 HD 
BRANCH  17  19
HETATM   19  C   UNL     1      -8.661  15.889  68.698  1.00  0.00    -0.199 C  
BRANCH  19  20
HETATM   20  C   UNL     1      -8.359  17.393  68.717  1.00  0.00    -0.223 C  
HETATM   21  H   UNL     1      -6.757  18.539  68.735  1.00  0.00     0.000 HD 
HETATM   22  O   UNL     1      -6.944  17.608  68.723  1.00  0.00    -0.226 OA 
BRANCH  20  23
HETATM   23  C   UNL     1      -9.007  18.103  67.516  1.00  0.00    -0.257 C  
HETATM   24  O   UNL     1     -10.363  18.458  67.781  1.00  0.00    -0.368 OA 
HETATM   25  H   UNL     1     -10.763  18.897  67.039  1.00  0.00     0.000 HD 
ENDBRANCH  20  23
ENDBRANCH  19  20
ENDBRANCH  17  19
ENDBRANCH  14  17
ENDBRANCH   8  14
BRANCH  11  26
HETATM   26  C   UNL     1     -11.893  10.497  70.245  1.00  0.00    -0.331 C  
HETATM   27  O   UNL     1     -13.144   9.997  70.179  1.00  0.00    -0.566 OA 
HETATM   28  H   UNL     1     -13.378   9.364  70.848  1.00  0.00     0.000 HD 
BRANCH  26  29
HETATM   29  N   UNL     1     -11.107  10.172  71.203  1.00  0.00    -0.275 NA 
HETATM   30  H   UNL     1     -10.739  10.882  71.834  1.00  0.00     0.000 HD 
BRANCH  29  31
HETATM   31  C   UNL     1     -10.742   8.757  71.379  1.00  0.00    -0.286 C  
BRANCH  31  32
HETATM   32  C   UNL     1     -11.319   8.159  72.684  1.00  0.00    -0.381 C  
HETATM   33  O   UNL     1     -12.685   8.541  72.905  1.00  0.00    -0.645 OA 
HETATM   34  H   UNL     1     -13.039   8.174  73.707  1.00  0.00     0.000 HD 
BRANCH  32  35
HETATM   35  C   UNL     1     -11.259   6.622  72.636  1.00  0.00    -0.249 C  
HETATM   36  O   UNL     1     -12.202   6.069  71.718  1.00  0.00    -0.152 OA 
HETATM   37  H   UNL     1     -12.165   5.120  71.688  1.00  0.00     0.000 HD 
ENDBRANCH  32  35
ENDBRANCH  31  32
ENDBRANCH  29  31
ENDBRANCH  26  29
ENDBRANCH  11  26
ENDBRANCH   2   5
BRANCH   4  38
HETATM   38  C   UNL     1      -8.065  10.964  66.332  1.00  0.00    -0.164 C  
HETATM   39  O   UNL     1      -7.255  12.124  66.349  1.00  0.00    -0.340 OA 
HETATM   40  H   UNL     1      -6.592  12.077  67.029  1.00  0.00     0.000 HD 
ENDBRANCH   4  38
TORSDOF 12
ENDMDL
MODEL       37
REMARK 921   NORMALIZED FREE ENERGY PREDICTED BY IDOCK:   -4.84 KCAL/MOL
REMARK 922        TOTAL FREE ENERGY PREDICTED BY IDOCK:   -9.27 KCAL/MOL
REMARK 923 INTER-LIGAND FREE ENERGY PREDICTED BY IDOCK:   -7.80 KCAL/MOL
REMARK 924 INTRA-LIGAND FREE ENERGY PREDICTED BY IDOCK:   -1.47 KCAL/MOL
REMARK 927      BINDING AFFINITY PREDICTED BY RF-SCORE:    0.00 PKD
ROOT
HETATM    1  C   UNL     1     -10.537   5.720  66.774  1.00  0.00    -0.306 C  
HETATM    2  N   UNL     1      -9.577   6.522  67.528  1.00  0.00    -0.123 N  
HETATM    3  O   UNL     1      -7.756   5.610  66.458  1.00  0.00    -0.097 OA 
HETATM    4  C   UNL     1      -8.205   6.371  67.311  1.00  0.00    -0.113 C  
ENDROOT
BRANCH   2   5
HETATM    5  C   UNL     1     -10.132   7.453  68.461  1.00  0.00    -0.175 A  
HETATM    6  I   UNL     1      -9.673   5.080  70.396  1.00  0.00    -0.331 I  
HETATM    7  C   UNL     1     -10.380   8.791  68.060  1.00  0.00    -0.220 A  
HETATM    8  C   UNL     1     -10.985   9.698  68.954  1.00  0.00    -0.153 A  
HETATM    9  C   UNL     1     -10.433   7.034  69.783  1.00  0.00    -0.219 A  
HETATM   10  I   UNL     1      -9.763   9.388  66.069  1.00  0.00    -0.235 I  
HETATM   11  C   UNL     1     -11.110   7.900  70.679  1.00  0.00    -0.263 A  
HETATM   12  I   UNL     1     -12.832  10.420  71.361  1.00  0.00    -0.558 I  
HETATM   13  C   UNL     1     -11.424   9.213  70.225  1.00  0.00    -0.146 A  
BRANCH   8  14
HETATM   14  C   UNL     1     -11.019  11.168  68.677  1.00  0.00    -0.220 C  
HETATM   15  H   UNL     1     -12.057  12.559  67.754  1.00  0.00     0.000 HD 
HETATM   16  O   UNL     1     -12.036  11.626  67.931  1.00  0.00    -0.613 OA 
BRANCH  14  17
HETATM   17  N   UNL     1     -10.111  11.954  69.120  1.00  0.00    -0.410 NA 
HETATM   18  H   UNL     1     -10.095  12.233  70.101  1.00  0.00     0.000 HD 
BRANCH  17  19
HETATM   19  C   UNL     1      -9.091  12.445  68.180  1.00  0.00    -0.200 C  
BRANCH  19  20
HETATM   20  C   UNL     1      -8.938  13.962  68.344  1.00  0.00    -0.178 C  
HETATM   21  H   UNL     1      -8.197  15.455  67.294  1.00  0.00     0.000 HD 
HETATM   22  O   UNL     1      -8.292  14.515  67.192  1.00  0.00    -0.201 OA 
BRANCH  20  23
HETATM   23  C   UNL     1     -10.301  14.636  68.573  1.00  0.00    -0.238 C  
HETATM   24  O   UNL     1     -11.229  14.315  67.537  1.00  0.00    -0.285 OA 
HETATM   25  H   UNL     1     -12.071  14.731  67.679  1.00  0.00     0.000 HD 
ENDBRANCH  20  23
ENDBRANCH  19  20
ENDBRANCH  17  19
ENDBRANCH  14  17
ENDBRANCH   8  14
BRANCH  11  26
HETATM   26  C   UNL     1     -11.461   7.412  72.056  1.00  0.00    -0.273 C  
HETATM   27  O   UNL     1     -12.606   6.706  72.161  1.00  0.00    -0.521 OA 
HETATM   28  H   UNL     1     -12.829   6.397  73.032  1.00  0.00     0.000 HD 
BRANCH  26  29
HETATM   29  N   UNL     1     -10.766   7.692  73.095  1.00  0.00    -0.389 NA 
HETATM   30  H   UNL     1     -10.538   8.660  73.320  1.00  0.00     0.000 HD 
BRANCH  29  31
HETATM   31  C   UNL     1     -10.300   6.596  73.959  1.00  0.00    -0.351 C  
BRANCH  31  32
HETATM   32  C   UNL     1      -8.812   6.750  74.355  1.00  0.00    -0.179 C  
HETATM   33  O   UNL     1      -7.945   5.930  73.556  1.00  0.00    -0.104 OA 
HETATM   34  H   UNL     1      -7.031   6.024  73.799  1.00  0.00     0.000 HD 
BRANCH  32  35
HETATM   35  C   UNL     1      -8.366   8.213  74.189  1.00  0.00    -0.224 C  
HETATM   36  O   UNL     1      -8.098   8.550  72.828  1.00  0.00    -0.328 OA 
HETATM   37  H   UNL     1      -7.822   9.453  72.726  1.00  0.00     0.000 HD 
ENDBRANCH  32  35
ENDBRANCH  31  32
ENDBRANCH  29  31
ENDBRANCH  26  29
ENDBRANCH  11  26
ENDBRANCH   2   5
BRANCH   4  38
HETATM   38  C   UNL     1      -7.239   7.175  68.199  1.00  0.00    -0.095 C  
HETATM   39  O   UNL     1      -6.481   8.098  67.442  1.00  0.00    -0.055 OA 
HETATM   40  H   UNL     1      -5.884   8.595  67.990  1.00  0.00     0.000 HD 
ENDBRANCH   4  38
TORSDOF 12
ENDMDL
MODEL       38
REMARK 921   NORMALIZED FREE ENERGY PREDICTED BY IDOCK:   -4.84 KCAL/MOL
REMARK 922        TOTAL FREE ENERGY PREDICTED BY IDOCK:   -9.27 KCAL/MOL
REMARK 923 INTER-LIGAND FREE ENERGY PREDICTED BY IDOCK:   -8.15 KCAL/MOL
REMARK 924 INTRA-LIGAND FREE ENERGY PREDICTED BY IDOCK:   -1.12 KCAL/MOL
REMARK 927      BINDING AFFINITY PREDICTED BY RF-SCORE:    0.00 PKD
ROOT
HETATM    1  C   UNL     1      -6.037   8.725  68.503  1.00  0.00    -0.046 C  
HETATM    2  N   UNL     1      -7.228   8.210  67.833  1.00  0.00    -0.089 N  
HETATM    3  O   UNL     1      -6.018   7.058  66.252  1.00  0.00    -0.033 OA 
HETATM    4  C   UNL     1      -7.109   7.404  66.698  1.00  0.00    -0.075 C  
ENDROOT
BRANCH   2   5
HETATM    5  C   UNL     1      -8.483   8.569  68.419  1.00  0.00    -0.138 A  
HETATM    6  I   UNL     1      -8.233  10.903  66.401  1.00  0.00    -0.134 I  
HETATM    7  C   UNL     1      -9.112   7.686  69.334  1.00  0.00    -0.142 A  
HETATM    8  C   UNL     1     -10.317   8.061  69.964  1.00  0.00    -0.218 A  
HETATM    9  C   UNL     1      -9.092   9.806  68.083  1.00  0.00    -0.125 A  
HETATM   10  I   UNL     1      -8.188   5.757  69.687  1.00  0.00    -0.110 I  
HETATM   11  C   UNL     1     -10.262  10.242  68.755  1.00  0.00    -0.205 A  
HETATM   12  I   UNL     1     -12.333  10.153  71.097  1.00  0.00    -0.539 I  
HETATM   13  C   UNL     1     -10.829   9.375  69.732  1.00  0.00    -0.232 A  
BRANCH   8  14
HETATM   14  C   UNL     1     -11.148   7.070  70.718  1.00  0.00    -0.273 C  
HETATM   15  H   UNL     1     -12.566   5.728  70.491  1.00  0.00     0.000 HD 
HETATM   16  O   UNL     1     -12.039   6.356  70.012  1.00  0.00    -0.228 OA 
BRANCH  14  17
HETATM   17  N   UNL     1     -11.024   6.917  71.983  1.00  0.00    -0.229 NA 
HETATM   18  H   UNL     1     -10.335   7.454  72.509  1.00  0.00     0.000 HD 
BRANCH  17  19
HETATM   19  C   UNL     1     -11.900   5.948  72.659  1.00  0.00    -0.141 C  
BRANCH  19  20
HETATM   20  C   UNL     1     -11.041   4.940  73.432  1.00  0.00    -0.342 C  
HETATM   21  H   UNL     1      -9.828   3.450  72.996  1.00  0.00     0.000 HD 
HETATM   22  O   UNL     1     -10.360   4.075  72.517  1.00  0.00    -0.173 OA 
BRANCH  20  23
HETATM   23  C   UNL     1     -10.033   5.657  74.347  1.00  0.00    -0.251 C  
HETATM   24  O   UNL     1      -8.813   5.943  73.664  1.00  0.00    -0.125 OA 
HETATM   25  H   UNL     1      -8.191   6.386  74.230  1.00  0.00     0.000 HD 
ENDBRANCH  20  23
ENDBRANCH  19  20
ENDBRANCH  17  19
ENDBRANCH  14  17
ENDBRANCH   8  14
BRANCH  11  26
HETATM   26  C   UNL     1     -10.856  11.579  68.415  1.00  0.00    -0.211 C  
HETATM   27  O   UNL     1     -10.323  12.644  69.049  1.00  0.00    -0.425 OA 
HETATM   28  H   UNL     1     -10.698  13.490  68.834  1.00  0.00     0.000 HD 
BRANCH  26  29
HETATM   29  N   UNL     1     -11.852  11.719  67.622  1.00  0.00    -0.603 NA 
HETATM   30  H   UNL     1     -12.567  10.995  67.556  1.00  0.00     0.000 HD 
BRANCH  29  31
HETATM   31  C   UNL     1     -11.952  12.941  66.808  1.00  0.00    -0.350 C  
BRANCH  31  32
HETATM   32  C   UNL     1     -11.924  12.642  65.291  1.00  0.00    -0.439 C  
HETATM   33  O   UNL     1     -13.240  12.468  64.743  1.00  0.00    -0.839 OA 
HETATM   34  H   UNL     1     -13.223  12.284  63.811  1.00  0.00     0.000 HD 
BRANCH  32  35
HETATM   35  C   UNL     1     -11.246  13.797  64.534  1.00  0.00    -0.373 C  
HETATM   36  O   UNL     1      -9.908  14.026  64.976  1.00  0.00    -0.588 OA 
HETATM   37  H   UNL     1      -9.489  14.739  64.509  1.00  0.00     0.000 HD 
ENDBRANCH  32  35
ENDBRANCH  31  32
ENDBRANCH  29  31
ENDBRANCH  26  29
ENDBRANCH  11  26
ENDBRANCH   2   5
BRANCH   4  38
HETATM   38  C   UNL     1      -8.399   6.967  65.981  1.00  0.00    -0.134 C  
HETATM   39  O   UNL     1      -8.522   7.579  64.711  1.00  0.00    -0.336 OA 
HETATM   40  H   UNL     1      -9.318   7.309  64.268  1.00  0.00     0.000 HD 
ENDBRANCH   4  38
TORSDOF 12
ENDMDL
MODEL       39
REMARK 921   NORMALIZED FREE ENERGY PREDICTED BY IDOCK:   -4.83 KCAL/MOL
REMARK 922        TOTAL FREE ENERGY PREDICTED BY IDOCK:   -9.26 KCAL/MOL
REMARK 923 INTER-LIGAND FREE ENERGY PREDICTED BY IDOCK:   -8.09 KCAL/MOL
REMARK 924 INTRA-LIGAND FREE ENERGY PREDICTED BY IDOCK:   -1.17 KCAL/MOL
REMARK 927      BINDING AFFINITY PREDICTED BY RF-SCORE:    0.00 PKD
ROOT
HETATM    1  C   UNL     1     -10.589  12.927  63.737  1.00  0.00    -0.251 C  
HETATM    2  N   UNL     1     -10.773  12.913  65.185  1.00  0.00    -0.296 N  
HETATM    3  O   UNL     1     -13.050  12.618  65.039  1.00  0.00    -0.808 OA 
HETATM    4  C   UNL     1     -12.050  12.778  65.735  1.00  0.00    -0.448 C  
ENDROOT
BRANCH   2   5
HETATM    5  C   UNL     1      -9.583  13.027  65.970  1.00  0.00    -0.165 A  
HETATM    6  I   UNL     1      -9.316  10.051  65.158  1.00  0.00    -0.358 I  
HETATM    7  C   UNL     1      -9.178  14.296  66.458  1.00  0.00    -0.235 A  
HETATM    8  C   UNL     1      -8.041  14.406  67.286  1.00  0.00    -0.209 A  
HETATM    9  C   UNL     1      -8.813  11.870  66.259  1.00  0.00    -0.111 A  
HETATM   10  I   UNL     1     -10.328  16.032  65.857  1.00  0.00    -0.369 I  
HETATM   11  C   UNL     1      -7.710  11.938  67.148  1.00  0.00    -0.163 A  
HETATM   12  I   UNL     1      -6.005  13.314  69.380  1.00  0.00    -0.115 I  
HETATM   13  C   UNL     1      -7.374  13.210  67.693  1.00  0.00    -0.154 A  
BRANCH   8  14
HETATM   14  C   UNL     1      -7.426  15.734  67.598  1.00  0.00    -0.158 C  
HETATM   15  H   UNL     1      -7.292  17.100  69.006  1.00  0.00     0.000 HD 
HETATM   16  O   UNL     1      -7.682  16.258  68.808  1.00  0.00    -0.176 OA 
BRANCH  14  17
HETATM   17  N   UNL     1      -6.697  16.352  66.746  1.00  0.00    -0.250 NA 
HETATM   18  H   UNL     1      -6.645  16.036  65.777  1.00  0.00     0.000 HD 
BRANCH  17  19
HETATM   19  C   UNL     1      -5.937  17.527  67.198  1.00  0.00    -0.135 C  
BRANCH  19  20
HETATM   20  C   UNL     1      -6.279  18.727  66.307  1.00  0.00    -0.183 C  
HETATM   21  H   UNL     1      -6.902  19.017  64.460  1.00  0.00     0.000 HD 
HETATM   22  O   UNL     1      -6.690  18.273  65.013  1.00  0.00    -0.416 OA 
BRANCH  20  23
HETATM   23  C   UNL     1      -7.375  19.597  66.945  1.00  0.00    -0.224 C  
HETATM   24  O   UNL     1      -8.095  20.342  65.964  1.00  0.00    -0.532 OA 
HETATM   25  H   UNL     1      -8.772  20.880  66.359  1.00  0.00     0.000 HD 
ENDBRANCH  20  23
ENDBRANCH  19  20
ENDBRANCH  17  19
ENDBRANCH  14  17
ENDBRANCH   8  14
BRANCH  11  26
HETATM   26  C   UNL     1      -6.945  10.687  67.474  1.00  0.00    -0.083 C  
HETATM   27  O   UNL     1      -5.775  10.519  66.824  1.00  0.00    -0.049 OA 
HETATM   28  H   UNL     1      -5.291   9.728  67.030  1.00  0.00     0.000 HD 
BRANCH  26  29
HETATM   29  N   UNL     1      -7.387   9.786  68.270  1.00  0.00    -0.079 NA 
HETATM   30  H   UNL     1      -7.474   8.818  67.959  1.00  0.00     0.000 HD 
BRANCH  29  31
HETATM   31  C   UNL     1      -7.768  10.165  69.640  1.00  0.00    -0.163 C  
BRANCH  31  32
HETATM   32  C   UNL     1      -9.269   9.925  69.923  1.00  0.00    -0.212 C  
HETATM   33  O   UNL     1     -10.075  11.073  69.614  1.00  0.00    -0.440 OA 
HETATM   34  H   UNL     1     -10.998  10.926  69.788  1.00  0.00     0.000 HD 
BRANCH  32  35
HETATM   35  C   UNL     1      -9.787   8.744  69.084  1.00  0.00    -0.181 C  
HETATM   36  O   UNL     1     -11.134   8.932  68.651  1.00  0.00    -0.444 OA 
HETATM   37  H   UNL     1     -11.454   8.203  68.134  1.00  0.00     0.000 HD 
ENDBRANCH  32  35
ENDBRANCH  31  32
ENDBRANCH  29  31
ENDBRANCH  26  29
ENDBRANCH  11  26
ENDBRANCH   2   5
BRANCH   4  38
HETATM   38  C   UNL     1     -12.193  12.863  67.266  1.00  0.00    -0.055 C  
HETATM   39  O   UNL     1     -12.116  11.585  67.867  1.00  0.00    -0.630 OA 
HETATM   40  H   UNL     1     -12.204  11.637  68.812  1.00  0.00     0.000 HD 
ENDBRANCH   4  38
TORSDOF 12
ENDMDL
MODEL       40
REMARK 921   NORMALIZED FREE ENERGY PREDICTED BY IDOCK:   -4.83 KCAL/MOL
REMARK 922        TOTAL FREE ENERGY PREDICTED BY IDOCK:   -9.25 KCAL/MOL
REMARK 923 INTER-LIGAND FREE ENERGY PREDICTED BY IDOCK:   -8.71 KCAL/MOL
REMARK 924 INTRA-LIGAND FREE ENERGY PREDICTED BY IDOCK:   -0.54 KCAL/MOL
REMARK 927      BINDING AFFINITY PREDICTED BY RF-SCORE:    0.00 PKD
ROOT
HETATM    1  C   UNL     1      -7.202  10.839  65.797  1.00  0.00    -0.057 C  
HETATM    2  N   UNL     1      -7.166  11.168  67.219  1.00  0.00    -0.106 N  
HETATM    3  O   UNL     1      -5.404  12.629  66.984  1.00  0.00    -0.339 OA 
HETATM    4  C   UNL     1      -6.209  12.058  67.715  1.00  0.00    -0.081 C  
ENDROOT
BRANCH   2   5
HETATM    5  C   UNL     1      -8.163  10.545  68.034  1.00  0.00    -0.112 A  
HETATM    6  I   UNL     1      -9.777  13.037  67.154  1.00  0.00    -0.250 I  
HETATM    7  C   UNL     1      -7.934   9.249  68.562  1.00  0.00    -0.101 A  
HETATM    8  C   UNL     1      -8.885   8.655  69.417  1.00  0.00    -0.144 A  
HETATM    9  C   UNL     1      -9.376  11.228  68.311  1.00  0.00    -0.180 A  
HETATM   10  I   UNL     1      -6.118   8.218  67.978  1.00  0.00    -0.049 I  
HETATM   11  C   UNL     1     -10.316  10.689  69.226  1.00  0.00    -0.240 A  
HETATM   12  I   UNL     1     -11.176   8.756  71.530  1.00  0.00    -0.459 I  
HETATM   13  C   UNL     1     -10.025   9.423  69.810  1.00  0.00    -0.200 A  
BRANCH   8  14
HETATM   14  C   UNL     1      -8.817   7.204  69.777  1.00  0.00    -0.142 C  
HETATM   15  H   UNL     1      -8.286   5.975  71.217  1.00  0.00     0.000 HD 
HETATM   16  O   UNL     1      -8.329   6.896  70.989  1.00  0.00    -0.123 OA 
BRANCH  14  17
HETATM   17  N   UNL     1      -9.195   6.294  68.960  1.00  0.00    -0.128 NA 
HETATM   18  H   UNL     1      -8.546   5.572  68.644  1.00  0.00     0.000 HD 
BRANCH  17  19
HETATM   19  C   UNL     1     -10.588   6.313  68.488  1.00  0.00    -0.262 C  
BRANCH  19  20
HETATM   20  C   UNL     1     -10.604   6.365  66.955  1.00  0.00    -0.327 C  
HETATM   21  H   UNL     1      -9.582   7.270  65.535  1.00  0.00     0.000 HD 
HETATM   22  O   UNL     1      -9.571   7.238  66.485  1.00  0.00    -0.180 OA 
BRANCH  20  23
HETATM   23  C   UNL     1     -10.438   4.960  66.351  1.00  0.00    -0.280 C  
HETATM   24  O   UNL     1     -11.426   4.693  65.357  1.00  0.00    -1.018 OA 
HETATM   25  H   UNL     1     -11.324   3.826  64.984  1.00  0.00     0.000 HD 
ENDBRANCH  20  23
ENDBRANCH  19  20
ENDBRANCH  17  19
ENDBRANCH  14  17
ENDBRANCH   8  14
BRANCH  11  26
HETATM   26  C   UNL     1     -11.568  11.457  69.539  1.00  0.00    -0.331 C  
HETATM   27  O   UNL     1     -12.633  11.204  68.750  1.00  0.00    -0.538 OA 
HETATM   28  H   UNL     1     -13.426  11.691  68.948  1.00  0.00     0.000 HD 
BRANCH  26  29
HETATM   29  N   UNL     1     -11.628  12.353  70.453  1.00  0.00    -0.493 NA 
HETATM   30  H   UNL     1     -11.311  12.148  71.400  1.00  0.00     0.000 HD 
BRANCH  29  31
HETATM   31  C   UNL     1     -12.159  13.683  70.116  1.00  0.00    -0.361 C  
BRANCH  31  32
HETATM   32  C   UNL     1     -13.278  14.133  71.086  1.00  0.00    -0.301 C  
HETATM   33  O   UNL     1     -13.454  13.220  72.181  1.00  0.00    -0.485 OA 
HETATM   34  H   UNL     1     -14.141  13.496  72.776  1.00  0.00     0.000 HD 
BRANCH  32  35
HETATM   35  C   UNL     1     -12.950  15.518  71.671  1.00  0.00    -0.464 C  
HETATM   36  O   UNL     1     -13.767  15.840  72.797  1.00  0.00    -0.561 OA 
HETATM   37  H   UNL     1     -13.564  16.695  73.158  1.00  0.00     0.000 HD 
ENDBRANCH  32  35
ENDBRANCH  31  32
ENDBRANCH  29  31
ENDBRANCH  26  29
ENDBRANCH  11  26
ENDBRANCH   2   5
BRANCH   4  38
HETATM   38  C   UNL     1      -6.161  12.296  69.235  1.00  0.00    -0.094 C  
HETATM   39  O   UNL     1      -6.874  13.462  69.602  1.00  0.00    -0.308 OA 
HETATM   40  H   UNL     1      -6.844  13.609  70.541  1.00  0.00     0.000 HD 
ENDBRANCH   4  38
TORSDOF 12
ENDMDL
MODEL       41
REMARK 921   NORMALIZED FREE ENERGY PREDICTED BY IDOCK:   -4.73 KCAL/MOL
REMARK 922        TOTAL FREE ENERGY PREDICTED BY IDOCK:   -9.08 KCAL/MOL
REMARK 923 INTER-LIGAND FREE ENERGY PREDICTED BY IDOCK:   -7.85 KCAL/MOL
REMARK 924 INTRA-LIGAND FREE ENERGY PREDICTED BY IDOCK:   -1.24 KCAL/MOL
REMARK 927      BINDING AFFINITY PREDICTED BY RF-SCORE:    0.00 PKD
ROOT
HETATM    1  C   UNL     1      -9.150  16.162  66.033  1.00  0.00    -0.318 C  
HETATM    2  N   UNL     1      -9.761  15.494  67.179  1.00  0.00    -0.221 N  
HETATM    3  O   UNL     1     -11.023  17.329  67.759  1.00  0.00    -0.318 OA 
HETATM    4  C   UNL     1     -10.668  16.177  67.994  1.00  0.00    -0.321 C  
ENDROOT
BRANCH   2   5
HETATM    5  C   UNL     1      -9.386  14.129  67.385  1.00  0.00    -0.215 A  
HETATM    6  I   UNL     1      -7.355  15.461  69.305  1.00  0.00    -0.196 I  
HETATM    7  C   UNL     1     -10.158  13.090  66.806  1.00  0.00    -0.247 A  
HETATM    8  C   UNL     1      -9.759  11.746  66.952  1.00  0.00    -0.212 A  
HETATM    9  C   UNL     1      -8.242  13.822  68.166  1.00  0.00    -0.160 A  
HETATM   10  I   UNL     1     -11.969  13.637  65.746  1.00  0.00    -0.522 I  
HETATM   11  C   UNL     1      -7.773  12.487  68.267  1.00  0.00    -0.141 A  
HETATM   12  I   UNL     1      -7.629   9.502  67.346  1.00  0.00    -0.094 I  
HETATM   13  C   UNL     1      -8.519  11.469  67.607  1.00  0.00    -0.135 A  
BRANCH   8  14
HETATM   14  C   UNL     1     -10.672  10.614  66.597  1.00  0.00    -0.181 C  
HETATM   15  H   UNL     1     -11.278   9.512  65.087  1.00  0.00     0.000 HD 
HETATM   16  O   UNL     1     -10.699  10.230  65.312  1.00  0.00    -0.037 OA 
BRANCH  14  17
HETATM   17  N   UNL     1     -11.405  10.044  67.479  1.00  0.00    -0.473 NA 
HETATM   18  H   UNL     1     -11.757   9.098  67.333  1.00  0.00     0.000 HD 
BRANCH  17  19
HETATM   19  C   UNL     1     -11.728  10.788  68.706  1.00  0.00    -0.245 C  
BRANCH  19  20
HETATM   20  C   UNL     1     -11.625   9.846  69.912  1.00  0.00    -0.127 C  
HETATM   21  H   UNL     1     -10.243   9.317  71.212  1.00  0.00     0.000 HD 
HETATM   22  O   UNL     1     -10.306   9.901  70.465  1.00  0.00    -0.286 OA 
BRANCH  20  23
HETATM   23  C   UNL     1     -12.673  10.199  70.982  1.00  0.00    -0.386 C  
HETATM   24  O   UNL     1     -13.783   9.303  70.949  1.00  0.00    -0.591 OA 
HETATM   25  H   UNL     1     -14.430   9.521  71.610  1.00  0.00     0.000 HD 
ENDBRANCH  20  23
ENDBRANCH  19  20
ENDBRANCH  17  19
ENDBRANCH  14  17
ENDBRANCH   8  14
BRANCH  11  26
HETATM   26  C   UNL     1      -6.530  12.198  69.059  1.00  0.00    -0.092 C  
HETATM   27  O   UNL     1      -5.360  12.356  68.406  1.00  0.00    -0.051 OA 
HETATM   28  H   UNL     1      -4.573  12.173  68.907  1.00  0.00     0.000 HD 
BRANCH  26  29
HETATM   29  N   UNL     1      -6.554  11.762  70.263  1.00  0.00    -0.491 NA 
HETATM   30  H   UNL     1      -7.441  11.541  70.716  1.00  0.00     0.000 HD 
BRANCH  29  31
HETATM   31  C   UNL     1      -5.285  11.583  70.985  1.00  0.00    -0.118 C  
BRANCH  31  32
HETATM   32  C   UNL     1      -5.184  10.198  71.666  1.00  0.00    -0.061 C  
HETATM   33  O   UNL     1      -5.488  10.254  73.069  1.00  0.00    -0.304 OA 
HETATM   34  H   UNL     1      -5.426   9.403  73.487  1.00  0.00     0.000 HD 
BRANCH  32  35
HETATM   35  C   UNL     1      -6.162   9.209  71.008  1.00  0.00    -0.067 C  
HETATM   36  O   UNL     1      -7.448   9.220  71.630  1.00  0.00    -0.339 OA 
HETATM   37  H   UNL     1      -8.051   8.609  71.224  1.00  0.00     0.000 HD 
ENDBRANCH  32  35
ENDBRANCH  31  32
ENDBRANCH  29  31
ENDBRANCH  26  29
ENDBRANCH  11  26
ENDBRANCH   2   5
BRANCH   4  38
HETATM   38  C   UNL     1     -11.210  15.452  69.240  1.00  0.00    -0.296 C  
HETATM   39  O   UNL     1     -12.613  15.589  69.353  1.00  0.00    -0.599 OA 
HETATM   40  H   UNL     1     -12.947  15.142  70.123  1.00  0.00     0.000 HD 
ENDBRANCH   4  38
TORSDOF 12
ENDMDL
MODEL       42
REMARK 921   NORMALIZED FREE ENERGY PREDICTED BY IDOCK:   -4.70 KCAL/MOL
REMARK 922        TOTAL FREE ENERGY PREDICTED BY IDOCK:   -9.03 KCAL/MOL
REMARK 923 INTER-LIGAND FREE ENERGY PREDICTED BY IDOCK:   -8.12 KCAL/MOL
REMARK 924 INTRA-LIGAND FREE ENERGY PREDICTED BY IDOCK:   -0.91 KCAL/MOL
REMARK 927      BINDING AFFINITY PREDICTED BY RF-SCORE:    0.00 PKD
ROOT
HETATM    1  C   UNL     1      -6.636  16.749  66.957  1.00  0.00    -0.204 C  
HETATM    2  N   UNL     1      -7.035  15.952  68.113  1.00  0.00    -0.112 N  
HETATM    3  O   UNL     1      -5.760  17.181  69.582  1.00  0.00    -0.192 OA 
HETATM    4  C   UNL     1      -6.519  16.236  69.380  1.00  0.00    -0.197 C  
ENDROOT
BRANCH   2   5
HETATM    5  C   UNL     1      -7.976  14.905  67.860  1.00  0.00    -0.138 A  
HETATM    6  I   UNL     1      -9.943  17.297  67.894  1.00  0.00    -0.348 I  
HETATM    7  C   UNL     1      -7.516  13.588  67.606  1.00  0.00    -0.181 A  
HETATM    8  C   UNL     1      -8.439  12.539  67.419  1.00  0.00    -0.181 A  
HETATM    9  C   UNL     1      -9.367  15.189  67.865  1.00  0.00    -0.185 A  
HETATM   10  I   UNL     1      -5.376  13.265  67.476  1.00  0.00     0.390 I  
HETATM   11  C   UNL     1     -10.319  14.144  67.755  1.00  0.00    -0.242 A  
HETATM   12  I   UNL     1     -11.193  11.143  67.857  1.00  0.00    -0.346 I  
HETATM   13  C   UNL     1      -9.831  12.817  67.585  1.00  0.00    -0.214 A  
BRANCH   8  14
HETATM   14  C   UNL     1      -8.014  11.206  66.887  1.00  0.00    -0.151 C  
HETATM   15  H   UNL     1      -7.535   9.383  67.445  1.00  0.00     0.000 HD 
HETATM   16  O   UNL     1      -7.805  10.229  67.783  1.00  0.00    -0.100 OA 
BRANCH  14  17
HETATM   17  N   UNL     1      -7.843  11.009  65.634  1.00  0.00    -0.364 NA 
HETATM   18  H   UNL     1      -7.026  11.383  65.152  1.00  0.00     0.000 HD 
BRANCH  17  19
HETATM   19  C   UNL     1      -8.856  10.229  64.905  1.00  0.00    -0.192 C  
BRANCH  19  20
HETATM   20  C   UNL     1      -9.319  11.022  63.676  1.00  0.00    -0.238 C  
HETATM   21  H   UNL     1      -9.619  10.664  61.762  1.00  0.00     0.000 HD 
HETATM   22  O   UNL     1      -9.332  10.173  62.524  1.00  0.00    -0.284 OA 
BRANCH  20  23
HETATM   23  C   UNL     1     -10.710  11.639  63.906  1.00  0.00    -0.398 C  
HETATM   24  O   UNL     1     -11.662  11.160  62.957  1.00  0.00    -0.772 OA 
HETATM   25  H   UNL     1     -12.521  11.541  63.100  1.00  0.00     0.000 HD 
ENDBRANCH  20  23
ENDBRANCH  19  20
ENDBRANCH  17  19
ENDBRANCH  14  17
ENDBRANCH   8  14
BRANCH  11  26
HETATM   26  C   UNL     1     -11.784  14.469  67.815  1.00  0.00    -0.374 C  
HETATM   27  O   UNL     1     -12.453  14.413  66.645  1.00  0.00    -0.535 OA 
HETATM   28  H   UNL     1     -13.381  14.618  66.682  1.00  0.00     0.000 HD 
BRANCH  26  29
HETATM   29  N   UNL     1     -12.373  14.843  68.889  1.00  0.00    -0.588 NA 
HETATM   30  H   UNL     1     -13.061  15.595  68.867  1.00  0.00     0.000 HD 
BRANCH  29  31
HETATM   31  C   UNL     1     -12.043  14.174  70.157  1.00  0.00    -0.346 C  
BRANCH  31  32
HETATM   32  C   UNL     1     -13.138  14.371  71.231  1.00  0.00    -0.351 C  
HETATM   33  O   UNL     1     -13.148  13.316  72.205  1.00  0.00    -0.395 OA 
HETATM   34  H   UNL     1     -13.821  13.437  72.864  1.00  0.00     0.000 HD 
BRANCH  32  35
HETATM   35  C   UNL     1     -12.920  15.700  71.975  1.00  0.00    -0.452 C  
HETATM   36  O   UNL     1     -11.957  16.534  71.330  1.00  0.00    -0.611 OA 
HETATM   37  H   UNL     1     -11.822  17.354  71.790  1.00  0.00     0.000 HD 
ENDBRANCH  32  35
ENDBRANCH  31  32
ENDBRANCH  29  31
ENDBRANCH  26  29
ENDBRANCH  11  26
ENDBRANCH   2   5
BRANCH   4  38
HETATM   38  C   UNL     1      -6.904  15.306  70.545  1.00  0.00     0.335 C  
HETATM   39  O   UNL     1      -5.771  14.652  71.085  1.00  0.00    -0.150 OA 
HETATM   40  H   UNL     1      -6.009  14.078  71.804  1.00  0.00     0.000 HD 
ENDBRANCH   4  38
TORSDOF 12
ENDMDL
MODEL       43
REMARK 921   NORMALIZED FREE ENERGY PREDICTED BY IDOCK:   -4.69 KCAL/MOL
REMARK 922        TOTAL FREE ENERGY PREDICTED BY IDOCK:   -9.02 KCAL/MOL
REMARK 923 INTER-LIGAND FREE ENERGY PREDICTED BY IDOCK:   -8.21 KCAL/MOL
REMARK 924 INTRA-LIGAND FREE ENERGY PREDICTED BY IDOCK:   -0.81 KCAL/MOL
REMARK 927      BINDING AFFINITY PREDICTED BY RF-SCORE:    0.00 PKD
ROOT
HETATM    1  C   UNL     1     -12.721   7.133  71.083  1.00  0.00    -0.315 C  
HETATM    2  N   UNL     1     -11.372   7.679  71.199  1.00  0.00    -0.262 N  
HETATM    3  O   UNL     1     -11.159   7.068  73.407  1.00  0.00    -0.262 OA 
HETATM    4  C   UNL     1     -10.686   7.618  72.416  1.00  0.00    -0.280 C  
ENDROOT
BRANCH   2   5
HETATM    5  C   UNL     1     -10.819   8.247  70.008  1.00  0.00    -0.232 A  
HETATM    6  I   UNL     1     -10.028   5.293  69.522  1.00  0.00    -0.317 I  
HETATM    7  C   UNL     1     -11.062   9.609  69.697  1.00  0.00    -0.193 A  
HETATM    8  C   UNL     1     -10.468  10.192  68.558  1.00  0.00    -0.221 A  
HETATM    9  C   UNL     1     -10.028   7.445  69.145  1.00  0.00    -0.173 A  
HETATM   10  I   UNL     1     -12.394  10.727  70.991  1.00  0.00    -0.462 I  
HETATM   11  C   UNL     1      -9.358   8.021  68.036  1.00  0.00    -0.146 A  
HETATM   12  I   UNL     1      -8.225  10.438  66.406  1.00  0.00    -0.159 I  
HETATM   13  C   UNL     1      -9.550   9.410  67.791  1.00  0.00    -0.134 A  
BRANCH   8  14
HETATM   14  C   UNL     1     -10.905  11.528  68.045  1.00  0.00    -0.213 C  
HETATM   15  H   UNL     1     -10.697  13.460  68.345  1.00  0.00     0.000 HD 
HETATM   16  O   UNL     1     -10.420  12.612  68.671  1.00  0.00    -0.237 OA 
BRANCH  14  17
HETATM   17  N   UNL     1     -11.714  11.635  67.059  1.00  0.00    -0.581 NA 
HETATM   18  H   UNL     1     -12.543  11.043  66.997  1.00  0.00     0.000 HD 
BRANCH  17  19
HETATM   19  C   UNL     1     -11.421  12.632  66.018  1.00  0.00    -0.368 C  
BRANCH  19  20
HETATM   20  C   UNL     1     -12.630  12.760  65.083  1.00  0.00    -0.444 C  
HETATM   21  H   UNL     1     -14.048  14.083  64.736  1.00  0.00     0.000 HD 
HETATM   22  O   UNL     1     -13.299  14.004  65.316  1.00  0.00    -0.741 OA 
BRANCH  20  23
HETATM   23  C   UNL     1     -12.205  12.644  63.609  1.00  0.00    -0.536 C  
HETATM   24  O   UNL     1     -12.365  13.881  62.915  1.00  0.00    -1.023 OA 
HETATM   25  H   UNL     1     -12.103  13.809  62.005  1.00  0.00     0.000 HD 
ENDBRANCH  20  23
ENDBRANCH  19  20
ENDBRANCH  17  19
ENDBRANCH  14  17
ENDBRANCH   8  14
BRANCH  11  26
HETATM   26  C   UNL     1      -8.486   7.157  67.169  1.00  0.00    -0.121 C  
HETATM   27  O   UNL     1      -9.128   6.314  66.334  1.00  0.00    -0.146 OA 
HETATM   28  H   UNL     1      -8.577   5.767  65.785  1.00  0.00     0.000 HD 
BRANCH  26  29
HETATM   29  N   UNL     1      -7.207   7.156  67.245  1.00  0.00    -0.083 NA 
HETATM   30  H   UNL     1      -6.640   7.378  66.428  1.00  0.00     0.000 HD 
BRANCH  29  31
HETATM   31  C   UNL     1      -6.568   6.830  68.530  1.00  0.00    -0.058 C  
BRANCH  31  32
HETATM   32  C   UNL     1      -5.392   7.779  68.860  1.00  0.00    -0.026 C  
HETATM   33  O   UNL     1      -5.126   8.711  67.800  1.00  0.00    -0.033 OA 
HETATM   34  H   UNL     1      -4.403   9.294  68.003  1.00  0.00     0.000 HD 
BRANCH  32  35
HETATM   35  C   UNL     1      -5.701   8.586  70.134  1.00  0.00    -0.024 C  
HETATM   36  O   UNL     1      -6.995   9.188  70.096  1.00  0.00    -0.044 OA 
HETATM   37  H   UNL     1      -7.186   9.686  70.882  1.00  0.00     0.000 HD 
ENDBRANCH  32  35
ENDBRANCH  31  32
ENDBRANCH  29  31
ENDBRANCH  26  29
ENDBRANCH  11  26
ENDBRANCH   2   5
BRANCH   4  38
HETATM   38  C   UNL     1      -9.305   8.292  72.503  1.00  0.00    -0.280 C  
HETATM   39  O   UNL     1      -8.273   7.423  72.076  1.00  0.00    -0.100 OA 
HETATM   40  H   UNL     1      -7.421   7.839  72.130  1.00  0.00     0.000 HD 
ENDBRANCH   4  38
TORSDOF 12
ENDMDL
MODEL       44
REMARK 921   NORMALIZED FREE ENERGY PREDICTED BY IDOCK:   -4.67 KCAL/MOL
REMARK 922        TOTAL FREE ENERGY PREDICTED BY IDOCK:   -8.99 KCAL/MOL
REMARK 923 INTER-LIGAND FREE ENERGY PREDICTED BY IDOCK:   -7.82 KCAL/MOL
REMARK 924 INTRA-LIGAND FREE ENERGY PREDICTED BY IDOCK:   -1.17 KCAL/MOL
REMARK 927      BINDING AFFINITY PREDICTED BY RF-SCORE:    0.00 PKD
ROOT
HETATM    1  C   UNL     1      -8.255  16.648  66.694  1.00  0.00    -0.266 C  
HETATM    2  N   UNL     1      -9.209  15.921  67.527  1.00  0.00    -0.206 N  
HETATM    3  O   UNL     1      -9.979  17.827  68.560  1.00  0.00    -0.329 OA 
HETATM    4  C   UNL     1     -10.007  16.604  68.449  1.00  0.00    -0.255 C  
ENDROOT
BRANCH   2   5
HETATM    5  C   UNL     1      -9.272  14.507  67.323  1.00  0.00    -0.207 A  
HETATM    6  I   UNL     1     -11.003  15.399  64.915  1.00  0.00    -0.180 I  
HETATM    7  C   UNL     1      -8.482  13.642  68.123  1.00  0.00    -0.175 A  
HETATM    8  C   UNL     1      -8.586  12.244  67.970  1.00  0.00    -0.176 A  
HETATM    9  C   UNL     1     -10.126  13.975  66.322  1.00  0.00    -0.300 A  
HETATM   10  I   UNL     1      -7.100  14.538  69.533  1.00  0.00     0.045 I  
HETATM   11  C   UNL     1     -10.308  12.574  66.196  1.00  0.00    -0.274 A  
HETATM   12  I   UNL     1     -10.121   9.631  67.236  1.00  0.00    -0.314 I  
HETATM   13  C   UNL     1      -9.567  11.727  67.068  1.00  0.00    -0.187 A  
BRANCH   8  14
HETATM   14  C   UNL     1      -7.592  11.312  68.589  1.00  0.00    -0.129 C  
HETATM   15  H   UNL     1      -5.845  10.464  68.283  1.00  0.00     0.000 HD 
HETATM   16  O   UNL     1      -6.476  11.055  67.890  1.00  0.00    -0.060 OA 
BRANCH  14  17
HETATM   17  N   UNL     1      -7.802  10.772  69.731  1.00  0.00    -0.368 NA 
HETATM   18  H   UNL     1      -8.738  10.752  70.136  1.00  0.00     0.000 HD 
BRANCH  17  19
HETATM   19  C   UNL     1      -6.660  10.180  70.445  1.00  0.00    -0.132 C  
BRANCH  19  20
HETATM   20  C   UNL     1      -7.099   8.868  71.107  1.00  0.00    -0.099 C  
HETATM   21  H   UNL     1      -7.477   8.235  72.933  1.00  0.00     0.000 HD 
HETATM   22  O   UNL     1      -7.205   9.047  72.523  1.00  0.00    -0.332 OA 
BRANCH  20  23
HETATM   23  C   UNL     1      -8.435   8.374  70.525  1.00  0.00    -0.132 C  
HETATM   24  O   UNL     1      -9.550   8.898  71.245  1.00  0.00    -0.227 OA 
HETATM   25  H   UNL     1     -10.374   8.592  70.886  1.00  0.00     0.000 HD 
ENDBRANCH  20  23
ENDBRANCH  19  20
ENDBRANCH  17  19
ENDBRANCH  14  17
ENDBRANCH   8  14
BRANCH  11  26
HETATM   26  C   UNL     1     -11.257  12.042  65.161  1.00  0.00    -0.315 C  
HETATM   27  O   UNL     1     -12.569  12.267  65.386  1.00  0.00    -0.572 OA 
HETATM   28  H   UNL     1     -13.170  11.931  64.731  1.00  0.00     0.000 HD 
BRANCH  26  29
HETATM   29  N   UNL     1     -10.875  11.355  64.149  1.00  0.00    -0.364 NA 
HETATM   30  H   UNL     1     -11.232  10.411  64.000  1.00  0.00     0.000 HD 
BRANCH  29  31
HETATM   31  C   UNL     1      -9.913  11.946  63.206  1.00  0.00    -0.380 C  
BRANCH  31  32
HETATM   32  C   UNL     1      -8.700  11.023  62.945  1.00  0.00    -0.186 C  
HETATM   33  O   UNL     1      -7.883  10.848  64.113  1.00  0.00    -0.346 OA 
HETATM   34  H   UNL     1      -7.138  10.282  63.953  1.00  0.00     0.000 HD 
BRANCH  32  35
HETATM   35  C   UNL     1      -9.177   9.633  62.489  1.00  0.00    -0.201 C  
HETATM   36  O   UNL     1      -9.108   8.664  63.535  1.00  0.00    -0.279 OA 
HETATM   37  H   UNL     1      -9.403   7.805  63.254  1.00  0.00     0.000 HD 
ENDBRANCH  32  35
ENDBRANCH  31  32
ENDBRANCH  29  31
ENDBRANCH  26  29
ENDBRANCH  11  26
ENDBRANCH   2   5
BRANCH   4  38
HETATM   38  C   UNL     1     -10.927  15.776  69.365  1.00  0.00    -0.296 C  
HETATM   39  O   UNL     1     -12.258  15.757  68.886  1.00  0.00    -0.581 OA 
HETATM   40  H   UNL     1     -12.825  15.245  69.451  1.00  0.00     0.000 HD 
ENDBRANCH   4  38
TORSDOF 12
ENDMDL
MODEL       45
REMARK 921   NORMALIZED FREE ENERGY PREDICTED BY IDOCK:   -4.66 KCAL/MOL
REMARK 922        TOTAL FREE ENERGY PREDICTED BY IDOCK:   -8.97 KCAL/MOL
REMARK 923 INTER-LIGAND FREE ENERGY PREDICTED BY IDOCK:   -8.61 KCAL/MOL
REMARK 924 INTRA-LIGAND FREE ENERGY PREDICTED BY IDOCK:   -0.36 KCAL/MOL
REMARK 927      BINDING AFFINITY PREDICTED BY RF-SCORE:    0.00 PKD
ROOT
HETATM    1  C   UNL     1      -9.920   7.685  73.217  1.00  0.00    -0.320 C  
HETATM    2  N   UNL     1     -10.143   7.396  71.804  1.00  0.00    -0.176 N  
HETATM    3  O   UNL     1     -11.062   5.329  72.223  1.00  0.00    -0.221 OA 
HETATM    4  C   UNL     1     -10.699   6.175  71.411  1.00  0.00    -0.255 C  
ENDROOT
BRANCH   2   5
HETATM    5  C   UNL     1      -9.779   8.430  70.885  1.00  0.00    -0.174 A  
HETATM    6  I   UNL     1     -12.507   9.570  71.803  1.00  0.00    -0.454 I  
HETATM    7  C   UNL     1      -8.489   8.427  70.295  1.00  0.00    -0.126 A  
HETATM    8  C   UNL     1      -8.145   9.406  69.340  1.00  0.00    -0.105 A  
HETATM    9  C   UNL     1     -10.709   9.453  70.567  1.00  0.00    -0.276 A  
HETATM   10  I   UNL     1      -7.078   6.911  70.938  1.00  0.00    -0.069 I  
HETATM   11  C   UNL     1     -10.419  10.406  69.558  1.00  0.00    -0.274 A  
HETATM   12  I   UNL     1      -8.815  11.453  67.085  1.00  0.00    -0.176 I  
HETATM   13  C   UNL     1      -9.149  10.331  68.919  1.00  0.00    -0.168 A  
BRANCH   8  14
HETATM   14  C   UNL     1      -6.729   9.605  68.898  1.00  0.00    -0.046 C  
HETATM   15  H   UNL     1      -5.474   9.187  67.443  1.00  0.00     0.000 HD 
HETATM   16  O   UNL     1      -6.373   9.060  67.724  1.00  0.00    -0.055 OA 
BRANCH  14  17
HETATM   17  N   UNL     1      -5.889  10.256  69.612  1.00  0.00    -0.041 NA 
HETATM   18  H   UNL     1      -4.972   9.865  69.827  1.00  0.00     0.000 HD 
BRANCH  17  19
HETATM   19  C   UNL     1      -6.280  11.582  70.116  1.00  0.00    -0.132 C  
BRANCH  19  20
HETATM   20  C   UNL     1      -5.264  12.626  69.638  1.00  0.00    -0.076 C  
HETATM   21  H   UNL     1      -4.729  13.433  67.922  1.00  0.00     0.000 HD 
HETATM   22  O   UNL     1      -5.358  12.785  68.218  1.00  0.00    -0.058 OA 
BRANCH  20  23
HETATM   23  C   UNL     1      -5.480  13.975  70.346  1.00  0.00    -0.121 C  
HETATM   24  O   UNL     1      -5.924  13.798  71.691  1.00  0.00    -0.511 OA 
HETATM   25  H   UNL     1      -6.058  14.631  72.129  1.00  0.00     0.000 HD 
ENDBRANCH  20  23
ENDBRANCH  19  20
ENDBRANCH  17  19
ENDBRANCH  14  17
ENDBRANCH   8  14
BRANCH  11  26
HETATM   26  C   UNL     1     -11.444  11.447  69.207  1.00  0.00    -0.303 C  
HETATM   27  O   UNL     1     -12.516  11.014  68.510  1.00  0.00    -0.713 OA 
HETATM   28  H   UNL     1     -13.164  11.673  68.288  1.00  0.00     0.000 HD 
BRANCH  26  29
HETATM   29  N   UNL     1     -11.301  12.689  69.485  1.00  0.00    -0.448 NA 
HETATM   30  H   UNL     1     -10.580  13.243  69.022  1.00  0.00     0.000 HD 
BRANCH  29  31
HETATM   31  C   UNL     1     -12.191  13.307  70.480  1.00  0.00    -0.340 C  
BRANCH  31  32
HETATM   32  C   UNL     1     -12.370  14.826  70.248  1.00  0.00    -0.345 C  
HETATM   33  O   UNL     1     -13.719  15.261  70.480  1.00  0.00    -0.694 OA 
HETATM   34  H   UNL     1     -13.829  16.194  70.338  1.00  0.00     0.000 HD 
BRANCH  32  35
HETATM   35  C   UNL     1     -11.448  15.621  71.188  1.00  0.00    -0.411 C  
HETATM   36  O   UNL     1     -12.147  16.636  71.907  1.00  0.00    -0.580 OA 
HETATM   37  H   UNL     1     -11.578  17.127  72.487  1.00  0.00     0.000 HD 
ENDBRANCH  32  35
ENDBRANCH  31  32
ENDBRANCH  29  31
ENDBRANCH  26  29
ENDBRANCH  11  26
ENDBRANCH   2   5
BRANCH   4  38
HETATM   38  C   UNL     1     -10.825   5.888  69.903  1.00  0.00    -0.369 C  
HETATM   39  O   UNL     1     -11.944   6.546  69.340  1.00  0.00    -0.568 OA 
HETATM   40  H   UNL     1     -12.022   6.369  68.410  1.00  0.00     0.000 HD 
ENDBRANCH   4  38
TORSDOF 12
ENDMDL
MODEL       46
REMARK 921   NORMALIZED FREE ENERGY PREDICTED BY IDOCK:   -4.65 KCAL/MOL
REMARK 922        TOTAL FREE ENERGY PREDICTED BY IDOCK:   -8.96 KCAL/MOL
REMARK 923 INTER-LIGAND FREE ENERGY PREDICTED BY IDOCK:   -8.33 KCAL/MOL
REMARK 924 INTRA-LIGAND FREE ENERGY PREDICTED BY IDOCK:   -0.62 KCAL/MOL
REMARK 927      BINDING AFFINITY PREDICTED BY RF-SCORE:    0.00 PKD
ROOT
HETATM    1  C   UNL     1      -7.519  11.710  67.238  1.00  0.00    -0.143 C  
HETATM    2  N   UNL     1      -8.904  11.595  66.790  1.00  0.00    -0.179 N  
HETATM    3  O   UNL     1      -8.329  10.608  64.793  1.00  0.00    -0.156 OA 
HETATM    4  C   UNL     1      -9.200  11.051  65.537  1.00  0.00    -0.213 C  
ENDROOT
BRANCH   2   5
HETATM    5  C   UNL     1      -9.902  12.051  67.709  1.00  0.00    -0.190 A  
HETATM    6  I   UNL     1      -9.536  14.665  66.090  1.00  0.00    -0.213 I  
HETATM    7  C   UNL     1     -10.519  11.131  68.595  1.00  0.00    -0.197 A  
HETATM    8  C   UNL     1     -11.456  11.584  69.546  1.00  0.00    -0.378 A  
HETATM    9  C   UNL     1     -10.268  13.422  67.731  1.00  0.00    -0.235 A  
HETATM   10  I   UNL     1     -10.006   9.033  68.403  1.00  0.00    -0.237 I  
HETATM   11  C   UNL     1     -11.150  13.919  68.724  1.00  0.00    -0.291 A  
HETATM   12  I   UNL     1     -12.675  13.733  71.448  1.00  0.00    -0.314 I  
HETATM   13  C   UNL     1     -11.692  12.989  69.656  1.00  0.00    -0.297 A  
BRANCH   8  14
HETATM   14  C   UNL     1     -12.322  10.631  70.308  1.00  0.00    -0.325 C  
HETATM   15  H   UNL     1     -14.104   9.800  70.310  1.00  0.00     0.000 HD 
HETATM   16  O   UNL     1     -13.554  10.405  69.826  1.00  0.00     0.346 OA 
BRANCH  14  17
HETATM   17  N   UNL     1     -11.912  10.064  71.380  1.00  0.00    -0.384 NA 
HETATM   18  H   UNL     1     -10.959  10.207  71.715  1.00  0.00     0.000 HD 
BRANCH  17  19
HETATM   19  C   UNL     1     -12.848   9.200  72.116  1.00  0.00    -0.412 C  
BRANCH  19  20
HETATM   20  C   UNL     1     -12.280   7.778  72.185  1.00  0.00    -0.285 C  
HETATM   21  H   UNL     1     -11.718   6.389  70.905  1.00  0.00     0.000 HD 
HETATM   22  O   UNL     1     -12.070   7.271  70.862  1.00  0.00    -0.320 OA 
BRANCH  20  23
HETATM   23  C   UNL     1     -10.969   7.742  72.990  1.00  0.00    -0.381 C  
HETATM   24  O   UNL     1      -9.922   8.445  72.323  1.00  0.00    -0.261 OA 
HETATM   25  H   UNL     1      -9.112   8.423  72.821  1.00  0.00     0.000 HD 
ENDBRANCH  20  23
ENDBRANCH  19  20
ENDBRANCH  17  19
ENDBRANCH  14  17
ENDBRANCH   8  14
BRANCH  11  26
HETATM   26  C   UNL     1     -11.480  15.384  68.754  1.00  0.00    -0.341 C  
HETATM   27  O   UNL     1     -12.507  15.778  67.971  1.00  0.00     0.010 OA 
HETATM   28  H   UNL     1     -12.716  16.705  67.990  1.00  0.00     0.000 HD 
BRANCH  26  29
HETATM   29  N   UNL     1     -10.801  16.240  69.423  1.00  0.00    -0.309 NA 
HETATM   30  H   UNL     1     -10.948  16.347  70.426  1.00  0.00     0.000 HD 
BRANCH  29  31
HETATM   31  C   UNL     1      -9.805  17.066  68.723  1.00  0.00    -0.278 C  
BRANCH  31  32
HETATM   32  C   UNL     1     -10.428  18.335  68.095  1.00  0.00    -0.338 C  
HETATM   33  O   UNL     1     -10.277  19.492  68.933  1.00  0.00    -0.544 OA 
HETATM   34  H   UNL     1     -10.660  20.272  68.547  1.00  0.00     0.000 HD 
BRANCH  32  35
HETATM   35  C   UNL     1      -9.764  18.640  66.741  1.00  0.00    -0.329 C  
HETATM   36  O   UNL     1     -10.656  18.451  65.643  1.00  0.00    -0.622 OA 
HETATM   37  H   UNL     1     -10.246  18.639  64.807  1.00  0.00     0.000 HD 
ENDBRANCH  32  35
ENDBRANCH  31  32
ENDBRANCH  29  31
ENDBRANCH  26  29
ENDBRANCH  11  26
ENDBRANCH   2   5
BRANCH   4  38
HETATM   38  C   UNL     1     -10.670  11.040  65.081  1.00  0.00    -0.183 C  
HETATM   39  O   UNL     1     -10.847  11.760  63.876  1.00  0.00    -0.334 OA 
HETATM   40  H   UNL     1     -11.754  11.753  63.594  1.00  0.00     0.000 HD 
ENDBRANCH   4  38
TORSDOF 12
ENDMDL
MODEL       47
REMARK 921   NORMALIZED FREE ENERGY PREDICTED BY IDOCK:   -4.64 KCAL/MOL
REMARK 922        TOTAL FREE ENERGY PREDICTED BY IDOCK:   -8.93 KCAL/MOL
REMARK 923 INTER-LIGAND FREE ENERGY PREDICTED BY IDOCK:   -8.02 KCAL/MOL
REMARK 924 INTRA-LIGAND FREE ENERGY PREDICTED BY IDOCK:   -0.91 KCAL/MOL
REMARK 927      BINDING AFFINITY PREDICTED BY RF-SCORE:    0.00 PKD
ROOT
HETATM    1  C   UNL     1      -7.854  12.343  67.395  1.00  0.00    -0.174 C  
HETATM    2  N   UNL     1      -8.546  11.060  67.318  1.00  0.00    -0.129 N  
HETATM    3  O   UNL     1      -8.020  10.744  65.101  1.00  0.00    -0.089 OA 
HETATM    4  C   UNL     1      -8.591  10.352  66.115  1.00  0.00    -0.144 C  
ENDROOT
BRANCH   2   5
HETATM    5  C   UNL     1      -9.140  10.593  68.533  1.00  0.00    -0.159 A  
HETATM    6  I   UNL     1      -6.289   9.457  68.945  1.00  0.00    -0.042 I  
HETATM    7  C   UNL     1     -10.452  11.002  68.881  1.00  0.00    -0.204 A  
HETATM    8  C   UNL     1     -11.067  10.495  70.044  1.00  0.00    -0.376 A  
HETATM    9  C   UNL     1      -8.413   9.720  69.384  1.00  0.00    -0.159 A  
HETATM   10  I   UNL     1     -11.441  12.445  67.600  1.00  0.00    -0.396 I  
HETATM   11  C   UNL     1      -9.031   9.136  70.519  1.00  0.00    -0.274 A  
HETATM   12  I   UNL     1     -11.516   8.321  72.234  1.00  0.00    -0.413 I  
HETATM   13  C   UNL     1     -10.379   9.498  70.801  1.00  0.00    -0.306 A  
BRANCH   8  14
HETATM   14  C   UNL     1     -12.325  11.095  70.590  1.00  0.00    -0.388 C  
HETATM   15  H   UNL     1     -14.259  10.783  70.759  1.00  0.00     0.000 HD 
HETATM   16  O   UNL     1     -13.461  10.402  70.412  1.00  0.00    -0.081 OA 
BRANCH  14  17
HETATM   17  N   UNL     1     -12.322  12.226  71.190  1.00  0.00    -0.308 NA 
HETATM   18  H   UNL     1     -11.531  12.864  71.098  1.00  0.00     0.000 HD 
BRANCH  17  19
HETATM   19  C   UNL     1     -13.486  12.583  72.015  1.00  0.00    -0.387 C  
BRANCH  19  20
HETATM   20  C   UNL     1     -13.543  14.106  72.181  1.00  0.00    -0.475 C  
HETATM   21  H   UNL     1     -12.957  15.432  73.516  1.00  0.00     0.000 HD 
HETATM   22  O   UNL     1     -12.922  14.488  73.414  1.00  0.00    -0.544 OA 
BRANCH  20  23
HETATM   23  C   UNL     1     -12.870  14.819  70.996  1.00  0.00    -0.352 C  
HETATM   24  O   UNL     1     -11.482  15.048  71.238  1.00  0.00    -0.370 OA 
HETATM   25  H   UNL     1     -11.066  15.488  70.505  1.00  0.00     0.000 HD 
ENDBRANCH  20  23
ENDBRANCH  19  20
ENDBRANCH  17  19
ENDBRANCH  14  17
ENDBRANCH   8  14
BRANCH  11  26
HETATM   26  C   UNL     1      -8.252   8.176  71.373  1.00  0.00    -0.120 C  
HETATM   27  O   UNL     1      -7.513   8.724  72.360  1.00  0.00    -0.324 OA 
HETATM   28  H   UNL     1      -7.021   8.117  72.901  1.00  0.00     0.000 HD 
BRANCH  26  29
HETATM   29  N   UNL     1      -8.223   6.914  71.156  1.00  0.00    -0.117 NA 
HETATM   30  H   UNL     1      -7.958   6.267  71.898  1.00  0.00     0.000 HD 
BRANCH  29  31
HETATM   31  C   UNL     1      -8.577   6.409  69.820  1.00  0.00    -0.138 C  
BRANCH  31  32
HETATM   32  C   UNL     1      -9.579   5.232  69.881  1.00  0.00    -0.177 C  
HETATM   33  O   UNL     1     -10.101   5.026  71.203  1.00  0.00    -0.204 OA 
HETATM   34  H   UNL     1     -10.716   4.302  71.241  1.00  0.00     0.000 HD 
BRANCH  32  35
HETATM   35  C   UNL     1     -10.766   5.494  68.938  1.00  0.00    -0.137 C  
HETATM   36  O   UNL     1     -10.947   6.884  68.663  1.00  0.00    -0.382 OA 
HETATM   37  H   UNL     1     -11.680   7.045  68.082  1.00  0.00     0.000 HD 
ENDBRANCH  32  35
ENDBRANCH  31  32
ENDBRANCH  29  31
ENDBRANCH  26  29
ENDBRANCH  11  26
ENDBRANCH   2   5
BRANCH   4  38
HETATM   38  C   UNL     1      -9.413   9.050  66.070  1.00  0.00    -0.256 C  
HETATM   39  O   UNL     1      -8.957   8.181  65.052  1.00  0.00    -0.393 OA 
HETATM   40  H   UNL     1      -9.464   7.378  65.025  1.00  0.00     0.000 HD 
ENDBRANCH   4  38
TORSDOF 12
ENDMDL
MODEL       48
REMARK 921   NORMALIZED FREE ENERGY PREDICTED BY IDOCK:   -4.62 KCAL/MOL
REMARK 922        TOTAL FREE ENERGY PREDICTED BY IDOCK:   -8.90 KCAL/MOL
REMARK 923 INTER-LIGAND FREE ENERGY PREDICTED BY IDOCK:   -7.88 KCAL/MOL
REMARK 924 INTRA-LIGAND FREE ENERGY PREDICTED BY IDOCK:   -1.02 KCAL/MOL
REMARK 927      BINDING AFFINITY PREDICTED BY RF-SCORE:    0.00 PKD
ROOT
HETATM    1  C   UNL     1     -11.127   8.478  70.085  1.00  0.00    -0.188 C  
HETATM    2  N   UNL     1      -9.803   8.877  69.617  1.00  0.00    -0.176 N  
HETATM    3  O   UNL     1      -8.940   9.039  71.743  1.00  0.00    -0.343 OA 
HETATM    4  C   UNL     1      -8.785   9.160  70.531  1.00  0.00    -0.221 C  
ENDROOT
BRANCH   2   5
HETATM    5  C   UNL     1      -9.631   8.938  68.198  1.00  0.00    -0.145 A  
HETATM    6  I   UNL     1      -8.990   5.937  68.613  1.00  0.00    -0.126 I  
HETATM    7  C   UNL     1      -9.969  10.123  67.496  1.00  0.00    -0.191 A  
HETATM    8  C   UNL     1      -9.742  10.212  66.107  1.00  0.00    -0.275 A  
HETATM    9  C   UNL     1      -9.121   7.812  67.500  1.00  0.00    -0.129 A  
HETATM   10  I   UNL     1     -10.871  11.747  68.614  1.00  0.00    -0.302 I  
HETATM   11  C   UNL     1      -8.813   7.898  66.118  1.00  0.00    -0.197 A  
HETATM   12  I   UNL     1      -8.234   9.474  63.480  1.00  0.00    -0.213 I  
HETATM   13  C   UNL     1      -9.082   9.127  65.452  1.00  0.00    -0.214 A  
BRANCH   8  14
HETATM   14  C   UNL     1     -10.323  11.322  65.288  1.00  0.00    -0.280 C  
HETATM   15  H   UNL     1     -11.895  11.813  64.215  1.00  0.00     0.000 HD 
HETATM   16  O   UNL     1     -11.527  11.108  64.735  1.00  0.00     0.005 OA 
BRANCH  14  17
HETATM   17  N   UNL     1      -9.695  12.424  65.112  1.00  0.00    -0.451 NA 
HETATM   18  H   UNL     1      -8.794  12.589  65.560  1.00  0.00     0.000 HD 
BRANCH  17  19
HETATM   19  C   UNL     1     -10.304  13.445  64.246  1.00  0.00    -0.226 C  
BRANCH  19  20
HETATM   20  C   UNL     1     -11.038  14.474  65.114  1.00  0.00    -0.370 C  
HETATM   21  H   UNL     1     -10.973  16.422  65.401  1.00  0.00     0.000 HD 
HETATM   22  O   UNL     1     -10.518  15.785  64.863  1.00  0.00    -0.499 OA 
BRANCH  20  23
HETATM   23  C   UNL     1     -12.554  14.438  64.856  1.00  0.00    -0.286 C  
HETATM   24  O   UNL     1     -13.266  13.914  65.976  1.00  0.00    -0.445 OA 
HETATM   25  H   UNL     1     -14.203  13.891  65.817  1.00  0.00     0.000 HD 
ENDBRANCH  20  23
ENDBRANCH  19  20
ENDBRANCH  17  19
ENDBRANCH  14  17
ENDBRANCH   8  14
BRANCH  11  26
HETATM   26  C   UNL     1      -8.227   6.706  65.416  1.00  0.00    -0.138 C  
HETATM   27  O   UNL     1      -6.888   6.563  65.506  1.00  0.00    -0.046 OA 
HETATM   28  H   UNL     1      -6.516   5.809  65.062  1.00  0.00     0.000 HD 
BRANCH  26  29
HETATM   29  N   UNL     1      -8.926   5.896  64.713  1.00  0.00    -0.356 NA 
HETATM   30  H   UNL     1      -9.571   6.248  64.006  1.00  0.00     0.000 HD 
BRANCH  29  31
HETATM   31  C   UNL     1      -8.786   4.448  64.938  1.00  0.00    -0.143 C  
BRANCH  31  32
HETATM   32  C   UNL     1      -9.221   3.616  63.709  1.00  0.00    -0.121 C  
HETATM   33  O   UNL     1      -8.905   2.222  63.852  1.00  0.00    -0.089 OA 
HETATM   34  H   UNL     1      -9.171   1.711  63.096  1.00  0.00     0.000 HD 
BRANCH  32  35
HETATM   35  C   UNL     1     -10.740   3.737  63.494  1.00  0.00    -0.205 C  
HETATM   36  O   UNL     1     -11.416   4.227  64.652  1.00  0.00    -0.921 OA 
HETATM   37  H   UNL     1     -12.354   4.302  64.519  1.00  0.00     0.000 HD 
ENDBRANCH  32  35
ENDBRANCH  31  32
ENDBRANCH  29  31
ENDBRANCH  26  29
ENDBRANCH  11  26
ENDBRANCH   2   5
BRANCH   4  38
HETATM   38  C   UNL     1      -7.438   9.664  69.982  1.00  0.00    -0.141 C  
HETATM   39  O   UNL     1      -7.263  11.048  70.222  1.00  0.00    -0.452 OA 
HETATM   40  H   UNL     1      -6.432  11.359  69.883  1.00  0.00     0.000 HD 
ENDBRANCH   4  38
TORSDOF 12
ENDMDL
MODEL       49
REMARK 921   NORMALIZED FREE ENERGY PREDICTED BY IDOCK:   -4.61 KCAL/MOL
REMARK 922        TOTAL FREE ENERGY PREDICTED BY IDOCK:   -8.88 KCAL/MOL
REMARK 923 INTER-LIGAND FREE ENERGY PREDICTED BY IDOCK:   -8.13 KCAL/MOL
REMARK 924 INTRA-LIGAND FREE ENERGY PREDICTED BY IDOCK:   -0.76 KCAL/MOL
REMARK 927      BINDING AFFINITY PREDICTED BY RF-SCORE:    0.00 PKD
ROOT
HETATM    1  C   UNL     1      -7.327   9.254  66.919  1.00  0.00    -0.090 C  
HETATM    2  N   UNL     1      -7.435   9.798  68.270  1.00  0.00    -0.080 N  
HETATM    3  O   UNL     1      -5.222  10.420  68.353  1.00  0.00    -0.035 OA 
HETATM    4  C   UNL     1      -6.314  10.337  68.908  1.00  0.00    -0.047 C  
ENDROOT
BRANCH   2   5
HETATM    5  C   UNL     1      -8.737   9.755  68.862  1.00  0.00    -0.136 A  
HETATM    6  I   UNL     1      -8.961  12.505  67.457  1.00  0.00    -0.218 I  
HETATM    7  C   UNL     1      -9.175   8.575  69.516  1.00  0.00    -0.150 A  
HETATM    8  C   UNL     1     -10.431   8.546  70.157  1.00  0.00    -0.226 A  
HETATM    9  C   UNL     1      -9.582  10.893  68.795  1.00  0.00    -0.189 A  
HETATM   10  I   UNL     1      -7.882   6.836  69.454  1.00  0.00    -0.117 I  
HETATM   11  C   UNL     1     -10.816  10.919  69.493  1.00  0.00    -0.286 A  
HETATM   12  I   UNL     1     -12.827   9.873  71.648  1.00  0.00    -0.572 I  
HETATM   13  C   UNL     1     -11.197   9.751  70.213  1.00  0.00    -0.288 A  
BRANCH   8  14
HETATM   14  C   UNL     1     -11.045   7.261  70.619  1.00  0.00    -0.264 C  
HETATM   15  H   UNL     1     -12.102   5.725  69.999  1.00  0.00     0.000 HD 
HETATM   16  O   UNL     1     -11.713   6.540  69.705  1.00  0.00    -0.382 OA 
BRANCH  14  17
HETATM   17  N   UNL     1     -10.950   6.873  71.835  1.00  0.00    -0.230 NA 
HETATM   18  H   UNL     1     -10.423   7.418  72.518  1.00  0.00     0.000 HD 
BRANCH  17  19
HETATM   19  C   UNL     1     -11.618   5.621  72.224  1.00  0.00    -0.181 C  
BRANCH  19  20
HETATM   20  C   UNL     1     -10.605   4.697  72.909  1.00  0.00    -0.212 C  
HETATM   21  H   UNL     1     -10.663   3.131  74.104  1.00  0.00     0.000 HD 
HETATM   22  O   UNL     1     -11.291   3.704  73.679  1.00  0.00    -0.223 OA 
BRANCH  20  23
HETATM   23  C   UNL     1      -9.675   4.032  71.879  1.00  0.00    -0.167 C  
HETATM   24  O   UNL     1     -10.219   4.094  70.561  1.00  0.00    -0.088 OA 
HETATM   25  H   UNL     1      -9.645   3.683  69.925  1.00  0.00     0.000 HD 
ENDBRANCH  20  23
ENDBRANCH  19  20
ENDBRANCH  17  19
ENDBRANCH  14  17
ENDBRANCH   8  14
BRANCH  11  26
HETATM   26  C   UNL     1     -11.667  12.156  69.444  1.00  0.00    -0.329 C  
HETATM   27  O   UNL     1     -12.370  12.350  68.309  1.00  0.00    -0.170 OA 
HETATM   28  H   UNL     1     -12.908  13.132  68.278  1.00  0.00     0.000 HD 
BRANCH  26  29
HETATM   29  N   UNL     1     -11.690  13.025  70.386  1.00  0.00    -0.540 NA 
HETATM   30  H   UNL     1     -11.140  12.884  71.233  1.00  0.00     0.000 HD 
BRANCH  29  31
HETATM   31  C   UNL     1     -12.520  14.229  70.227  1.00  0.00    -0.361 C  
BRANCH  31  32
HETATM   32  C   UNL     1     -13.404  14.503  71.466  1.00  0.00    -0.362 C  
HETATM   33  O   UNL     1     -13.590  13.331  72.276  1.00  0.00    -0.536 OA 
HETATM   34  H   UNL     1     -14.133  13.499  73.038  1.00  0.00     0.000 HD 
BRANCH  32  35
HETATM   35  C   UNL     1     -12.765  15.590  72.347  1.00  0.00    -0.397 C  
HETATM   36  O   UNL     1     -13.681  16.128  73.300  1.00  0.00    -0.698 OA 
HETATM   37  H   UNL     1     -13.286  16.800  73.843  1.00  0.00     0.000 HD 
ENDBRANCH  32  35
ENDBRANCH  31  32
ENDBRANCH  29  31
ENDBRANCH  26  29
ENDBRANCH  11  26
ENDBRANCH   2   5
BRANCH   4  38
HETATM   38  C   UNL     1      -6.468  10.811  70.364  1.00  0.00    -0.074 C  
HETATM   39  O   UNL     1      -6.501  12.223  70.451  1.00  0.00    -0.478 OA 
HETATM   40  H   UNL     1      -6.596  12.516  71.351  1.00  0.00     0.000 HD 
ENDBRANCH   4  38
TORSDOF 12
ENDMDL
MODEL       50
REMARK 921   NORMALIZED FREE ENERGY PREDICTED BY IDOCK:   -4.61 KCAL/MOL
REMARK 922        TOTAL FREE ENERGY PREDICTED BY IDOCK:   -8.88 KCAL/MOL
REMARK 923 INTER-LIGAND FREE ENERGY PREDICTED BY IDOCK:   -8.02 KCAL/MOL
REMARK 924 INTRA-LIGAND FREE ENERGY PREDICTED BY IDOCK:   -0.86 KCAL/MOL
REMARK 927      BINDING AFFINITY PREDICTED BY RF-SCORE:    0.00 PKD
ROOT
HETATM    1  C   UNL     1      -8.009   6.100  66.443  1.00  0.00    -0.106 C  
HETATM    2  N   UNL     1      -7.463   7.336  66.994  1.00  0.00    -0.102 N  
HETATM    3  O   UNL     1      -5.284   6.616  66.835  1.00  0.00    -0.011 OA 
HETATM    4  C   UNL     1      -6.085   7.484  67.173  1.00  0.00    -0.051 C  
ENDROOT
BRANCH   2   5
HETATM    5  C   UNL     1      -8.414   8.358  67.309  1.00  0.00    -0.124 A  
HETATM    6  I   UNL     1      -8.054   8.977  64.297  1.00  0.00    -0.165 I  
HETATM    7  C   UNL     1      -9.017   8.388  68.593  1.00  0.00    -0.140 A  
HETATM    8  C   UNL     1      -9.907   9.428  68.933  1.00  0.00    -0.176 A  
HETATM    9  C   UNL     1      -8.749   9.335  66.337  1.00  0.00    -0.132 A  
HETATM   10  I   UNL     1      -8.558   6.780  69.972  1.00  0.00    -0.141 I  
HETATM   11  C   UNL     1      -9.582  10.433  66.673  1.00  0.00    -0.219 A  
HETATM   12  I   UNL     1     -11.005  12.338  68.705  1.00  0.00    -0.248 I  
HETATM   13  C   UNL     1     -10.108  10.488  67.995  1.00  0.00    -0.165 A  
BRANCH   8  14
HETATM   14  C   UNL     1     -10.764   9.357  70.158  1.00  0.00    -0.243 C  
HETATM   15  H   UNL     1     -10.699   9.487  72.118  1.00  0.00     0.000 HD 
HETATM   16  O   UNL     1     -10.155   9.532  71.341  1.00  0.00    -0.258 OA 
BRANCH  14  17
HETATM   17  N   UNL     1     -12.021   9.127  70.083  1.00  0.00    -0.443 NA 
HETATM   18  H   UNL     1     -12.550   9.379  69.247  1.00  0.00     0.000 HD 
BRANCH  17  19
HETATM   19  C   UNL     1     -12.685   8.492  71.231  1.00  0.00    -0.201 C  
BRANCH  19  20
HETATM   20  C   UNL     1     -12.639   6.968  71.064  1.00  0.00    -0.288 C  
HETATM   21  H   UNL     1     -12.118   5.689  69.659  1.00  0.00     0.000 HD 
HETATM   22  O   UNL     1     -12.146   6.633  69.763  1.00  0.00    -0.165 OA 
BRANCH  20  23
HETATM   23  C   UNL     1     -11.770   6.316  72.154  1.00  0.00    -0.319 C  
HETATM   24  O   UNL     1     -11.312   7.275  73.106  1.00  0.00    -0.546 OA 
HETATM   25  H   UNL     1     -10.775   6.873  73.779  1.00  0.00     0.000 HD 
ENDBRANCH  20  23
ENDBRANCH  19  20
ENDBRANCH  17  19
ENDBRANCH  14  17
ENDBRANCH   8  14
BRANCH  11  26
HETATM   26  C   UNL     1      -9.878  11.480  65.638  1.00  0.00    -0.236 C  
HETATM   27  O   UNL     1      -9.054  12.548  65.620  1.00  0.00    -0.427 OA 
HETATM   28  H   UNL     1      -9.241  13.211  64.965  1.00  0.00     0.000 HD 
BRANCH  26  29
HETATM   29  N   UNL     1     -10.887  11.419  64.851  1.00  0.00    -0.284 NA 
HETATM   30  H   UNL     1     -11.663  10.789  65.053  1.00  0.00     0.000 HD 
BRANCH  29  31
HETATM   31  C   UNL     1     -10.911  12.269  63.650  1.00  0.00    -0.469 C  
BRANCH  31  32
HETATM   32  C   UNL     1     -12.228  13.070  63.522  1.00  0.00    -0.501 C  
HETATM   33  O   UNL     1     -13.381  12.289  63.874  1.00  0.00    -0.657 OA 
HETATM   34  H   UNL     1     -14.190  12.780  63.795  1.00  0.00     0.000 HD 
BRANCH  32  35
HETATM   35  C   UNL     1     -12.193  14.303  64.441  1.00  0.00    -0.447 C  
HETATM   36  O   UNL     1     -13.092  14.186  65.544  1.00  0.00    -0.691 OA 
HETATM   37  H   UNL     1     -13.071  14.947  66.111  1.00  0.00     0.000 HD 
ENDBRANCH  32  35
ENDBRANCH  31  32
ENDBRANCH  29  31
ENDBRANCH  26  29
ENDBRANCH  11  26
ENDBRANCH   2   5
BRANCH   4  38
HETATM   38  C   UNL     1      -5.575   8.772  67.844  1.00  0.00    -0.035 C  
HETATM   39  O   UNL     1      -5.366   8.589  69.231  1.00  0.00    -0.030 OA 
HETATM   40  H   UNL     1      -5.051   9.385  69.645  1.00  0.00     0.000 HD 
ENDBRANCH   4  38
TORSDOF 12
ENDMDL
MODEL       51
REMARK 921   NORMALIZED FREE ENERGY PREDICTED BY IDOCK:   -4.61 KCAL/MOL
REMARK 922        TOTAL FREE ENERGY PREDICTED BY IDOCK:   -8.88 KCAL/MOL
REMARK 923 INTER-LIGAND FREE ENERGY PREDICTED BY IDOCK:   -8.55 KCAL/MOL
REMARK 924 INTRA-LIGAND FREE ENERGY PREDICTED BY IDOCK:   -0.32 KCAL/MOL
REMARK 927      BINDING AFFINITY PREDICTED BY RF-SCORE:    0.00 PKD
ROOT
HETATM    1  C   UNL     1      -9.431  13.757  65.631  1.00  0.00     0.104 C  
HETATM    2  N   UNL     1     -10.252  12.598  65.293  1.00  0.00    -0.289 N  
HETATM    3  O   UNL     1     -11.585  13.784  63.840  1.00  0.00    -0.327 OA 
HETATM    4  C   UNL     1     -11.323  12.724  64.403  1.00  0.00    -0.347 C  
ENDROOT
BRANCH   2   5
HETATM    5  C   UNL     1      -9.877  11.361  65.907  1.00  0.00    -0.226 A  
HETATM    6  I   UNL     1     -11.657  12.483  68.178  1.00  0.00    -0.356 I  
HETATM    7  C   UNL     1      -9.150  10.396  65.164  1.00  0.00    -0.198 A  
HETATM    8  C   UNL     1      -8.722   9.203  65.781  1.00  0.00    -0.192 A  
HETATM    9  C   UNL     1     -10.233  11.107  67.257  1.00  0.00    -0.193 A  
HETATM   10  I   UNL     1      -8.768  10.801  63.068  1.00  0.00    -0.159 I  
HETATM   11  C   UNL     1      -9.753   9.951  67.925  1.00  0.00    -0.162 A  
HETATM   12  I   UNL     1      -7.830   7.505  68.240  1.00  0.00    -0.125 I  
HETATM   13  C   UNL     1      -8.954   9.037  67.182  1.00  0.00    -0.130 A  
BRANCH   8  14
HETATM   14  C   UNL     1      -8.197   8.052  64.981  1.00  0.00    -0.141 C  
HETATM   15  H   UNL     1      -6.630   7.445  63.961  1.00  0.00     0.000 HD 
HETATM   16  O   UNL     1      -6.963   8.176  64.468  1.00  0.00    -0.072 OA 
BRANCH  14  17
HETATM   17  N   UNL     1      -8.898   6.999  64.783  1.00  0.00    -0.218 NA 
HETATM   18  H   UNL     1      -9.891   6.980  65.018  1.00  0.00     0.000 HD 
BRANCH  17  19
HETATM   19  C   UNL     1      -8.237   5.816  64.210  1.00  0.00    -0.106 C  
BRANCH  19  20
HETATM   20  C   UNL     1      -8.983   4.552  64.655  1.00  0.00    -0.152 C  
HETATM   21  H   UNL     1      -8.508   2.769  65.344  1.00  0.00     0.000 HD 
HETATM   22  O   UNL     1      -8.046   3.552  65.068  1.00  0.00    -0.089 OA 
BRANCH  20  23
HETATM   23  C   UNL     1      -9.974   4.864  65.790  1.00  0.00    -0.170 C  
HETATM   24  O   UNL     1     -11.328   4.723  65.361  1.00  0.00    -0.950 OA 
HETATM   25  H   UNL     1     -11.940   4.915  66.062  1.00  0.00     0.000 HD 
ENDBRANCH  20  23
ENDBRANCH  19  20
ENDBRANCH  17  19
ENDBRANCH  14  17
ENDBRANCH   8  14
BRANCH  11  26
HETATM   26  C   UNL     1     -10.104   9.734  69.369  1.00  0.00    -0.209 C  
HETATM   27  O   UNL     1      -9.194  10.156  70.272  1.00  0.00    -0.366 OA 
HETATM   28  H   UNL     1      -9.415  10.018  71.186  1.00  0.00     0.000 HD 
BRANCH  26  29
HETATM   29  N   UNL     1     -11.167   9.127  69.746  1.00  0.00    -0.420 NA 
HETATM   30  H   UNL     1     -11.736   8.613  69.073  1.00  0.00     0.000 HD 
BRANCH  29  31
HETATM   31  C   UNL     1     -11.557   9.180  71.164  1.00  0.00    -0.317 C  
BRANCH  31  32
HETATM   32  C   UNL     1     -13.004   9.692  71.358  1.00  0.00    -0.385 C  
HETATM   33  O   UNL     1     -13.605  10.117  70.125  1.00  0.00    -0.394 OA 
HETATM   34  H   UNL     1     -14.493  10.432  70.244  1.00  0.00     0.000 HD 
BRANCH  32  35
HETATM   35  C   UNL     1     -13.885   8.582  71.956  1.00  0.00    -0.419 C  
HETATM   36  O   UNL     1     -14.175   8.801  73.337  1.00  0.00    -1.173 OA 
HETATM   37  H   UNL     1     -14.719   8.116  73.706  1.00  0.00     0.000 HD 
ENDBRANCH  32  35
ENDBRANCH  31  32
ENDBRANCH  29  31
ENDBRANCH  26  29
ENDBRANCH  11  26
ENDBRANCH   2   5
BRANCH   4  38
HETATM   38  C   UNL     1     -12.208  11.490  64.155  1.00  0.00     0.119 C  
HETATM   39  O   UNL     1     -13.435  11.843  63.545  1.00  0.00    -0.493 OA 
HETATM   40  H   UNL     1     -13.981  11.081  63.392  1.00  0.00     0.000 HD 
ENDBRANCH   4  38
TORSDOF 12
ENDMDL
MODEL       52
REMARK 921   NORMALIZED FREE ENERGY PREDICTED BY IDOCK:   -4.61 KCAL/MOL
REMARK 922        TOTAL FREE ENERGY PREDICTED BY IDOCK:   -8.88 KCAL/MOL
REMARK 923 INTER-LIGAND FREE ENERGY PREDICTED BY IDOCK:   -8.28 KCAL/MOL
REMARK 924 INTRA-LIGAND FREE ENERGY PREDICTED BY IDOCK:   -0.60 KCAL/MOL
REMARK 927      BINDING AFFINITY PREDICTED BY RF-SCORE:    0.00 PKD
ROOT
HETATM    1  C   UNL     1      -8.650  12.991  66.679  1.00  0.00     0.040 C  
HETATM    2  N   UNL     1      -9.635  12.045  66.160  1.00  0.00    -0.237 N  
HETATM    3  O   UNL     1     -10.209  13.393  64.386  1.00  0.00    -0.401 OA 
HETATM    4  C   UNL     1     -10.380  12.355  65.019  1.00  0.00    -0.293 C  
ENDROOT
BRANCH   2   5
HETATM    5  C   UNL     1      -9.760  10.812  66.874  1.00  0.00    -0.178 A  
HETATM    6  I   UNL     1      -7.694   9.908  64.753  1.00  0.00    -0.134 I  
HETATM    7  C   UNL     1     -10.517  10.765  68.073  1.00  0.00    -0.194 A  
HETATM    8  C   UNL     1     -10.698   9.541  68.748  1.00  0.00    -0.218 A  
HETATM    9  C   UNL     1      -9.127   9.642  66.381  1.00  0.00    -0.156 A  
HETATM   10  I   UNL     1     -11.336  12.623  68.834  1.00  0.00    -0.363 I  
HETATM   11  C   UNL     1      -9.351   8.384  66.996  1.00  0.00    -0.202 A  
HETATM   12  I   UNL     1     -10.926   6.433  68.866  1.00  0.00    -0.278 I  
HETATM   13  C   UNL     1     -10.185   8.349  68.150  1.00  0.00    -0.208 A  
BRANCH   8  14
HETATM   14  C   UNL     1     -11.251   9.487  70.138  1.00  0.00    -0.234 C  
HETATM   15  H   UNL     1     -12.928   9.607  71.157  1.00  0.00     0.000 HD 
HETATM   16  O   UNL     1     -12.577   9.642  70.275  1.00  0.00     0.052 OA 
BRANCH  14  17
HETATM   17  N   UNL     1     -10.492   9.314  71.154  1.00  0.00    -0.309 NA 
HETATM   18  H   UNL     1      -9.553   9.711  71.179  1.00  0.00     0.000 HD 
BRANCH  17  19
HETATM   19  C   UNL     1     -11.008   8.529  72.286  1.00  0.00    -0.355 C  
BRANCH  19  20
HETATM   20  C   UNL     1     -10.238   7.206  72.380  1.00  0.00    -0.189 C  
HETATM   21  H   UNL     1      -8.767   6.471  73.465  1.00  0.00     0.000 HD 
HETATM   22  O   UNL     1      -9.244   7.291  73.407  1.00  0.00    -0.150 OA 
BRANCH  20  23
HETATM   23  C   UNL     1     -11.189   6.027  72.646  1.00  0.00    -0.285 C  
HETATM   24  O   UNL     1     -12.538   6.353  72.315  1.00  0.00    -0.547 OA 
HETATM   25  H   UNL     1     -13.126   5.625  72.480  1.00  0.00     0.000 HD 
ENDBRANCH  20  23
ENDBRANCH  19  20
ENDBRANCH  17  19
ENDBRANCH  14  17
ENDBRANCH   8  14
BRANCH  11  26
HETATM   26  C   UNL     1      -8.708   7.155  66.421  1.00  0.00    -0.139 C  
HETATM   27  O   UNL     1      -7.448   6.898  66.828  1.00  0.00    -0.079 OA 
HETATM   28  H   UNL     1      -7.040   6.120  66.464  1.00  0.00     0.000 HD 
BRANCH  26  29
HETATM   29  N   UNL     1      -9.278   6.413  65.545  1.00  0.00    -0.366 NA 
HETATM   30  H   UNL     1     -10.214   6.637  65.207  1.00  0.00     0.000 HD 
BRANCH  29  31
HETATM   31  C   UNL     1      -8.562   5.235  65.032  1.00  0.00    -0.150 C  
BRANCH  31  32
HETATM   32  C   UNL     1      -9.367   3.928  65.223  1.00  0.00    -0.159 C  
HETATM   33  O   UNL     1      -9.800   3.745  66.580  1.00  0.00    -0.364 OA 
HETATM   34  H   UNL     1     -10.295   2.942  66.697  1.00  0.00     0.000 HD 
BRANCH  32  35
HETATM   35  C   UNL     1     -10.615   3.935  64.324  1.00  0.00    -0.223 C  
HETATM   36  O   UNL     1     -11.750   4.510  64.972  1.00  0.00    -1.044 OA 
HETATM   37  H   UNL     1     -12.520   4.515  64.417  1.00  0.00     0.000 HD 
ENDBRANCH  32  35
ENDBRANCH  31  32
ENDBRANCH  29  31
ENDBRANCH  26  29
ENDBRANCH  11  26
ENDBRANCH   2   5
BRANCH   4  38
HETATM   38  C   UNL     1     -11.467  11.361  64.572  1.00  0.00    -0.051 C  
HETATM   39  O   UNL     1     -11.656  11.391  63.170  1.00  0.00    -0.862 OA 
HETATM   40  H   UNL     1     -12.327  10.778  62.894  1.00  0.00     0.000 HD 
ENDBRANCH   4  38
TORSDOF 12
ENDMDL
MODEL       53
REMARK 921   NORMALIZED FREE ENERGY PREDICTED BY IDOCK:   -4.60 KCAL/MOL
REMARK 922        TOTAL FREE ENERGY PREDICTED BY IDOCK:   -8.87 KCAL/MOL
REMARK 923 INTER-LIGAND FREE ENERGY PREDICTED BY IDOCK:   -8.64 KCAL/MOL
REMARK 924 INTRA-LIGAND FREE ENERGY PREDICTED BY IDOCK:   -0.23 KCAL/MOL
REMARK 927      BINDING AFFINITY PREDICTED BY RF-SCORE:    0.00 PKD
ROOT
HETATM    1  C   UNL     1      -6.528  11.896  67.451  1.00  0.00    -0.126 C  
HETATM    2  N   UNL     1      -7.722  11.108  67.161  1.00  0.00    -0.128 N  
HETATM    3  O   UNL     1      -6.934  10.397  65.120  1.00  0.00    -0.133 OA 
HETATM    4  C   UNL     1      -7.836  10.415  65.953  1.00  0.00    -0.148 C  
ENDROOT
BRANCH   2   5
HETATM    5  C   UNL     1      -8.725  11.088  68.181  1.00  0.00    -0.141 A  
HETATM    6  I   UNL     1      -7.028   8.688  69.154  1.00  0.00    -0.065 I  
HETATM    7  C   UNL     1      -9.684  12.131  68.248  1.00  0.00    -0.216 A  
HETATM    8  C   UNL     1     -10.713  12.085  69.211  1.00  0.00    -0.063 A  
HETATM    9  C   UNL     1      -8.756  10.024  69.119  1.00  0.00    -0.167 A  
HETATM   10  I   UNL     1      -9.483  13.790  66.867  1.00  0.00    -0.263 I  
HETATM   11  C   UNL     1      -9.821   9.912  70.050  1.00  0.00    -0.291 A  
HETATM   12  I   UNL     1     -12.684  10.590  71.110  1.00  0.00    -0.535 I  
HETATM   13  C   UNL     1     -10.819  10.927  70.042  1.00  0.00    -0.072 A  
BRANCH   8  14
HETATM   14  C   UNL     1     -11.574  13.276  69.495  1.00  0.00    -0.286 C  
HETATM   15  H   UNL     1     -12.798  14.557  68.643  1.00  0.00     0.000 HD 
HETATM   16  O   UNL     1     -12.251  13.801  68.462  1.00  0.00    -0.348 OA 
BRANCH  14  17
HETATM   17  N   UNL     1     -11.653  13.780  70.669  1.00  0.00    -0.514 NA 
HETATM   18  H   UNL     1     -11.943  13.211  71.465  1.00  0.00     0.000 HD 
BRANCH  17  19
HETATM   19  C   UNL     1     -11.314  15.201  70.844  1.00  0.00    -0.307 C  
BRANCH  19  20
HETATM   20  C   UNL     1     -12.335  15.855  71.782  1.00  0.00    -0.468 C  
HETATM   21  H   UNL     1     -14.292  16.075  71.852  1.00  0.00     0.000 HD 
HETATM   22  O   UNL     1     -13.659  15.669  71.270  1.00  0.00    -0.546 OA 
BRANCH  20  23
HETATM   23  C   UNL     1     -12.224  15.285  73.207  1.00  0.00    -0.463 C  
HETATM   24  O   UNL     1     -13.142  15.915  74.100  1.00  0.00    -0.852 OA 
HETATM   25  H   UNL     1     -13.073  15.562  74.979  1.00  0.00     0.000 HD 
ENDBRANCH  20  23
ENDBRANCH  19  20
ENDBRANCH  17  19
ENDBRANCH  14  17
ENDBRANCH   8  14
BRANCH  11  26
HETATM   26  C   UNL     1      -9.855   8.747  70.997  1.00  0.00    -0.230 C  
HETATM   27  O   UNL     1      -9.215   8.919  72.173  1.00  0.00    -0.364 OA 
HETATM   28  H   UNL     1      -9.236   8.182  72.773  1.00  0.00     0.000 HD 
BRANCH  26  29
HETATM   29  N   UNL     1     -10.396   7.623  70.704  1.00  0.00    -0.204 NA 
HETATM   30  H   UNL     1     -10.179   7.159  69.823  1.00  0.00     0.000 HD 
BRANCH  29  31
HETATM   31  C   UNL     1     -11.335   7.011  71.657  1.00  0.00    -0.257 C  
BRANCH  31  32
HETATM   32  C   UNL     1     -10.701   5.835  72.436  1.00  0.00    -0.235 C  
HETATM   33  O   UNL     1      -9.342   5.587  72.044  1.00  0.00    -0.147 OA 
HETATM   34  H   UNL     1      -8.953   4.864  72.522  1.00  0.00     0.000 HD 
BRANCH  32  35
HETATM   35  C   UNL     1     -10.713   6.128  73.946  1.00  0.00    -0.115 C  
HETATM   36  O   UNL     1     -10.477   7.507  74.234  1.00  0.00    -0.336 OA 
HETATM   37  H   UNL     1     -10.484   7.688  75.167  1.00  0.00     0.000 HD 
ENDBRANCH  32  35
ENDBRANCH  31  32
ENDBRANCH  29  31
ENDBRANCH  26  29
ENDBRANCH  11  26
ENDBRANCH   2   5
BRANCH   4  38
HETATM   38  C   UNL     1      -9.156   9.678  65.662  1.00  0.00    -0.189 C  
HETATM   39  O   UNL     1      -9.051   8.854  64.517  1.00  0.00    -0.434 OA 
HETATM   40  H   UNL     1      -9.866   8.398  64.338  1.00  0.00     0.000 HD 
ENDBRANCH   4  38
TORSDOF 12
ENDMDL
MODEL       54
REMARK 921   NORMALIZED FREE ENERGY PREDICTED BY IDOCK:   -4.60 KCAL/MOL
REMARK 922        TOTAL FREE ENERGY PREDICTED BY IDOCK:   -8.86 KCAL/MOL
REMARK 923 INTER-LIGAND FREE ENERGY PREDICTED BY IDOCK:   -7.57 KCAL/MOL
REMARK 924 INTRA-LIGAND FREE ENERGY PREDICTED BY IDOCK:   -1.29 KCAL/MOL
REMARK 927      BINDING AFFINITY PREDICTED BY RF-SCORE:    0.00 PKD
ROOT
HETATM    1  C   UNL     1     -12.515   6.718  71.107  1.00  0.00    -0.298 C  
HETATM    2  N   UNL     1     -11.260   7.425  71.342  1.00  0.00    -0.243 N  
HETATM    3  O   UNL     1     -11.190   6.858  73.571  1.00  0.00    -0.098 OA 
HETATM    4  C   UNL     1     -10.693   7.455  72.620  1.00  0.00    -0.288 C  
ENDROOT
BRANCH   2   5
HETATM    5  C   UNL     1     -10.666   8.049  70.200  1.00  0.00    -0.244 A  
HETATM    6  I   UNL     1     -12.217  10.490  71.305  1.00  0.00    -0.320 I  
HETATM    7  C   UNL     1      -9.712   7.341  69.426  1.00  0.00    -0.161 A  
HETATM    8  C   UNL     1      -9.170   7.926  68.262  1.00  0.00    -0.137 A  
HETATM    9  C   UNL     1     -11.036   9.373  69.846  1.00  0.00    -0.200 A  
HETATM   10  I   UNL     1      -9.097   5.378  70.112  1.00  0.00    -0.198 I  
HETATM   11  C   UNL     1     -10.566   9.958  68.643  1.00  0.00    -0.244 A  
HETATM   12  I   UNL     1      -9.275   9.832  65.797  1.00  0.00    -0.310 I  
HETATM   13  C   UNL     1      -9.673   9.194  67.838  1.00  0.00    -0.154 A  
BRANCH   8  14
HETATM   14  C   UNL     1      -7.978   7.339  67.573  1.00  0.00    -0.113 C  
HETATM   15  H   UNL     1      -6.014   7.279  67.632  1.00  0.00     0.000 HD 
HETATM   16  O   UNL     1      -6.770   7.651  68.069  1.00  0.00    -0.059 OA 
BRANCH  14  17
HETATM   17  N   UNL     1      -8.102   6.583  66.548  1.00  0.00    -0.109 NA 
HETATM   18  H   UNL     1      -8.415   6.962  65.654  1.00  0.00     0.000 HD 
BRANCH  17  19
HETATM   19  C   UNL     1      -7.783   5.154  66.690  1.00  0.00    -0.092 C  
BRANCH  19  20
HETATM   20  C   UNL     1      -8.855   4.321  65.976  1.00  0.00    -0.119 C  
HETATM   21  H   UNL     1      -9.960   2.743  66.386  1.00  0.00     0.000 HD 
HETATM   22  O   UNL     1      -9.296   3.259  66.829  1.00  0.00    -0.178 OA 
BRANCH  20  23
HETATM   23  C   UNL     1     -10.044   5.198  65.548  1.00  0.00     0.091 C  
HETATM   24  O   UNL     1     -10.976   5.379  66.614  1.00  0.00    -0.498 OA 
HETATM   25  H   UNL     1     -11.711   5.920  66.349  1.00  0.00     0.000 HD 
ENDBRANCH  20  23
ENDBRANCH  19  20
ENDBRANCH  17  19
ENDBRANCH  14  17
ENDBRANCH   8  14
BRANCH  11  26
HETATM   26  C   UNL     1     -11.014  11.341  68.269  1.00  0.00    -0.224 C  
HETATM   27  O   UNL     1     -12.120  11.420  67.499  1.00  0.00    -0.592 OA 
HETATM   28  H   UNL     1     -12.404  12.295  67.262  1.00  0.00     0.000 HD 
BRANCH  26  29
HETATM   29  N   UNL     1     -10.366  12.398  68.593  1.00  0.00    -0.324 NA 
HETATM   30  H   UNL     1      -9.991  12.506  69.535  1.00  0.00     0.000 HD 
BRANCH  29  31
HETATM   31  C   UNL     1     -10.169  13.453  67.587  1.00  0.00    -0.228 C  
BRANCH  31  32
HETATM   32  C   UNL     1     -10.949  14.744  67.927  1.00  0.00    -0.278 C  
HETATM   33  O   UNL     1     -12.346  14.497  68.153  1.00  0.00    -0.596 OA 
HETATM   34  H   UNL     1     -12.825  15.291  68.361  1.00  0.00     0.000 HD 
BRANCH  32  35
HETATM   35  C   UNL     1     -10.372  15.396  69.196  1.00  0.00    -0.240 C  
HETATM   36  O   UNL     1     -10.745  14.697  70.384  1.00  0.00    -0.477 OA 
HETATM   37  H   UNL     1     -10.389  15.100  71.168  1.00  0.00     0.000 HD 
ENDBRANCH  32  35
ENDBRANCH  31  32
ENDBRANCH  29  31
ENDBRANCH  26  29
ENDBRANCH  11  26
ENDBRANCH   2   5
BRANCH   4  38
HETATM   38  C   UNL     1      -9.418   8.293  72.827  1.00  0.00    -0.273 C  
HETATM   39  O   UNL     1      -8.902   8.140  74.136  1.00  0.00    -0.370 OA 
HETATM   40  H   UNL     1      -8.115   8.657  74.264  1.00  0.00     0.000 HD 
ENDBRANCH   4  38
TORSDOF 12
ENDMDL
MODEL       55
REMARK 921   NORMALIZED FREE ENERGY PREDICTED BY IDOCK:   -4.59 KCAL/MOL
REMARK 922        TOTAL FREE ENERGY PREDICTED BY IDOCK:   -8.85 KCAL/MOL
REMARK 923 INTER-LIGAND FREE ENERGY PREDICTED BY IDOCK:   -7.94 KCAL/MOL
REMARK 924 INTRA-LIGAND FREE ENERGY PREDICTED BY IDOCK:   -0.91 KCAL/MOL
REMARK 927      BINDING AFFINITY PREDICTED BY RF-SCORE:    0.00 PKD
ROOT
HETATM    1  C   UNL     1      -6.293  10.413  67.957  1.00  0.00    -0.059 C  
HETATM    2  N   UNL     1      -7.378   9.439  67.875  1.00  0.00    -0.083 N  
HETATM    3  O   UNL     1      -6.416   8.297  66.126  1.00  0.00    -0.049 OA 
HETATM    4  C   UNL     1      -7.355   8.434  66.905  1.00  0.00    -0.083 C  
ENDROOT
BRANCH   2   5
HETATM    5  C   UNL     1      -8.422   9.580  68.843  1.00  0.00    -0.123 A  
HETATM    6  I   UNL     1      -6.446   7.902  70.536  1.00  0.00    -0.037 I  
HETATM    7  C   UNL     1      -9.528  10.426  68.572  1.00  0.00    -0.159 A  
HETATM    8  C   UNL     1     -10.591  10.520  69.493  1.00  0.00    -0.278 A  
HETATM    9  C   UNL     1      -8.348   8.870  70.070  1.00  0.00    -0.133 A  
HETATM   10  I   UNL     1      -9.498  11.582  66.738  1.00  0.00    -0.228 I  
HETATM   11  C   UNL     1      -9.435   8.886  70.981  1.00  0.00    -0.318 A  
HETATM   12  I   UNL     1     -12.421   9.399  71.755  1.00  0.00    -0.471 I  
HETATM   13  C   UNL     1     -10.571   9.677  70.647  1.00  0.00    -0.319 A  
BRANCH   8  14
HETATM   14  C   UNL     1     -11.633  11.588  69.381  1.00  0.00    -0.321 C  
HETATM   15  H   UNL     1     -13.317  12.037  68.472  1.00  0.00     0.000 HD 
HETATM   16  O   UNL     1     -12.656  11.359  68.543  1.00  0.00    -0.205 OA 
BRANCH  14  17
HETATM   17  N   UNL     1     -11.547  12.679  70.045  1.00  0.00    -0.531 NA 
HETATM   18  H   UNL     1     -11.308  12.670  71.037  1.00  0.00     0.000 HD 
BRANCH  17  19
HETATM   19  C   UNL     1     -11.803  13.947  69.343  1.00  0.00    -0.334 C  
BRANCH  19  20
HETATM   20  C   UNL     1     -11.428  15.119  70.258  1.00  0.00    -0.282 C  
HETATM   21  H   UNL     1     -10.546  16.870  70.066  1.00  0.00     0.000 HD 
HETATM   22  O   UNL     1     -10.779  16.144  69.499  1.00  0.00    -0.265 OA 
BRANCH  20  23
HETATM   23  C   UNL     1     -12.667  15.681  70.975  1.00  0.00    -0.460 C  
HETATM   24  O   UNL     1     -13.818  14.867  70.755  1.00  0.00    -0.624 OA 
HETATM   25  H   UNL     1     -14.584  15.215  71.197  1.00  0.00     0.000 HD 
ENDBRANCH  20  23
ENDBRANCH  19  20
ENDBRANCH  17  19
ENDBRANCH  14  17
ENDBRANCH   8  14
BRANCH  11  26
HETATM   26  C   UNL     1      -9.349   8.084  72.248  1.00  0.00    -0.197 C  
HETATM   27  O   UNL     1      -8.805   8.711  73.312  1.00  0.00    -0.323 OA 
HETATM   28  H   UNL     1      -8.750   8.204  74.114  1.00  0.00     0.000 HD 
BRANCH  26  29
HETATM   29  N   UNL     1      -9.703   6.855  72.323  1.00  0.00    -0.148 NA 
HETATM   30  H   UNL     1      -9.656   6.252  71.502  1.00  0.00     0.000 HD 
BRANCH  29  31
HETATM   31  C   UNL     1     -10.179   6.325  73.611  1.00  0.00    -0.257 C  
BRANCH  31  32
HETATM   32  C   UNL     1     -11.153   5.136  73.434  1.00  0.00    -0.320 C  
HETATM   33  O   UNL     1     -12.404   5.535  72.852  1.00  0.00    -0.519 OA 
HETATM   34  H   UNL     1     -13.003   4.806  72.744  1.00  0.00     0.000 HD 
BRANCH  32  35
HETATM   35  C   UNL     1     -10.527   4.065  72.524  1.00  0.00    -0.117 C  
HETATM   36  O   UNL     1     -10.827   2.739  72.959  1.00  0.00    -0.154 OA 
HETATM   37  H   UNL     1     -10.441   2.078  72.397  1.00  0.00     0.000 HD 
ENDBRANCH  32  35
ENDBRANCH  31  32
ENDBRANCH  29  31
ENDBRANCH  26  29
ENDBRANCH  11  26
ENDBRANCH   2   5
BRANCH   4  38
HETATM   38  C   UNL     1      -8.571   7.494  66.807  1.00  0.00    -0.127 C  
HETATM   39  O   UNL     1      -9.451   7.887  65.772  1.00  0.00    -0.415 OA 
HETATM   40  H   UNL     1     -10.201   7.306  65.711  1.00  0.00     0.000 HD 
ENDBRANCH   4  38
TORSDOF 12
ENDMDL
MODEL       56
REMARK 921   NORMALIZED FREE ENERGY PREDICTED BY IDOCK:   -4.58 KCAL/MOL
REMARK 922        TOTAL FREE ENERGY PREDICTED BY IDOCK:   -8.83 KCAL/MOL
REMARK 923 INTER-LIGAND FREE ENERGY PREDICTED BY IDOCK:   -7.91 KCAL/MOL
REMARK 924 INTRA-LIGAND FREE ENERGY PREDICTED BY IDOCK:   -0.92 KCAL/MOL
REMARK 927      BINDING AFFINITY PREDICTED BY RF-SCORE:    0.00 PKD
ROOT
HETATM    1  C   UNL     1      -9.288  15.461  65.986  1.00  0.00    -0.329 C  
HETATM    2  N   UNL     1      -9.779  14.982  67.274  1.00  0.00    -0.219 N  
HETATM    3  O   UNL     1     -11.016  16.880  67.673  1.00  0.00    -0.285 OA 
HETATM    4  C   UNL     1     -10.620  15.781  68.053  1.00  0.00    -0.279 C  
ENDROOT
BRANCH   2   5
HETATM    5  C   UNL     1      -9.361  13.668  67.657  1.00  0.00    -0.215 A  
HETATM    6  I   UNL     1     -11.820  12.889  65.944  1.00  0.00    -0.470 I  
HETATM    7  C   UNL     1      -8.141  13.492  68.358  1.00  0.00    -0.145 A  
HETATM    8  C   UNL     1      -7.753  12.209  68.794  1.00  0.00    -0.034 A  
HETATM    9  C   UNL     1     -10.170  12.548  67.335  1.00  0.00    -0.213 A  
HETATM   10  I   UNL     1      -6.896  15.236  68.689  1.00  0.00    -0.137 I  
HETATM   11  C   UNL     1      -9.845  11.257  67.824  1.00  0.00    -0.186 A  
HETATM   12  I   UNL     1      -8.339   9.295  69.739  1.00  0.00    -0.208 I  
HETATM   13  C   UNL     1      -8.658  11.119  68.598  1.00  0.00    -0.151 A  
BRANCH   8  14
HETATM   14  C   UNL     1      -6.368  11.935  69.291  1.00  0.00    -0.105 C  
HETATM   15  H   UNL     1      -5.226  12.069  70.885  1.00  0.00     0.000 HD 
HETATM   16  O   UNL     1      -6.105  12.243  70.570  1.00  0.00    -0.211 OA 
BRANCH  14  17
HETATM   17  N   UNL     1      -5.469  11.439  68.526  1.00  0.00    -0.043 NA 
HETATM   18  H   UNL     1      -4.791  10.767  68.885  1.00  0.00     0.000 HD 
BRANCH  17  19
HETATM   19  C   UNL     1      -5.437  11.864  67.118  1.00  0.00    -0.128 C  
BRANCH  19  20
HETATM   20  C   UNL     1      -5.567  10.633  66.213  1.00  0.00    -0.089 C  
HETATM   21  H   UNL     1      -5.519   8.675  66.431  1.00  0.00     0.000 HD 
HETATM   22  O   UNL     1      -5.438   9.438  66.992  1.00  0.00    -0.039 OA 
BRANCH  20  23
HETATM   23  C   UNL     1      -6.906  10.640  65.456  1.00  0.00    -0.052 C  
HETATM   24  O   UNL     1      -6.714  10.736  64.046  1.00  0.00    -0.348 OA 
HETATM   25  H   UNL     1      -7.541  10.741  63.578  1.00  0.00     0.000 HD 
ENDBRANCH  20  23
ENDBRANCH  19  20
ENDBRANCH  17  19
ENDBRANCH  14  17
ENDBRANCH   8  14
BRANCH  11  26
HETATM   26  C   UNL     1     -10.747  10.098  67.510  1.00  0.00    -0.290 C  
HETATM   27  O   UNL     1     -11.782   9.904  68.354  1.00  0.00    -0.534 OA 
HETATM   28  H   UNL     1     -12.353   9.171  68.155  1.00  0.00     0.000 HD 
BRANCH  26  29
HETATM   29  N   UNL     1     -10.531   9.287  66.542  1.00  0.00    -0.190 NA 
HETATM   30  H   UNL     1     -10.736   9.561  65.581  1.00  0.00     0.000 HD 
BRANCH  29  31
HETATM   31  C   UNL     1      -9.982   7.954  66.835  1.00  0.00    -0.262 C  
BRANCH  31  32
HETATM   32  C   UNL     1     -11.086   6.915  67.140  1.00  0.00    -0.292 C  
HETATM   33  O   UNL     1     -11.087   5.825  66.205  1.00  0.00    -0.733 OA 
HETATM   34  H   UNL     1     -11.766   5.187  66.393  1.00  0.00     0.000 HD 
BRANCH  32  35
HETATM   35  C   UNL     1     -10.892   6.330  68.550  1.00  0.00    -0.323 C  
HETATM   36  O   UNL     1     -11.930   6.720  69.449  1.00  0.00    -0.573 OA 
HETATM   37  H   UNL     1     -11.809   6.359  70.320  1.00  0.00     0.000 HD 
ENDBRANCH  32  35
ENDBRANCH  31  32
ENDBRANCH  29  31
ENDBRANCH  26  29
ENDBRANCH  11  26
ENDBRANCH   2   5
BRANCH   4  38
HETATM   38  C   UNL     1     -11.031  15.262  69.443  1.00  0.00    -0.271 C  
HETATM   39  O   UNL     1     -12.438  15.187  69.575  1.00  0.00    -0.556 OA 
HETATM   40  H   UNL     1     -12.692  14.866  70.433  1.00  0.00     0.000 HD 
ENDBRANCH   4  38
TORSDOF 12
ENDMDL
MODEL       57
REMARK 921   NORMALIZED FREE ENERGY PREDICTED BY IDOCK:   -4.58 KCAL/MOL
REMARK 922        TOTAL FREE ENERGY PREDICTED BY IDOCK:   -8.83 KCAL/MOL
REMARK 923 INTER-LIGAND FREE ENERGY PREDICTED BY IDOCK:   -8.58 KCAL/MOL
REMARK 924 INTRA-LIGAND FREE ENERGY PREDICTED BY IDOCK:   -0.25 KCAL/MOL
REMARK 927      BINDING AFFINITY PREDICTED BY RF-SCORE:    0.00 PKD
ROOT
HETATM    1  C   UNL     1      -6.499  11.698  67.205  1.00  0.00    -0.137 C  
HETATM    2  N   UNL     1      -7.708  10.929  66.927  1.00  0.00    -0.128 N  
HETATM    3  O   UNL     1      -6.935  10.170  64.898  1.00  0.00    -0.132 OA 
HETATM    4  C   UNL     1      -7.836  10.218  65.731  1.00  0.00    -0.145 C  
ENDROOT
BRANCH   2   5
HETATM    5  C   UNL     1      -8.710  10.943  67.948  1.00  0.00    -0.131 A  
HETATM    6  I   UNL     1      -6.945   8.658  69.067  1.00  0.00    -0.066 I  
HETATM    7  C   UNL     1      -9.698  11.961  67.952  1.00  0.00    -0.192 A  
HETATM    8  C   UNL     1     -10.726  11.945  68.918  1.00  0.00    -0.236 A  
HETATM    9  C   UNL     1      -8.711   9.940  68.952  1.00  0.00    -0.140 A  
HETATM   10  I   UNL     1      -9.545  13.535  66.470  1.00  0.00    -0.190 I  
HETATM   11  C   UNL     1      -9.772   9.855  69.889  1.00  0.00    -0.274 A  
HETATM   12  I   UNL     1     -12.654  10.516  70.909  1.00  0.00    -0.508 I  
HETATM   13  C   UNL     1     -10.799  10.839  69.820  1.00  0.00    -0.226 A  
BRANCH   8  14
HETATM   14  C   UNL     1     -11.621  13.127  69.128  1.00  0.00    -0.316 C  
HETATM   15  H   UNL     1     -13.089  14.140  68.303  1.00  0.00     0.000 HD 
HETATM   16  O   UNL     1     -12.522  13.390  68.169  1.00  0.00    -0.038 OA 
BRANCH  14  17
HETATM   17  N   UNL     1     -11.524  13.862  70.172  1.00  0.00    -0.482 NA 
HETATM   18  H   UNL     1     -10.622  14.011  70.624  1.00  0.00     0.000 HD 
BRANCH  17  19
HETATM   19  C   UNL     1     -12.745  14.487  70.702  1.00  0.00    -0.360 C  
BRANCH  19  20
HETATM   20  C   UNL     1     -12.428  15.167  72.040  1.00  0.00    -0.340 C  
HETATM   21  H   UNL     1     -11.456  16.772  72.643  1.00  0.00     0.000 HD 
HETATM   22  O   UNL     1     -11.653  16.350  71.814  1.00  0.00    -0.453 OA 
BRANCH  20  23
HETATM   23  C   UNL     1     -13.716  15.505  72.810  1.00  0.00    -0.553 C  
HETATM   24  O   UNL     1     -13.442  16.259  73.990  1.00  0.00    -0.915 OA 
HETATM   25  H   UNL     1     -14.237  16.467  74.466  1.00  0.00     0.000 HD 
ENDBRANCH  20  23
ENDBRANCH  19  20
ENDBRANCH  17  19
ENDBRANCH  14  17
ENDBRANCH   8  14
BRANCH  11  26
HETATM   26  C   UNL     1      -9.773   8.752  70.907  1.00  0.00    -0.222 C  
HETATM   27  O   UNL     1      -8.934   8.907  71.953  1.00  0.00    -0.331 OA 
HETATM   28  H   UNL     1      -8.934   8.209  72.598  1.00  0.00     0.000 HD 
BRANCH  26  29
HETATM   29  N   UNL     1     -10.471   7.684  70.781  1.00  0.00    -0.208 NA 
HETATM   30  H   UNL     1     -11.460   7.680  71.029  1.00  0.00     0.000 HD 
BRANCH  29  31
HETATM   31  C   UNL     1      -9.825   6.464  70.272  1.00  0.00    -0.168 C  
BRANCH  31  32
HETATM   32  C   UNL     1     -10.617   5.820  69.110  1.00  0.00    -0.294 C  
HETATM   33  O   UNL     1     -11.435   6.771  68.410  1.00  0.00    -0.558 OA 
HETATM   34  H   UNL     1     -11.922   6.375  67.697  1.00  0.00     0.000 HD 
BRANCH  32  35
HETATM   35  C   UNL     1      -9.651   5.188  68.093  1.00  0.00    -0.134 C  
HETATM   36  O   UNL     1      -8.304   5.158  68.567  1.00  0.00    -0.089 OA 
HETATM   37  H   UNL     1      -7.708   4.769  67.939  1.00  0.00     0.000 HD 
ENDBRANCH  32  35
ENDBRANCH  31  32
ENDBRANCH  29  31
ENDBRANCH  26  29
ENDBRANCH  11  26
ENDBRANCH   2   5
BRANCH   4  38
HETATM   38  C   UNL     1      -9.170   9.501  65.453  1.00  0.00    -0.247 C  
HETATM   39  O   UNL     1      -9.057   8.592  64.375  1.00  0.00    -0.365 OA 
HETATM   40  H   UNL     1      -9.881   8.149  64.204  1.00  0.00     0.000 HD 
ENDBRANCH   4  38
TORSDOF 12
ENDMDL
MODEL       58
REMARK 921   NORMALIZED FREE ENERGY PREDICTED BY IDOCK:   -4.57 KCAL/MOL
REMARK 922        TOTAL FREE ENERGY PREDICTED BY IDOCK:   -8.81 KCAL/MOL
REMARK 923 INTER-LIGAND FREE ENERGY PREDICTED BY IDOCK:   -8.24 KCAL/MOL
REMARK 924 INTRA-LIGAND FREE ENERGY PREDICTED BY IDOCK:   -0.57 KCAL/MOL
REMARK 927      BINDING AFFINITY PREDICTED BY RF-SCORE:    0.00 PKD
ROOT
HETATM    1  C   UNL     1      -7.615  10.079  69.439  1.00  0.00    -0.123 C  
HETATM    2  N   UNL     1      -8.026  10.647  68.158  1.00  0.00    -0.109 N  
HETATM    3  O   UNL     1      -7.715   8.673  67.018  1.00  0.00    -0.094 OA 
HETATM    4  C   UNL     1      -8.017   9.863  67.001  1.00  0.00    -0.109 C  
ENDROOT
BRANCH   2   5
HETATM    5  C   UNL     1      -8.443  12.015  68.182  1.00  0.00    -0.171 A  
HETATM    6  I   UNL     1     -11.138  10.699  68.951  1.00  0.00    -0.371 I  
HETATM    7  C   UNL     1      -7.483  13.048  68.029  1.00  0.00    -0.134 A  
HETATM    8  C   UNL     1      -7.893  14.396  67.988  1.00  0.00    -0.141 A  
HETATM    9  C   UNL     1      -9.815  12.333  68.357  1.00  0.00    -0.199 A  
HETATM   10  I   UNL     1      -5.392  12.485  67.907  1.00  0.00    -0.113 I  
HETATM   11  C   UNL     1     -10.267  13.673  68.245  1.00  0.00    -0.243 A  
HETATM   12  I   UNL     1      -9.948  16.663  67.386  1.00  0.00    -0.284 I  
HETATM   13  C   UNL     1      -9.293  14.685  68.007  1.00  0.00    -0.198 A  
BRANCH   8  14
HETATM   14  C   UNL     1      -6.910  15.519  68.099  1.00  0.00    -0.124 C  
HETATM   15  H   UNL     1      -6.050  16.718  69.398  1.00  0.00     0.000 HD 
HETATM   16  O   UNL     1      -6.674  16.006  69.328  1.00  0.00    -0.161 OA 
BRANCH  14  17
HETATM   17  N   UNL     1      -6.327  16.003  67.068  1.00  0.00    -0.313 NA 
HETATM   18  H   UNL     1      -6.159  15.426  66.243  1.00  0.00     0.000 HD 
BRANCH  17  19
HETATM   19  C   UNL     1      -5.904  17.412  67.100  1.00  0.00    -0.144 C  
BRANCH  19  20
HETATM   20  C   UNL     1      -6.576  18.170  65.949  1.00  0.00    -0.281 C  
HETATM   21  H   UNL     1      -7.914  19.603  65.756  1.00  0.00     0.000 HD 
HETATM   22  O   UNL     1      -7.498  19.133  66.470  1.00  0.00    -0.227 OA 
BRANCH  20  23
HETATM   23  C   UNL     1      -5.531  18.855  65.051  1.00  0.00    -0.207 C  
HETATM   24  O   UNL     1      -5.963  18.919  63.693  1.00  0.00    -0.320 OA 
HETATM   25  H   UNL     1      -5.317  19.342  63.139  1.00  0.00     0.000 HD 
ENDBRANCH  20  23
ENDBRANCH  19  20
ENDBRANCH  17  19
ENDBRANCH  14  17
ENDBRANCH   8  14
BRANCH  11  26
HETATM   26  C   UNL     1     -11.732  13.973  68.384  1.00  0.00    -0.354 C  
HETATM   27  O   UNL     1     -12.208  14.036  69.645  1.00  0.00    -0.334 OA 
HETATM   28  H   UNL     1     -13.135  14.226  69.734  1.00  0.00     0.000 HD 
BRANCH  26  29
HETATM   29  N   UNL     1     -12.517  14.101  67.380  1.00  0.00    -0.510 NA 
HETATM   30  H   UNL     1     -13.326  14.719  67.432  1.00  0.00     0.000 HD 
BRANCH  29  31
HETATM   31  C   UNL     1     -12.235  13.344  66.150  1.00  0.00    -0.415 C  
BRANCH  31  32
HETATM   32  C   UNL     1     -11.340  14.132  65.166  1.00  0.00    -0.336 C  
HETATM   33  O   UNL     1     -10.199  13.373  64.734  1.00  0.00    -0.480 OA 
HETATM   34  H   UNL     1      -9.649  13.857  64.130  1.00  0.00     0.000 HD 
BRANCH  32  35
HETATM   35  C   UNL     1     -12.144  14.529  63.916  1.00  0.00    -0.100 C  
HETATM   36  O   UNL     1     -12.136  15.939  63.688  1.00  0.00    -1.223 OA 
HETATM   37  H   UNL     1     -12.633  16.184  62.916  1.00  0.00     0.000 HD 
ENDBRANCH  32  35
ENDBRANCH  31  32
ENDBRANCH  29  31
ENDBRANCH  26  29
ENDBRANCH  11  26
ENDBRANCH   2   5
BRANCH   4  38
HETATM   38  C   UNL     1      -8.372  10.540  65.664  1.00  0.00    -0.167 C  
HETATM   39  O   UNL     1      -9.679  10.203  65.241  1.00  0.00    -0.256 OA 
HETATM   40  H   UNL     1      -9.898  10.621  64.416  1.00  0.00     0.000 HD 
ENDBRANCH   4  38
TORSDOF 12
ENDMDL
MODEL       59
REMARK 921   NORMALIZED FREE ENERGY PREDICTED BY IDOCK:   -4.54 KCAL/MOL
REMARK 922        TOTAL FREE ENERGY PREDICTED BY IDOCK:   -8.76 KCAL/MOL
REMARK 923 INTER-LIGAND FREE ENERGY PREDICTED BY IDOCK:   -8.98 KCAL/MOL
REMARK 924 INTRA-LIGAND FREE ENERGY PREDICTED BY IDOCK:    0.22 KCAL/MOL
REMARK 927      BINDING AFFINITY PREDICTED BY RF-SCORE:    0.00 PKD
ROOT
HETATM    1  C   UNL     1     -10.237   8.649  66.431  1.00  0.00    -0.154 C  
HETATM    2  N   UNL     1      -9.555   9.873  66.840  1.00  0.00    -0.172 N  
HETATM    3  O   UNL     1      -7.471   9.071  66.283  1.00  0.00    -0.090 OA 
HETATM    4  C   UNL     1      -8.164   9.972  66.749  1.00  0.00    -0.121 C  
ENDROOT
BRANCH   2   5
HETATM    5  C   UNL     1     -10.393  10.933  67.310  1.00  0.00    -0.216 A  
HETATM    6  I   UNL     1     -10.418  11.627  64.292  1.00  0.00    -0.495 I  
HETATM    7  C   UNL     1     -10.810  10.955  68.665  1.00  0.00    -0.217 A  
HETATM    8  C   UNL     1     -11.584  12.030  69.150  1.00  0.00    -0.370 A  
HETATM    9  C   UNL     1     -10.803  11.957  66.417  1.00  0.00    -0.279 A  
HETATM   10  I   UNL     1     -10.258   9.282  69.928  1.00  0.00    -0.310 I  
HETATM   11  C   UNL     1     -11.517  13.087  66.892  1.00  0.00    -0.387 A  
HETATM   12  I   UNL     1     -12.536  14.999  69.147  1.00  0.00     0.469 I  
HETATM   13  C   UNL     1     -11.852  13.128  68.275  1.00  0.00    -0.349 A  
BRANCH   8  14
HETATM   14  C   UNL     1     -12.266  11.966  70.481  1.00  0.00    -0.336 C  
HETATM   15  H   UNL     1     -13.529  10.892  71.538  1.00  0.00     0.000 HD 
HETATM   16  O   UNL     1     -13.096  10.933  70.693  1.00  0.00    -0.246 OA 
BRANCH  14  17
HETATM   17  N   UNL     1     -12.077  12.863  71.374  1.00  0.00    -0.088 NA 
HETATM   18  H   UNL     1     -11.177  13.336  71.457  1.00  0.00     0.000 HD 
BRANCH  17  19
HETATM   19  C   UNL     1     -13.190  13.197  72.276  1.00  0.00    -0.453 C  
BRANCH  19  20
HETATM   20  C   UNL     1     -12.841  14.464  73.066  1.00  0.00    -0.424 C  
HETATM   21  H   UNL     1     -11.302  15.684  73.223  1.00  0.00     0.000 HD 
HETATM   22  O   UNL     1     -11.518  14.899  72.733  1.00  0.00    -0.217 OA 
BRANCH  20  23
HETATM   23  C   UNL     1     -13.860  15.584  72.796  1.00  0.00    -0.518 C  
HETATM   24  O   UNL     1     -13.860  16.560  73.838  1.00  0.00    -0.676 OA 
HETATM   25  H   UNL     1     -14.489  17.251  73.671  1.00  0.00     0.000 HD 
ENDBRANCH  20  23
ENDBRANCH  19  20
ENDBRANCH  17  19
ENDBRANCH  14  17
ENDBRANCH   8  14
BRANCH  11  26
HETATM   26  C   UNL     1     -11.893  14.180  65.934  1.00  0.00    -0.384 C  
HETATM   27  O   UNL     1     -13.076  14.034  65.300  1.00  0.00    -0.782 OA 
HETATM   28  H   UNL     1     -13.315  14.726  64.694  1.00  0.00     0.000 HD 
BRANCH  26  29
HETATM   29  N   UNL     1     -11.125  15.170  65.666  1.00  0.00    -0.341 NA 
HETATM   30  H   UNL     1     -11.432  15.907  65.032  1.00  0.00     0.000 HD 
BRANCH  29  31
HETATM   31  C   UNL     1      -9.792  15.228  66.287  1.00  0.00    -0.294 C  
BRANCH  31  32
HETATM   32  C   UNL     1      -9.127  16.615  66.123  1.00  0.00    -0.283 C  
HETATM   33  O   UNL     1     -10.056  17.621  65.691  1.00  0.00    -0.575 OA 
HETATM   34  H   UNL     1      -9.647  18.473  65.590  1.00  0.00     0.000 HD 
BRANCH  32  35
HETATM   35  C   UNL     1      -8.519  17.075  67.459  1.00  0.00    -0.200 C  
HETATM   36  O   UNL     1      -9.506  17.568  68.366  1.00  0.00    -0.273 OA 
HETATM   37  H   UNL     1      -9.131  17.852  69.191  1.00  0.00     0.000 HD 
ENDBRANCH  32  35
ENDBRANCH  31  32
ENDBRANCH  29  31
ENDBRANCH  26  29
ENDBRANCH  11  26
ENDBRANCH   2   5
BRANCH   4  38
HETATM   38  C   UNL     1      -7.492  11.252  67.281  1.00  0.00    -0.126 C  
HETATM   39  O   UNL     1      -7.068  11.098  68.622  1.00  0.00    -0.076 OA 
HETATM   40  H   UNL     1      -6.653  11.887  68.951  1.00  0.00     0.000 HD 
ENDBRANCH   4  38
TORSDOF 12
ENDMDL
MODEL       60
REMARK 921   NORMALIZED FREE ENERGY PREDICTED BY IDOCK:   -4.52 KCAL/MOL
REMARK 922        TOTAL FREE ENERGY PREDICTED BY IDOCK:   -8.73 KCAL/MOL
REMARK 923 INTER-LIGAND FREE ENERGY PREDICTED BY IDOCK:   -7.89 KCAL/MOL
REMARK 924 INTRA-LIGAND FREE ENERGY PREDICTED BY IDOCK:   -0.84 KCAL/MOL
REMARK 927      BINDING AFFINITY PREDICTED BY RF-SCORE:    0.00 PKD
ROOT
HETATM    1  C   UNL     1     -12.017  11.600  67.620  1.00  0.00    -0.012 C  
HETATM    2  N   UNL     1     -11.304  12.368  66.603  1.00  0.00    -0.319 N  
HETATM    3  O   UNL     1     -13.152  12.561  65.246  1.00  0.00    -0.531 OA 
HETATM    4  C   UNL     1     -11.959  12.780  65.439  1.00  0.00    -0.436 C  
ENDROOT
BRANCH   2   5
HETATM    5  C   UNL     1      -9.936  12.672  66.889  1.00  0.00    -0.230 A  
HETATM    6  I   UNL     1      -9.497  10.130  65.175  1.00  0.00    -0.379 I  
HETATM    7  C   UNL     1      -9.605  13.881  67.553  1.00  0.00    -0.229 A  
HETATM    8  C   UNL     1      -8.265  14.157  67.895  1.00  0.00    -0.155 A  
HETATM    9  C   UNL     1      -8.916  11.761  66.508  1.00  0.00    -0.196 A  
HETATM   10  I   UNL     1     -11.205  15.281  67.976  1.00  0.00    -0.310 I  
HETATM   11  C   UNL     1      -7.571  11.975  66.904  1.00  0.00    -0.060 A  
HETATM   12  I   UNL     1      -5.357  13.324  68.654  1.00  0.00    -0.092 I  
HETATM   13  C   UNL     1      -7.276  13.156  67.644  1.00  0.00    -0.159 A  
BRANCH   8  14
HETATM   14  C   UNL     1      -7.836  15.518  68.345  1.00  0.00    -0.126 C  
HETATM   15  H   UNL     1      -7.549  16.612  69.953  1.00  0.00     0.000 HD 
HETATM   16  O   UNL     1      -7.821  15.748  69.667  1.00  0.00    -0.196 OA 
BRANCH  14  17
HETATM   17  N   UNL     1      -7.509  16.428  67.507  1.00  0.00    -0.132 NA 
HETATM   18  H   UNL     1      -7.097  16.185  66.605  1.00  0.00     0.000 HD 
BRANCH  17  19
HETATM   19  C   UNL     1      -7.740  17.834  67.875  1.00  0.00    -0.225 C  
BRANCH  19  20
HETATM   20  C   UNL     1      -8.403  18.564  66.700  1.00  0.00    -0.272 C  
HETATM   21  H   UNL     1      -9.319  18.066  65.029  1.00  0.00     0.000 HD 
HETATM   22  O   UNL     1      -8.909  17.613  65.757  1.00  0.00    -0.508 OA 
BRANCH  20  23
HETATM   23  C   UNL     1      -9.529  19.491  67.187  1.00  0.00    -0.332 C  
HETATM   24  O   UNL     1      -9.380  20.815  66.677  1.00  0.00    -0.619 OA 
HETATM   25  H   UNL     1     -10.076  21.387  66.978  1.00  0.00     0.000 HD 
ENDBRANCH  20  23
ENDBRANCH  19  20
ENDBRANCH  17  19
ENDBRANCH  14  17
ENDBRANCH   8  14
BRANCH  11  26
HETATM   26  C   UNL     1      -6.521  10.969  66.530  1.00  0.00    -0.132 C  
HETATM   27  O   UNL     1      -5.747  11.283  65.470  1.00  0.00    -0.456 OA 
HETATM   28  H   UNL     1      -5.083  10.646  65.233  1.00  0.00     0.000 HD 
BRANCH  26  29
HETATM   29  N   UNL     1      -6.391   9.841  67.125  1.00  0.00    -0.067 NA 
HETATM   30  H   UNL     1      -6.001   9.038  66.632  1.00  0.00     0.000 HD 
BRANCH  29  31
HETATM   31  C   UNL     1      -6.811   9.721  68.530  1.00  0.00    -0.056 C  
BRANCH  31  32
HETATM   32  C   UNL     1      -8.036   8.793  68.701  1.00  0.00    -0.116 C  
HETATM   33  O   UNL     1      -8.042   7.713  67.754  1.00  0.00    -0.116 OA 
HETATM   34  H   UNL     1      -8.794   7.143  67.858  1.00  0.00     0.000 HD 
BRANCH  32  35
HETATM   35  C   UNL     1      -8.049   8.183  70.113  1.00  0.00    -0.113 C  
HETATM   36  O   UNL     1      -8.220   6.766  70.094  1.00  0.00    -0.128 OA 
HETATM   37  H   UNL     1      -8.228   6.390  70.966  1.00  0.00     0.000 HD 
ENDBRANCH  32  35
ENDBRANCH  31  32
ENDBRANCH  29  31
ENDBRANCH  26  29
ENDBRANCH  11  26
ENDBRANCH   2   5
BRANCH   4  38
HETATM   38  C   UNL     1     -11.133  13.506  64.362  1.00  0.00    -0.380 C  
HETATM   39  O   UNL     1     -11.963  14.092  63.377  1.00  0.00    -0.812 OA 
HETATM   40  H   UNL     1     -11.453  14.541  62.712  1.00  0.00     0.000 HD 
ENDBRANCH   4  38
TORSDOF 12
ENDMDL
MODEL       61
REMARK 921   NORMALIZED FREE ENERGY PREDICTED BY IDOCK:   -4.52 KCAL/MOL
REMARK 922        TOTAL FREE ENERGY PREDICTED BY IDOCK:   -8.73 KCAL/MOL
REMARK 923 INTER-LIGAND FREE ENERGY PREDICTED BY IDOCK:   -7.78 KCAL/MOL
REMARK 924 INTRA-LIGAND FREE ENERGY PREDICTED BY IDOCK:   -0.94 KCAL/MOL
REMARK 927      BINDING AFFINITY PREDICTED BY RF-SCORE:    0.00 PKD
ROOT
HETATM    1  C   UNL     1     -10.768   7.812  73.382  1.00  0.00    -0.162 C  
HETATM    2  N   UNL     1     -10.852   7.644  71.934  1.00  0.00    -0.227 N  
HETATM    3  O   UNL     1     -12.146   5.747  72.083  1.00  0.00    -0.185 OA 
HETATM    4  C   UNL     1     -11.546   6.562  71.386  1.00  0.00    -0.318 C  
ENDROOT
BRANCH   2   5
HETATM    5  C   UNL     1     -10.207   8.649  71.146  1.00  0.00    -0.230 A  
HETATM    6  I   UNL     1     -13.011   9.946  71.339  1.00  0.00    -0.509 I  
HETATM    7  C   UNL     1      -8.811   8.569  70.907  1.00  0.00    -0.171 A  
HETATM    8  C   UNL     1      -8.179   9.520  70.080  1.00  0.00    -0.192 A  
HETATM    9  C   UNL     1     -10.966   9.719  70.607  1.00  0.00    -0.331 A  
HETATM   10  I   UNL     1      -7.700   6.983  71.882  1.00  0.00    -0.094 I  
HETATM   11  C   UNL     1     -10.374  10.647  69.712  1.00  0.00    -0.146 A  
HETATM   12  I   UNL     1      -8.132  11.582  67.741  1.00  0.00    -0.163 I  
HETATM   13  C   UNL     1      -8.988  10.496  69.420  1.00  0.00    -0.093 A  
BRANCH   8  14
HETATM   14  C   UNL     1      -6.688   9.637  70.017  1.00  0.00    -0.079 C  
HETATM   15  H   UNL     1      -5.141  10.407  70.955  1.00  0.00     0.000 HD 
HETATM   16  O   UNL     1      -6.087  10.333  70.995  1.00  0.00    -0.253 OA 
BRANCH  14  17
HETATM   17  N   UNL     1      -6.014   9.107  69.067  1.00  0.00    -0.042 NA 
HETATM   18  H   UNL     1      -5.137   9.523  68.752  1.00  0.00     0.000 HD 
BRANCH  17  19
HETATM   19  C   UNL     1      -6.536   7.884  68.438  1.00  0.00    -0.062 C  
BRANCH  19  20
HETATM   20  C   UNL     1      -6.733   8.129  66.937  1.00  0.00    -0.065 C  
HETATM   21  H   UNL     1      -5.826   7.620  65.264  1.00  0.00     0.000 HD 
HETATM   22  O   UNL     1      -5.704   7.467  66.194  1.00  0.00    -0.034 OA 
BRANCH  20  23
HETATM   23  C   UNL     1      -8.121   7.653  66.474  1.00  0.00    -0.119 C  
HETATM   24  O   UNL     1      -8.909   7.184  67.568  1.00  0.00    -0.120 OA 
HETATM   25  H   UNL     1      -9.766   6.890  67.283  1.00  0.00     0.000 HD 
ENDBRANCH  20  23
ENDBRANCH  19  20
ENDBRANCH  17  19
ENDBRANCH  14  17
ENDBRANCH   8  14
BRANCH  11  26
HETATM   26  C   UNL     1     -11.214  11.740  69.116  1.00  0.00    -0.264 C  
HETATM   27  O   UNL     1     -11.168  12.933  69.744  1.00  0.00    -0.481 OA 
HETATM   28  H   UNL     1     -11.700  13.625  69.368  1.00  0.00     0.000 HD 
BRANCH  26  29
HETATM   29  N   UNL     1     -11.988  11.557  68.111  1.00  0.00    -0.610 NA 
HETATM   30  H   UNL     1     -12.930  11.192  68.244  1.00  0.00     0.000 HD 
BRANCH  29  31
HETATM   31  C   UNL     1     -11.497  11.883  66.763  1.00  0.00    -0.316 C  
BRANCH  31  32
HETATM   32  C   UNL     1     -12.035  13.240  66.252  1.00  0.00    -0.417 C  
HETATM   33  O   UNL     1     -12.459  14.099  67.322  1.00  0.00    -0.569 OA 
HETATM   34  H   UNL     1     -12.790  14.933  67.008  1.00  0.00     0.000 HD 
BRANCH  32  35
HETATM   35  C   UNL     1     -10.946  13.979  65.455  1.00  0.00    -0.321 C  
HETATM   36  O   UNL     1     -10.235  13.111  64.572  1.00  0.00    -0.505 OA 
HETATM   37  H   UNL     1      -9.562  13.567  64.080  1.00  0.00     0.000 HD 
ENDBRANCH  32  35
ENDBRANCH  31  32
ENDBRANCH  29  31
ENDBRANCH  26  29
ENDBRANCH  11  26
ENDBRANCH   2   5
BRANCH   4  38
HETATM   38  C   UNL     1     -11.523   6.385  69.857  1.00  0.00    -0.415 C  
HETATM   39  O   UNL     1     -10.555   5.435  69.457  1.00  0.00    -0.292 OA 
HETATM   40  H   UNL     1     -10.540   5.326  68.513  1.00  0.00     0.000 HD 
ENDBRANCH   4  38
TORSDOF 12
ENDMDL
MODEL       62
REMARK 921   NORMALIZED FREE ENERGY PREDICTED BY IDOCK:   -4.50 KCAL/MOL
REMARK 922        TOTAL FREE ENERGY PREDICTED BY IDOCK:   -8.70 KCAL/MOL
REMARK 923 INTER-LIGAND FREE ENERGY PREDICTED BY IDOCK:   -7.82 KCAL/MOL
REMARK 924 INTRA-LIGAND FREE ENERGY PREDICTED BY IDOCK:   -0.89 KCAL/MOL
REMARK 927      BINDING AFFINITY PREDICTED BY RF-SCORE:    0.00 PKD
ROOT
HETATM    1  C   UNL     1      -6.466   9.622  66.710  1.00  0.00    -0.067 C  
HETATM    2  N   UNL     1      -6.850  10.141  68.019  1.00  0.00    -0.070 N  
HETATM    3  O   UNL     1      -5.382   8.779  69.151  1.00  0.00    -0.035 OA 
HETATM    4  C   UNL     1      -6.264   9.633  69.182  1.00  0.00    -0.041 C  
ENDROOT
BRANCH   2   5
HETATM    5  C   UNL     1      -7.825  11.188  68.019  1.00  0.00    -0.114 A  
HETATM    6  I   UNL     1      -5.280  12.930  67.752  1.00  0.00    -0.002 I  
HETATM    7  C   UNL     1      -9.206  10.865  67.976  1.00  0.00    -0.156 A  
HETATM    8  C   UNL     1     -10.174  11.888  68.040  1.00  0.00    -0.199 A  
HETATM    9  C   UNL     1      -7.407  12.543  68.064  1.00  0.00    -0.111 A  
HETATM   10  I   UNL     1      -9.758   8.779  67.769  1.00  0.00    -0.243 I  
HETATM   11  C   UNL     1      -8.356  13.588  68.204  1.00  0.00    -0.167 A  
HETATM   12  I   UNL     1     -11.192  14.708  68.898  1.00  0.00    -0.353 I  
HETATM   13  C   UNL     1      -9.734  13.233  68.243  1.00  0.00    -0.225 A  
BRANCH   8  14
HETATM   14  C   UNL     1     -11.614  11.624  67.729  1.00  0.00    -0.289 C  
HETATM   15  H   UNL     1     -12.974  11.840  66.326  1.00  0.00     0.000 HD 
HETATM   16  O   UNL     1     -12.060  12.007  66.522  1.00  0.00    -0.617 OA 
BRANCH  14  17
HETATM   17  N   UNL     1     -12.392  11.069  68.581  1.00  0.00    -0.737 NA 
HETATM   18  H   UNL     1     -13.208  10.538  68.276  1.00  0.00     0.000 HD 
BRANCH  17  19
HETATM   19  C   UNL     1     -12.080  11.216  70.012  1.00  0.00    -0.359 C  
BRANCH  19  20
HETATM   20  C   UNL     1     -12.053   9.831  70.670  1.00  0.00    -0.230 C  
HETATM   21  H   UNL     1     -10.789   8.777  71.753  1.00  0.00     0.000 HD 
HETATM   22  O   UNL     1     -10.806   9.635  71.345  1.00  0.00    -0.340 OA 
BRANCH  20  23
HETATM   23  C   UNL     1     -13.228   9.658  71.648  1.00  0.00    -0.411 C  
HETATM   24  O   UNL     1     -14.053   8.550  71.290  1.00  0.00    -0.581 OA 
HETATM   25  H   UNL     1     -14.778   8.444  71.894  1.00  0.00     0.000 HD 
ENDBRANCH  20  23
ENDBRANCH  19  20
ENDBRANCH  17  19
ENDBRANCH  14  17
ENDBRANCH   8  14
BRANCH  11  26
HETATM   26  C   UNL     1      -7.881  15.010  68.299  1.00  0.00    -0.119 C  
HETATM   27  O   UNL     1      -7.533  15.438  69.530  1.00  0.00    -0.204 OA 
HETATM   28  H   UNL     1      -7.233  16.338  69.591  1.00  0.00     0.000 HD 
BRANCH  26  29
HETATM   29  N   UNL     1      -7.862  15.809  67.297  1.00  0.00    -0.175 NA 
HETATM   30  H   UNL     1      -8.064  15.466  66.358  1.00  0.00     0.000 HD 
BRANCH  29  31
HETATM   31  C   UNL     1      -7.545  17.228  67.521  1.00  0.00    -0.178 C  
BRANCH  31  32
HETATM   32  C   UNL     1      -8.793  18.135  67.409  1.00  0.00    -0.256 C  
HETATM   33  O   UNL     1      -9.146  18.738  68.664  1.00  0.00    -0.333 OA 
HETATM   34  H   UNL     1      -9.913  19.295  68.596  1.00  0.00     0.000 HD 
BRANCH  32  35
HETATM   35  C   UNL     1      -8.542  19.264  66.395  1.00  0.00    -0.343 C  
HETATM   36  O   UNL     1      -7.468  18.965  65.503  1.00  0.00    -0.484 OA 
HETATM   37  H   UNL     1      -7.312  19.663  64.877  1.00  0.00     0.000 HD 
ENDBRANCH  32  35
ENDBRANCH  31  32
ENDBRANCH  29  31
ENDBRANCH  26  29
ENDBRANCH  11  26
ENDBRANCH   2   5
BRANCH   4  38
HETATM   38  C   UNL     1      -6.774  10.154  70.538  1.00  0.00    -0.096 C  
HETATM   39  O   UNL     1      -7.753   9.295  71.090  1.00  0.00    -0.282 OA 
HETATM   40  H   UNL     1      -8.068   9.617  71.927  1.00  0.00     0.000 HD 
ENDBRANCH   4  38
TORSDOF 12
ENDMDL
MODEL       63
REMARK 921   NORMALIZED FREE ENERGY PREDICTED BY IDOCK:   -4.50 KCAL/MOL
REMARK 922        TOTAL FREE ENERGY PREDICTED BY IDOCK:   -8.70 KCAL/MOL
REMARK 923 INTER-LIGAND FREE ENERGY PREDICTED BY IDOCK:   -7.60 KCAL/MOL
REMARK 924 INTRA-LIGAND FREE ENERGY PREDICTED BY IDOCK:   -1.09 KCAL/MOL
REMARK 927      BINDING AFFINITY PREDICTED BY RF-SCORE:    0.00 PKD
ROOT
HETATM    1  C   UNL     1      -6.792   4.403  66.292  1.00  0.00    -0.058 C  
HETATM    2  N   UNL     1      -8.145   4.866  66.584  1.00  0.00    -0.107 N  
HETATM    3  O   UNL     1      -9.071   3.739  64.805  1.00  0.00    -0.126 OA 
HETATM    4  C   UNL     1      -9.213   4.496  65.762  1.00  0.00    -0.146 C  
ENDROOT
BRANCH   2   5
HETATM    5  C   UNL     1      -8.291   5.686  67.748  1.00  0.00    -0.100 A  
HETATM    6  I   UNL     1      -7.875   7.928  65.653  1.00  0.00    -0.130 I  
HETATM    7  C   UNL     1      -8.659   5.096  68.984  1.00  0.00    -0.089 A  
HETATM    8  C   UNL     1      -8.743   5.888  70.148  1.00  0.00    -0.141 A  
HETATM    9  C   UNL     1      -8.066   7.084  67.659  1.00  0.00    -0.114 A  
HETATM   10  I   UNL     1      -9.121   2.978  69.005  1.00  0.00    -0.205 I  
HETATM   11  C   UNL     1      -8.070   7.892  68.825  1.00  0.00    -0.126 A  
HETATM   12  I   UNL     1      -7.946   8.327  71.919  1.00  0.00    -0.159 I  
HETATM   13  C   UNL     1      -8.359   7.262  70.069  1.00  0.00    -0.137 A  
BRANCH   8  14
HETATM   14  C   UNL     1      -9.380   5.373  71.401  1.00  0.00    -0.147 C  
HETATM   15  H   UNL     1      -8.968   4.560  73.143  1.00  0.00     0.000 HD 
HETATM   16  O   UNL     1      -8.563   4.886  72.348  1.00  0.00    -0.121 OA 
BRANCH  14  17
HETATM   17  N   UNL     1     -10.651   5.385  71.559  1.00  0.00    -0.233 NA 
HETATM   18  H   UNL     1     -11.244   4.713  71.072  1.00  0.00     0.000 HD 
BRANCH  17  19
HETATM   19  C   UNL     1     -11.234   6.391  72.461  1.00  0.00    -0.272 C  
BRANCH  19  20
HETATM   20  C   UNL     1     -12.241   7.247  71.683  1.00  0.00    -0.343 C  
HETATM   21  H   UNL     1     -14.154   7.156  71.222  1.00  0.00     0.000 HD 
HETATM   22  O   UNL     1     -13.530   6.625  71.704  1.00  0.00    -0.195 OA 
BRANCH  20  23
HETATM   23  C   UNL     1     -12.319   8.671  72.259  1.00  0.00    -0.382 C  
HETATM   24  O   UNL     1     -13.430   8.822  73.142  1.00  0.00    -0.953 OA 
HETATM   25  H   UNL     1     -13.479   9.702  73.497  1.00  0.00     0.000 HD 
ENDBRANCH  20  23
ENDBRANCH  19  20
ENDBRANCH  17  19
ENDBRANCH  14  17
ENDBRANCH   8  14
BRANCH  11  26
HETATM   26  C   UNL     1      -7.778   9.360  68.708  1.00  0.00    -0.080 C  
HETATM   27  O   UNL     1      -6.508   9.691  68.394  1.00  0.00    -0.052 OA 
HETATM   28  H   UNL     1      -6.323  10.620  68.320  1.00  0.00     0.000 HD 
BRANCH  26  29
HETATM   29  N   UNL     1      -8.650  10.267  68.950  1.00  0.00    -0.141 NA 
HETATM   30  H   UNL     1      -8.802  10.597  69.903  1.00  0.00     0.000 HD 
BRANCH  29  31
HETATM   31  C   UNL     1      -9.429  10.828  67.835  1.00  0.00    -0.157 C  
BRANCH  31  32
HETATM   32  C   UNL     1     -10.919  10.418  67.892  1.00  0.00    -0.297 C  
HETATM   33  O   UNL     1     -11.107   9.007  67.701  1.00  0.00    -0.484 OA 
HETATM   34  H   UNL     1     -12.023   8.755  67.736  1.00  0.00     0.000 HD 
BRANCH  32  35
HETATM   35  C   UNL     1     -11.523  10.795  69.257  1.00  0.00    -0.298 C  
HETATM   36  O   UNL     1     -11.038  12.048  69.739  1.00  0.00    -0.473 OA 
HETATM   37  H   UNL     1     -11.410  12.281  70.581  1.00  0.00     0.000 HD 
ENDBRANCH  32  35
ENDBRANCH  31  32
ENDBRANCH  29  31
ENDBRANCH  26  29
ENDBRANCH  11  26
ENDBRANCH   2   5
BRANCH   4  38
HETATM   38  C   UNL     1     -10.601   5.089  66.066  1.00  0.00    -0.232 C  
HETATM   39  O   UNL     1     -11.553   4.711  65.090  1.00  0.00    -1.107 OA 
HETATM   40  H   UNL     1     -12.410   5.077  65.278  1.00  0.00     0.000 HD 
ENDBRANCH   4  38
TORSDOF 12
ENDMDL
MODEL       64
REMARK 921   NORMALIZED FREE ENERGY PREDICTED BY IDOCK:   -4.47 KCAL/MOL
REMARK 922        TOTAL FREE ENERGY PREDICTED BY IDOCK:   -8.65 KCAL/MOL
REMARK 923 INTER-LIGAND FREE ENERGY PREDICTED BY IDOCK:   -8.14 KCAL/MOL
REMARK 924 INTRA-LIGAND FREE ENERGY PREDICTED BY IDOCK:   -0.51 KCAL/MOL
REMARK 927      BINDING AFFINITY PREDICTED BY RF-SCORE:    0.00 PKD
ROOT
HETATM    1  C   UNL     1     -12.735   7.298  71.385  1.00  0.00    -0.389 C  
HETATM    2  N   UNL     1     -11.425   7.942  71.407  1.00  0.00    -0.255 N  
HETATM    3  O   UNL     1     -10.974   7.279  73.563  1.00  0.00    -0.345 OA 
HETATM    4  C   UNL     1     -10.633   7.894  72.557  1.00  0.00    -0.315 C  
ENDROOT
BRANCH   2   5
HETATM    5  C   UNL     1     -11.022   8.588  70.196  1.00  0.00    -0.216 A  
HETATM    6  I   UNL     1     -10.142   5.704  69.495  1.00  0.00    -0.364 I  
HETATM    7  C   UNL     1     -11.362   9.948  69.975  1.00  0.00    -0.249 A  
HETATM    8  C   UNL     1     -10.914  10.609  68.813  1.00  0.00    -0.292 A  
HETATM    9  C   UNL     1     -10.283   7.867  69.223  1.00  0.00    -0.216 A  
HETATM   10  I   UNL     1     -12.610  10.938  71.445  1.00  0.00    -0.345 I  
HETATM   11  C   UNL     1      -9.756   8.524  68.082  1.00  0.00    -0.175 A  
HETATM   12  I   UNL     1      -8.912  11.065  66.466  1.00  0.00    -0.206 I  
HETATM   13  C   UNL     1     -10.040   9.911  67.923  1.00  0.00    -0.173 A  
BRANCH   8  14
HETATM   14  C   UNL     1     -11.464  11.941  68.408  1.00  0.00    -0.299 C  
HETATM   15  H   UNL     1     -12.630  12.813  67.088  1.00  0.00     0.000 HD 
HETATM   16  O   UNL     1     -12.282  11.967  67.344  1.00  0.00    -0.491 OA 
BRANCH  14  17
HETATM   17  N   UNL     1     -11.158  13.011  69.041  1.00  0.00    -0.322 NA 
HETATM   18  H   UNL     1     -10.355  13.036  69.669  1.00  0.00     0.000 HD 
BRANCH  17  19
HETATM   19  C   UNL     1     -11.994  14.205  68.839  1.00  0.00    -0.341 C  
BRANCH  19  20
HETATM   20  C   UNL     1     -11.092  15.436  68.685  1.00  0.00    -0.289 C  
HETATM   21  H   UNL     1      -9.278  15.969  69.239  1.00  0.00     0.000 HD 
HETATM   22  O   UNL     1      -9.837  15.207  69.335  1.00  0.00    -0.225 OA 
BRANCH  20  23
HETATM   23  C   UNL     1     -10.875  15.783  67.202  1.00  0.00    -0.289 C  
HETATM   24  O   UNL     1      -9.948  16.856  67.042  1.00  0.00    -0.262 OA 
HETATM   25  H   UNL     1      -9.815  17.070  66.126  1.00  0.00     0.000 HD 
ENDBRANCH  20  23
ENDBRANCH  19  20
ENDBRANCH  17  19
ENDBRANCH  14  17
ENDBRANCH   8  14
BRANCH  11  26
HETATM   26  C   UNL     1      -8.935   7.746  67.094  1.00  0.00    -0.126 C  
HETATM   27  O   UNL     1      -7.602   7.736  67.306  1.00  0.00    -0.100 OA 
HETATM   28  H   UNL     1      -7.082   7.244  66.681  1.00  0.00     0.000 HD 
BRANCH  26  29
HETATM   29  N   UNL     1      -9.439   7.172  66.065  1.00  0.00    -0.397 NA 
HETATM   30  H   UNL     1     -10.219   7.597  65.565  1.00  0.00     0.000 HD 
BRANCH  29  31
HETATM   31  C   UNL     1      -8.875   5.889  65.615  1.00  0.00    -0.118 C  
BRANCH  31  32
HETATM   32  C   UNL     1      -8.274   5.977  64.192  1.00  0.00    -0.053 C  
HETATM   33  O   UNL     1      -9.211   5.585  63.177  1.00  0.00    -0.289 OA 
HETATM   34  H   UNL     1      -8.842   5.638  62.303  1.00  0.00     0.000 HD 
BRANCH  32  35
HETATM   35  C   UNL     1      -7.827   7.418  63.892  1.00  0.00    -0.117 C  
HETATM   36  O   UNL     1      -8.749   8.111  63.050  1.00  0.00    -0.413 OA 
HETATM   37  H   UNL     1      -8.472   9.000  62.864  1.00  0.00     0.000 HD 
ENDBRANCH  32  35
ENDBRANCH  31  32
ENDBRANCH  29  31
ENDBRANCH  26  29
ENDBRANCH  11  26
ENDBRANCH   2   5
BRANCH   4  38
HETATM   38  C   UNL     1      -9.302   8.669  72.553  1.00  0.00    -0.160 C  
HETATM   39  O   UNL     1      -8.608   8.519  73.776  1.00  0.00    -0.307 OA 
HETATM   40  H   UNL     1      -7.787   8.997  73.773  1.00  0.00     0.000 HD 
ENDBRANCH   4  38
TORSDOF 12
ENDMDL
MODEL       65
REMARK 921   NORMALIZED FREE ENERGY PREDICTED BY IDOCK:   -4.43 KCAL/MOL
REMARK 922        TOTAL FREE ENERGY PREDICTED BY IDOCK:   -8.58 KCAL/MOL
REMARK 923 INTER-LIGAND FREE ENERGY PREDICTED BY IDOCK:   -7.05 KCAL/MOL
REMARK 924 INTRA-LIGAND FREE ENERGY PREDICTED BY IDOCK:   -1.52 KCAL/MOL
REMARK 927      BINDING AFFINITY PREDICTED BY RF-SCORE:    0.00 PKD
ROOT
HETATM    1  C   UNL     1     -11.698  12.130  66.227  1.00  0.00    -0.320 C  
HETATM    2  N   UNL     1     -10.930  12.080  67.468  1.00  0.00    -0.240 N  
HETATM    3  O   UNL     1     -12.479  10.761  68.543  1.00  0.00    -0.289 OA 
HETATM    4  C   UNL     1     -11.423  11.387  68.578  1.00  0.00    -0.297 C  
ENDROOT
BRANCH   2   5
HETATM    5  C   UNL     1      -9.670  12.756  67.455  1.00  0.00    -0.197 A  
HETATM    6  I   UNL     1      -8.734  10.016  66.358  1.00  0.00    -0.159 I  
HETATM    7  C   UNL     1      -9.610  14.143  67.747  1.00  0.00    -0.219 A  
HETATM    8  C   UNL     1      -8.365  14.803  67.799  1.00  0.00    -0.166 A  
HETATM    9  C   UNL     1      -8.485  12.037  67.151  1.00  0.00    -0.180 A  
HETATM   10  I   UNL     1     -11.478  15.198  68.064  1.00  0.00    -0.224 I  
HETATM   11  C   UNL     1      -7.214  12.655  67.267  1.00  0.00    -0.106 A  
HETATM   12  I   UNL     1      -5.285  14.902  68.272  1.00  0.00    -0.109 I  
HETATM   13  C   UNL     1      -7.175  14.027  67.645  1.00  0.00    -0.176 A  
BRANCH   8  14
HETATM   14  C   UNL     1      -8.271  16.296  67.834  1.00  0.00    -0.150 C  
HETATM   15  H   UNL     1      -8.068  17.819  69.061  1.00  0.00     0.000 HD 
HETATM   16  O   UNL     1      -8.128  16.871  69.039  1.00  0.00    -0.237 OA 
BRANCH  14  17
HETATM   17  N   UNL     1      -8.336  16.997  66.765  1.00  0.00    -0.215 NA 
HETATM   18  H   UNL     1      -8.253  16.559  65.847  1.00  0.00     0.000 HD 
BRANCH  17  19
HETATM   19  C   UNL     1      -8.532  18.449  66.892  1.00  0.00    -0.265 C  
BRANCH  19  20
HETATM   20  C   UNL     1      -9.862  18.841  66.236  1.00  0.00    -0.353 C  
HETATM   21  H   UNL     1     -11.196  17.986  65.065  1.00  0.00     0.000 HD 
HETATM   22  O   UNL     1     -10.372  17.743  65.471  1.00  0.00    -0.623 OA 
BRANCH  20  23
HETATM   23  C   UNL     1     -10.890  19.285  67.291  1.00  0.00    -0.449 C  
HETATM   24  O   UNL     1     -10.527  18.845  68.599  1.00  0.00    -0.436 OA 
HETATM   25  H   UNL     1     -11.162  19.120  69.250  1.00  0.00     0.000 HD 
ENDBRANCH  20  23
ENDBRANCH  19  20
ENDBRANCH  17  19
ENDBRANCH  14  17
ENDBRANCH   8  14
BRANCH  11  26
HETATM   26  C   UNL     1      -5.974  11.854  66.988  1.00  0.00    -0.153 C  
HETATM   27  O   UNL     1      -5.660  11.680  65.687  1.00  0.00    -0.458 OA 
HETATM   28  H   UNL     1      -4.876  11.173  65.510  1.00  0.00     0.000 HD 
BRANCH  26  29
HETATM   29  N   UNL     1      -5.276  11.303  67.910  1.00  0.00    -0.043 NA 
HETATM   30  H   UNL     1      -4.341  11.648  68.127  1.00  0.00     0.000 HD 
BRANCH  29  31
HETATM   31  C   UNL     1      -5.842  10.166  68.652  1.00  0.00    -0.041 C  
BRANCH  31  32
HETATM   32  C   UNL     1      -5.855  10.407  70.180  1.00  0.00    -0.074 C  
HETATM   33  O   UNL     1      -6.772  11.444  70.563  1.00  0.00    -0.488 OA 
HETATM   34  H   UNL     1      -6.780  11.592  71.502  1.00  0.00     0.000 HD 
BRANCH  32  35
HETATM   35  C   UNL     1      -6.260   9.120  70.919  1.00  0.00    -0.062 C  
HETATM   36  O   UNL     1      -7.465   9.278  71.669  1.00  0.00    -0.339 OA 
HETATM   37  H   UNL     1      -7.715   8.484  72.125  1.00  0.00     0.000 HD 
ENDBRANCH  32  35
ENDBRANCH  31  32
ENDBRANCH  29  31
ENDBRANCH  26  29
ENDBRANCH  11  26
ENDBRANCH   2   5
BRANCH   4  38
HETATM   38  C   UNL     1     -10.614  11.446  69.886  1.00  0.00     0.422 C  
HETATM   39  O   UNL     1      -9.685  10.382  69.972  1.00  0.00    -0.409 OA 
HETATM   40  H   UNL     1      -9.185  10.419  70.780  1.00  0.00     0.000 HD 
ENDBRANCH   4  38
TORSDOF 12
ENDMDL
MODEL       66
REMARK 921   NORMALIZED FREE ENERGY PREDICTED BY IDOCK:   -4.37 KCAL/MOL
REMARK 922        TOTAL FREE ENERGY PREDICTED BY IDOCK:   -8.47 KCAL/MOL
REMARK 923 INTER-LIGAND FREE ENERGY PREDICTED BY IDOCK:   -7.74 KCAL/MOL
REMARK 924 INTRA-LIGAND FREE ENERGY PREDICTED BY IDOCK:   -0.73 KCAL/MOL
REMARK 927      BINDING AFFINITY PREDICTED BY RF-SCORE:    0.00 PKD
ROOT
HETATM    1  C   UNL     1      -9.928   9.405  65.306  1.00  0.00     0.150 C  
HETATM    2  N   UNL     1      -9.317  10.302  66.282  1.00  0.00    -0.162 N  
HETATM    3  O   UNL     1      -7.183   9.918  65.515  1.00  0.00    -0.109 OA 
HETATM    4  C   UNL     1      -7.930  10.469  66.319  1.00  0.00    -0.144 C  
ENDROOT
BRANCH   2   5
HETATM    5  C   UNL     1     -10.218  10.988  67.157  1.00  0.00    -0.206 A  
HETATM    6  I   UNL     1     -10.219  13.013  64.815  1.00  0.00    -0.150 I  
HETATM    7  C   UNL     1     -10.662  10.357  68.348  1.00  0.00    -0.225 A  
HETATM    8  C   UNL     1     -11.500  11.050  69.246  1.00  0.00    -0.370 A  
HETATM    9  C   UNL     1     -10.663  12.295  66.830  1.00  0.00    -0.232 A  
HETATM   10  I   UNL     1     -10.049   8.308  68.705  1.00  0.00    -0.215 I  
HETATM   11  C   UNL     1     -11.443  13.044  67.748  1.00  0.00    -0.359 A  
HETATM   12  I   UNL     1     -12.603  13.638  70.591  1.00  0.00    -0.195 I  
HETATM   13  C   UNL     1     -11.807  12.420  68.975  1.00  0.00    -0.300 A  
BRANCH   8  14
HETATM   14  C   UNL     1     -12.204  10.346  70.363  1.00  0.00    -0.303 C  
HETATM   15  H   UNL     1     -13.967   9.681  70.924  1.00  0.00     0.000 HD 
HETATM   16  O   UNL     1     -13.520  10.129  70.215  1.00  0.00    -0.004 OA 
BRANCH  14  17
HETATM   17  N   UNL     1     -11.582   9.977  71.419  1.00  0.00    -0.351 NA 
HETATM   18  H   UNL     1     -10.594  10.198  71.548  1.00  0.00     0.000 HD 
BRANCH  17  19
HETATM   19  C   UNL     1     -12.327   9.228  72.443  1.00  0.00    -0.190 C  
BRANCH  19  20
HETATM   20  C   UNL     1     -11.763   7.805  72.541  1.00  0.00    -0.339 C  
HETATM   21  H   UNL     1     -11.936   6.117  71.541  1.00  0.00     0.000 HD 
HETATM   22  O   UNL     1     -12.285   6.999  71.480  1.00  0.00    -0.326 OA 
BRANCH  20  23
HETATM   23  C   UNL     1     -10.225   7.814  72.505  1.00  0.00    -0.260 C  
HETATM   24  O   UNL     1      -9.666   7.415  73.756  1.00  0.00    -0.268 OA 
HETATM   25  H   UNL     1      -8.717   7.420  73.733  1.00  0.00     0.000 HD 
ENDBRANCH  20  23
ENDBRANCH  19  20
ENDBRANCH  17  19
ENDBRANCH  14  17
ENDBRANCH   8  14
BRANCH  11  26
HETATM   26  C   UNL     1     -11.856  14.444  67.396  1.00  0.00    -0.400 C  
HETATM   27  O   UNL     1     -12.888  14.561  66.533  1.00  0.00    -0.353 OA 
HETATM   28  H   UNL     1     -13.149  15.447  66.310  1.00  0.00     0.000 HD 
BRANCH  26  29
HETATM   29  N   UNL     1     -11.240  15.483  67.824  1.00  0.00    -0.317 NA 
HETATM   30  H   UNL     1     -11.094  15.622  68.824  1.00  0.00     0.000 HD 
BRANCH  29  31
HETATM   31  C   UNL     1     -10.746  16.472  66.854  1.00  0.00    -0.175 C  
BRANCH  31  32
HETATM   32  C   UNL     1      -9.283  16.891  67.133  1.00  0.00    -0.229 C  
HETATM   33  O   UNL     1      -8.591  17.294  65.941  1.00  0.00    -0.528 OA 
HETATM   34  H   UNL     1      -7.693  17.551  66.112  1.00  0.00     0.000 HD 
BRANCH  32  35
HETATM   35  C   UNL     1      -9.247  18.069  68.123  1.00  0.00    -0.279 C  
HETATM   36  O   UNL     1     -10.428  18.146  68.921  1.00  0.00    -0.417 OA 
HETATM   37  H   UNL     1     -10.405  18.873  69.532  1.00  0.00     0.000 HD 
ENDBRANCH  32  35
ENDBRANCH  31  32
ENDBRANCH  29  31
ENDBRANCH  26  29
ENDBRANCH  11  26
ENDBRANCH   2   5
BRANCH   4  38
HETATM   38  C   UNL     1      -7.336  11.356  67.428  1.00  0.00    -0.119 C  
HETATM   39  O   UNL     1      -6.803  12.557  66.905  1.00  0.00    -0.366 OA 
HETATM   40  H   UNL     1      -6.436  13.104  67.590  1.00  0.00     0.000 HD 
ENDBRANCH   4  38
TORSDOF 12
ENDMDL
MODEL       67
REMARK 921   NORMALIZED FREE ENERGY PREDICTED BY IDOCK:   -4.36 KCAL/MOL
REMARK 922        TOTAL FREE ENERGY PREDICTED BY IDOCK:   -8.46 KCAL/MOL
REMARK 923 INTER-LIGAND FREE ENERGY PREDICTED BY IDOCK:   -7.97 KCAL/MOL
REMARK 924 INTRA-LIGAND FREE ENERGY PREDICTED BY IDOCK:   -0.49 KCAL/MOL
REMARK 927      BINDING AFFINITY PREDICTED BY RF-SCORE:    0.00 PKD
ROOT
HETATM    1  C   UNL     1     -10.117   9.976  65.256  1.00  0.00    -0.229 C  
HETATM    2  N   UNL     1      -9.281  10.585  66.287  1.00  0.00    -0.164 N  
HETATM    3  O   UNL     1      -7.433  10.705  64.922  1.00  0.00    -0.045 OA 
HETATM    4  C   UNL     1      -7.942  10.887  66.025  1.00  0.00    -0.132 C  
ENDROOT
BRANCH   2   5
HETATM    5  C   UNL     1      -9.921  10.854  67.538  1.00  0.00    -0.174 A  
HETATM    6  I   UNL     1      -8.861   8.013  68.164  1.00  0.00    -0.130 I  
HETATM    7  C   UNL     1     -10.450  12.144  67.797  1.00  0.00    -0.205 A  
HETATM    8  C   UNL     1     -11.138  12.398  69.001  1.00  0.00    -0.288 A  
HETATM    9  C   UNL     1     -10.026   9.828  68.513  1.00  0.00    -0.160 A  
HETATM   10  I   UNL     1     -10.127  13.693  66.314  1.00  0.00    -0.307 I  
HETATM   11  C   UNL     1     -10.776  10.032  69.699  1.00  0.00    -0.282 A  
HETATM   12  I   UNL     1     -12.880  11.551  71.445  1.00  0.00    -0.089 I  
HETATM   13  C   UNL     1     -11.369  11.311  69.898  1.00  0.00    -0.249 A  
BRANCH   8  14
HETATM   14  C   UNL     1     -11.473  13.792  69.433  1.00  0.00    -0.286 C  
HETATM   15  H   UNL     1     -12.626  15.325  69.005  1.00  0.00     0.000 HD 
HETATM   16  O   UNL     1     -12.415  14.441  68.730  1.00  0.00    -0.134 OA 
BRANCH  14  17
HETATM   17  N   UNL     1     -10.878  14.347  70.421  1.00  0.00    -0.424 NA 
HETATM   18  H   UNL     1     -10.054  13.919  70.843  1.00  0.00     0.000 HD 
BRANCH  17  19
HETATM   19  C   UNL     1     -11.412  15.618  70.934  1.00  0.00    -0.390 C  
BRANCH  19  20
HETATM   20  C   UNL     1     -11.966  15.403  72.347  1.00  0.00    -0.436 C  
HETATM   21  H   UNL     1     -12.021  16.409  74.040  1.00  0.00     0.000 HD 
HETATM   22  O   UNL     1     -11.678  16.543  73.164  1.00  0.00    -0.396 OA 
BRANCH  20  23
HETATM   23  C   UNL     1     -13.480  15.133  72.314  1.00  0.00    -0.437 C  
HETATM   24  O   UNL     1     -14.213  16.159  72.982  1.00  0.00    -0.533 OA 
HETATM   25  H   UNL     1     -15.149  15.992  72.961  1.00  0.00     0.000 HD 
ENDBRANCH  20  23
ENDBRANCH  19  20
ENDBRANCH  17  19
ENDBRANCH  14  17
ENDBRANCH   8  14
BRANCH  11  26
HETATM   26  C   UNL     1     -10.911   8.911  70.690  1.00  0.00    -0.241 C  
HETATM   27  O   UNL     1     -11.683   7.872  70.310  1.00  0.00    -0.473 OA 
HETATM   28  H   UNL     1     -11.770   7.163  70.936  1.00  0.00     0.000 HD 
BRANCH  26  29
HETATM   29  N   UNL     1     -10.389   8.945  71.859  1.00  0.00    -0.342 NA 
HETATM   30  H   UNL     1     -10.161   9.837  72.298  1.00  0.00     0.000 HD 
BRANCH  29  31
HETATM   31  C   UNL     1     -10.122   7.680  72.561  1.00  0.00    -0.229 C  
BRANCH  31  32
HETATM   32  C   UNL     1      -8.952   6.891  71.928  1.00  0.00    -0.137 C  
HETATM   33  O   UNL     1      -7.839   6.748  72.824  1.00  0.00    -0.098 OA 
HETATM   34  H   UNL     1      -7.120   6.264  72.435  1.00  0.00     0.000 HD 
BRANCH  32  35
HETATM   35  C   UNL     1      -9.417   5.481  71.523  1.00  0.00    -0.148 C  
HETATM   36  O   UNL     1     -10.837   5.340  71.576  1.00  0.00    -0.194 OA 
HETATM   37  H   UNL     1     -11.124   4.470  71.327  1.00  0.00     0.000 HD 
ENDBRANCH  32  35
ENDBRANCH  31  32
ENDBRANCH  29  31
ENDBRANCH  26  29
ENDBRANCH  11  26
ENDBRANCH   2   5
BRANCH   4  38
HETATM   38  C   UNL     1      -7.085  11.441  67.177  1.00  0.00    -0.134 C  
HETATM   39  O   UNL     1      -6.217  12.467  66.734  1.00  0.00    -0.484 OA 
HETATM   40  H   UNL     1      -5.688  12.809  67.446  1.00  0.00     0.000 HD 
ENDBRANCH   4  38
TORSDOF 12
ENDMDL
MODEL       68
REMARK 921   NORMALIZED FREE ENERGY PREDICTED BY IDOCK:   -4.35 KCAL/MOL
REMARK 922        TOTAL FREE ENERGY PREDICTED BY IDOCK:   -8.44 KCAL/MOL
REMARK 923 INTER-LIGAND FREE ENERGY PREDICTED BY IDOCK:   -7.45 KCAL/MOL
REMARK 924 INTRA-LIGAND FREE ENERGY PREDICTED BY IDOCK:   -0.99 KCAL/MOL
REMARK 927      BINDING AFFINITY PREDICTED BY RF-SCORE:    0.00 PKD
ROOT
HETATM    1  C   UNL     1      -9.458   8.287  72.728  1.00  0.00    -0.273 C  
HETATM    2  N   UNL     1     -10.235   7.938  71.542  1.00  0.00    -0.188 N  
HETATM    3  O   UNL     1     -11.673   6.572  72.708  1.00  0.00    -0.148 OA 
HETATM    4  C   UNL     1     -11.310   7.050  71.637  1.00  0.00    -0.257 C  
ENDROOT
BRANCH   2   5
HETATM    5  C   UNL     1      -9.835   8.568  70.321  1.00  0.00    -0.182 A  
HETATM    6  I   UNL     1      -8.224   5.939  70.035  1.00  0.00    -0.125 I  
HETATM    7  C   UNL     1     -10.449   9.782  69.920  1.00  0.00    -0.261 A  
HETATM    8  C   UNL     1     -10.016  10.441  68.751  1.00  0.00    -0.196 A  
HETATM    9  C   UNL     1      -8.826   7.975  69.519  1.00  0.00    -0.144 A  
HETATM   10  I   UNL     1     -12.078  10.548  71.128  1.00  0.00    -0.327 I  
HETATM   11  C   UNL     1      -8.319   8.651  68.380  1.00  0.00    -0.127 A  
HETATM   12  I   UNL     1      -7.880  11.189  66.606  1.00  0.00    -0.084 I  
HETATM   13  C   UNL     1      -8.893   9.910  68.044  1.00  0.00    -0.125 A  
BRANCH   8  14
HETATM   14  C   UNL     1     -10.801  11.563  68.148  1.00  0.00    -0.215 C  
HETATM   15  H   UNL     1     -11.063  13.510  68.237  1.00  0.00     0.000 HD 
HETATM   16  O   UNL     1     -10.565  12.797  68.620  1.00  0.00    -0.247 OA 
BRANCH  14  17
HETATM   17  N   UNL     1     -11.670  11.356  67.231  1.00  0.00    -0.583 NA 
HETATM   18  H   UNL     1     -11.979  10.409  67.009  1.00  0.00     0.000 HD 
BRANCH  17  19
HETATM   19  C   UNL     1     -12.210  12.515  66.504  1.00  0.00     0.019 C  
BRANCH  19  20
HETATM   20  C   UNL     1     -11.965  12.331  65.001  1.00  0.00    -0.354 C  
HETATM   21  H   UNL     1     -13.040  11.882  63.413  1.00  0.00     0.000 HD 
HETATM   22  O   UNL     1     -13.192  11.996  64.344  1.00  0.00    -0.669 OA 
BRANCH  20  23
HETATM   23  C   UNL     1     -11.350  13.597  64.381  1.00  0.00    -0.374 C  
HETATM   24  O   UNL     1     -12.344  14.425  63.777  1.00  0.00    -0.990 OA 
HETATM   25  H   UNL     1     -11.963  15.207  63.394  1.00  0.00     0.000 HD 
ENDBRANCH  20  23
ENDBRANCH  19  20
ENDBRANCH  17  19
ENDBRANCH  14  17
ENDBRANCH   8  14
BRANCH  11  26
HETATM   26  C   UNL     1      -7.215   8.023  67.578  1.00  0.00    -0.088 C  
HETATM   27  O   UNL     1      -5.957   8.312  67.970  1.00  0.00    -0.041 OA 
HETATM   28  H   UNL     1      -5.258   7.915  67.463  1.00  0.00     0.000 HD 
BRANCH  26  29
HETATM   29  N   UNL     1      -7.428   7.304  66.539  1.00  0.00    -0.086 NA 
HETATM   30  H   UNL     1      -6.648   6.931  65.999  1.00  0.00     0.000 HD 
BRANCH  29  31
HETATM   31  C   UNL     1      -8.815   7.023  66.136  1.00  0.00    -0.147 C  
BRANCH  31  32
HETATM   32  C   UNL     1      -9.103   5.507  66.031  1.00  0.00    -0.156 C  
HETATM   33  O   UNL     1     -10.503   5.225  65.882  1.00  0.00    -0.429 OA 
HETATM   34  H   UNL     1     -10.681   4.293  65.817  1.00  0.00     0.000 HD 
BRANCH  32  35
HETATM   35  C   UNL     1      -8.368   4.908  64.820  1.00  0.00    -0.136 C  
HETATM   36  O   UNL     1      -7.094   4.365  65.170  1.00  0.00    -0.060 OA 
HETATM   37  H   UNL     1      -6.640   3.996  64.422  1.00  0.00     0.000 HD 
ENDBRANCH  32  35
ENDBRANCH  31  32
ENDBRANCH  29  31
ENDBRANCH  26  29
ENDBRANCH  11  26
ENDBRANCH   2   5
BRANCH   4  38
HETATM   38  C   UNL     1     -12.035   6.649  70.339  1.00  0.00    -0.280 C  
HETATM   39  O   UNL     1     -13.405   6.997  70.379  1.00  0.00    -0.181 OA 
HETATM   40  H   UNL     1     -13.852   6.749  69.577  1.00  0.00     0.000 HD 
ENDBRANCH   4  38
TORSDOF 12
ENDMDL
MODEL       69
REMARK 921   NORMALIZED FREE ENERGY PREDICTED BY IDOCK:   -4.35 KCAL/MOL
REMARK 922        TOTAL FREE ENERGY PREDICTED BY IDOCK:   -8.44 KCAL/MOL
REMARK 923 INTER-LIGAND FREE ENERGY PREDICTED BY IDOCK:   -7.41 KCAL/MOL
REMARK 924 INTRA-LIGAND FREE ENERGY PREDICTED BY IDOCK:   -1.04 KCAL/MOL
REMARK 927      BINDING AFFINITY PREDICTED BY RF-SCORE:    0.00 PKD
ROOT
HETATM    1  C   UNL     1      -8.876   9.620  65.773  1.00  0.00    -0.157 C  
HETATM    2  N   UNL     1      -8.545  10.033  67.134  1.00  0.00    -0.128 N  
HETATM    3  O   UNL     1      -6.787  11.356  66.460  1.00  0.00    -0.130 OA 
HETATM    4  C   UNL     1      -7.463  10.885  67.371  1.00  0.00    -0.100 C  
ENDROOT
BRANCH   2   5
HETATM    5  C   UNL     1      -9.394   9.528  68.168  1.00  0.00    -0.133 A  
HETATM    6  I   UNL     1     -10.982  12.096  67.479  1.00  0.00    -0.381 I  
HETATM    7  C   UNL     1      -9.150   8.243  68.718  1.00  0.00    -0.144 A  
HETATM    8  C   UNL     1      -9.944   7.766  69.781  1.00  0.00    -0.189 A  
HETATM    9  C   UNL     1     -10.476  10.315  68.640  1.00  0.00    -0.193 A  
HETATM   10  I   UNL     1      -7.566   7.047  67.846  1.00  0.00    -0.116 I  
HETATM   11  C   UNL     1     -11.244   9.894  69.756  1.00  0.00    -0.279 A  
HETATM   12  I   UNL     1     -11.745   8.143  72.298  1.00  0.00    -0.416 I  
HETATM   13  C   UNL     1     -10.926   8.638  70.345  1.00  0.00    -0.235 A  
BRANCH   8  14
HETATM   14  C   UNL     1      -9.903   6.331  70.207  1.00  0.00    -0.168 C  
HETATM   15  H   UNL     1     -10.696   4.570  69.841  1.00  0.00     0.000 HD 
HETATM   16  O   UNL     1     -10.722   5.480  69.570  1.00  0.00    -0.310 OA 
BRANCH  14  17
HETATM   17  N   UNL     1      -9.128   5.934  71.145  1.00  0.00    -0.142 NA 
HETATM   18  H   UNL     1      -9.217   4.995  71.534  1.00  0.00     0.000 HD 
BRANCH  17  19
HETATM   19  C   UNL     1      -8.107   6.865  71.650  1.00  0.00    -0.105 C  
BRANCH  19  20
HETATM   20  C   UNL     1      -7.756   6.498  73.097  1.00  0.00    -0.096 C  
HETATM   21  H   UNL     1      -8.723   5.887  74.702  1.00  0.00     0.000 HD 
HETATM   22  O   UNL     1      -8.940   6.115  73.805  1.00  0.00    -0.126 OA 
BRANCH  20  23
HETATM   23  C   UNL     1      -6.711   5.371  73.146  1.00  0.00    -0.077 C  
HETATM   24  O   UNL     1      -6.910   4.422  72.098  1.00  0.00    -0.045 OA 
HETATM   25  H   UNL     1      -6.264   3.726  72.128  1.00  0.00     0.000 HD 
ENDBRANCH  20  23
ENDBRANCH  19  20
ENDBRANCH  17  19
ENDBRANCH  14  17
ENDBRANCH   8  14
BRANCH  11  26
HETATM   26  C   UNL     1     -12.351  10.772  70.266  1.00  0.00    -0.341 C  
HETATM   27  O   UNL     1     -13.604  10.412  69.917  1.00  0.00    -0.317 OA 
HETATM   28  H   UNL     1     -14.304  10.967  70.239  1.00  0.00     0.000 HD 
BRANCH  26  29
HETATM   29  N   UNL     1     -12.141  11.842  70.938  1.00  0.00    -0.404 NA 
HETATM   30  H   UNL     1     -11.300  12.397  70.778  1.00  0.00     0.000 HD 
BRANCH  29  31
HETATM   31  C   UNL     1     -13.129  12.261  71.944  1.00  0.00    -0.363 C  
BRANCH  31  32
HETATM   32  C   UNL     1     -13.490  13.760  71.828  1.00  0.00    -0.376 C  
HETATM   33  O   UNL     1     -13.546  14.411  73.107  1.00  0.00    -0.602 OA 
HETATM   34  H   UNL     1     -13.768  15.332  73.036  1.00  0.00     0.000 HD 
BRANCH  32  35
HETATM   35  C   UNL     1     -12.445  14.494  70.970  1.00  0.00    -0.341 C  
HETATM   36  O   UNL     1     -12.879  14.678  69.622  1.00  0.00    -0.564 OA 
HETATM   37  H   UNL     1     -12.234  15.130  69.092  1.00  0.00     0.000 HD 
ENDBRANCH  32  35
ENDBRANCH  31  32
ENDBRANCH  29  31
ENDBRANCH  26  29
ENDBRANCH  11  26
ENDBRANCH   2   5
BRANCH   4  38
HETATM   38  C   UNL     1      -7.105  11.212  68.832  1.00  0.00    -0.101 C  
HETATM   39  O   UNL     1      -7.591  12.484  69.216  1.00  0.00    -0.326 OA 
HETATM   40  H   UNL     1      -7.370  12.685  70.118  1.00  0.00     0.000 HD 
ENDBRANCH   4  38
TORSDOF 12
ENDMDL
MODEL       70
REMARK 921   NORMALIZED FREE ENERGY PREDICTED BY IDOCK:   -4.34 KCAL/MOL
REMARK 922        TOTAL FREE ENERGY PREDICTED BY IDOCK:   -8.43 KCAL/MOL
REMARK 923 INTER-LIGAND FREE ENERGY PREDICTED BY IDOCK:   -7.42 KCAL/MOL
REMARK 924 INTRA-LIGAND FREE ENERGY PREDICTED BY IDOCK:   -1.01 KCAL/MOL
REMARK 927      BINDING AFFINITY PREDICTED BY RF-SCORE:    0.00 PKD
ROOT
HETATM    1  C   UNL     1     -11.085  14.226  69.416  1.00  0.00    -0.246 C  
HETATM    2  N   UNL     1     -10.951  13.222  68.363  1.00  0.00    -0.254 N  
HETATM    3  O   UNL     1     -12.552  14.197  67.030  1.00  0.00    -0.204 OA 
HETATM    4  C   UNL     1     -11.751  13.286  67.220  1.00  0.00    -0.377 C  
ENDROOT
BRANCH   2   5
HETATM    5  C   UNL     1      -9.959  12.215  68.579  1.00  0.00    -0.175 A  
HETATM    6  I   UNL     1      -8.165  14.347  67.228  1.00  0.00    -0.084 I  
HETATM    7  C   UNL     1     -10.281  11.056  69.331  1.00  0.00    -0.067 A  
HETATM    8  C   UNL     1      -9.328  10.029  69.493  1.00  0.00    -0.247 A  
HETATM    9  C   UNL     1      -8.657  12.378  68.038  1.00  0.00    -0.180 A  
HETATM   10  I   UNL     1     -12.246  10.947  70.240  1.00  0.00    -0.395 I  
HETATM   11  C   UNL     1      -7.703  11.332  68.121  1.00  0.00    -0.112 A  
HETATM   12  I   UNL     1      -6.855   8.358  68.590  1.00  0.00    -0.065 I  
HETATM   13  C   UNL     1      -8.079  10.143  68.808  1.00  0.00    -0.111 A  
BRANCH   8  14
HETATM   14  C   UNL     1      -9.524   8.929  70.488  1.00  0.00    -0.204 C  
HETATM   15  H   UNL     1      -9.006   8.344  72.292  1.00  0.00     0.000 HD 
HETATM   16  O   UNL     1      -8.881   9.043  71.661  1.00  0.00    -0.329 OA 
BRANCH  14  17
HETATM   17  N   UNL     1     -10.262   7.915  70.229  1.00  0.00    -0.197 NA 
HETATM   18  H   UNL     1     -11.131   8.022  69.705  1.00  0.00     0.000 HD 
BRANCH  17  19
HETATM   19  C   UNL     1      -9.827   6.593  70.704  1.00  0.00    -0.183 C  
BRANCH  19  20
HETATM   20  C   UNL     1     -10.860   6.045  71.696  1.00  0.00    -0.260 C  
HETATM   21  H   UNL     1     -10.958   5.713  73.636  1.00  0.00     0.000 HD 
HETATM   22  O   UNL     1     -10.318   6.053  73.021  1.00  0.00    -0.186 OA 
BRANCH  20  23
HETATM   23  C   UNL     1     -12.165   6.858  71.644  1.00  0.00    -0.361 C  
HETATM   24  O   UNL     1     -12.247   7.794  72.718  1.00  0.00    -0.587 OA 
HETATM   25  H   UNL     1     -13.053   8.296  72.685  1.00  0.00     0.000 HD 
ENDBRANCH  20  23
ENDBRANCH  19  20
ENDBRANCH  17  19
ENDBRANCH  14  17
ENDBRANCH   8  14
BRANCH  11  26
HETATM   26  C   UNL     1      -6.350  11.514  67.495  1.00  0.00    -0.076 C  
HETATM   27  O   UNL     1      -5.322  11.708  68.347  1.00  0.00    -0.046 OA 
HETATM   28  H   UNL     1      -4.466  11.824  67.951  1.00  0.00     0.000 HD 
BRANCH  26  29
HETATM   29  N   UNL     1      -6.166  11.552  66.227  1.00  0.00    -0.375 NA 
HETATM   30  H   UNL     1      -5.917  12.427  65.767  1.00  0.00     0.000 HD 
BRANCH  29  31
HETATM   31  C   UNL     1      -6.318  10.316  65.445  1.00  0.00    -0.124 C  
BRANCH  31  32
HETATM   32  C   UNL     1      -7.644  10.281  64.649  1.00  0.00    -0.103 C  
HETATM   33  O   UNL     1      -7.473  10.691  63.282  1.00  0.00    -0.330 OA 
HETATM   34  H   UNL     1      -8.287  10.670  62.793  1.00  0.00     0.000 HD 
BRANCH  32  35
HETATM   35  C   UNL     1      -8.227   8.858  64.647  1.00  0.00    -0.163 C  
HETATM   36  O   UNL     1      -9.451   8.770  65.376  1.00  0.00    -0.443 OA 
HETATM   37  H   UNL     1      -9.811   7.891  65.375  1.00  0.00     0.000 HD 
ENDBRANCH  32  35
ENDBRANCH  31  32
ENDBRANCH  29  31
ENDBRANCH  26  29
ENDBRANCH  11  26
ENDBRANCH   2   5
BRANCH   4  38
HETATM   38  C   UNL     1     -11.631  12.150  66.188  1.00  0.00    -0.354 C  
HETATM   39  O   UNL     1     -12.650  12.225  65.209  1.00  0.00    -0.583 OA 
HETATM   40  H   UNL     1     -12.576  11.524  64.572  1.00  0.00     0.000 HD 
ENDBRANCH   4  38
TORSDOF 12
ENDMDL
MODEL       71
REMARK 921   NORMALIZED FREE ENERGY PREDICTED BY IDOCK:   -4.34 KCAL/MOL
REMARK 922        TOTAL FREE ENERGY PREDICTED BY IDOCK:   -8.42 KCAL/MOL
REMARK 923 INTER-LIGAND FREE ENERGY PREDICTED BY IDOCK:   -7.56 KCAL/MOL
REMARK 924 INTRA-LIGAND FREE ENERGY PREDICTED BY IDOCK:   -0.86 KCAL/MOL
REMARK 927      BINDING AFFINITY PREDICTED BY RF-SCORE:    0.00 PKD
ROOT
HETATM    1  C   UNL     1     -10.528  15.119  69.957  1.00  0.00    -0.185 C  
HETATM    2  N   UNL     1     -10.809  14.264  68.808  1.00  0.00    -0.246 N  
HETATM    3  O   UNL     1     -12.065  15.868  67.739  1.00  0.00     0.233 OA 
HETATM    4  C   UNL     1     -11.611  14.727  67.761  1.00  0.00    -0.357 C  
ENDROOT
BRANCH   2   5
HETATM    5  C   UNL     1     -10.206  12.967  68.826  1.00  0.00    -0.091 A  
HETATM    6  I   UNL     1      -7.931  14.512  67.404  1.00  0.00    -0.114 I  
HETATM    7  C   UNL     1     -10.832  11.908  69.534  1.00  0.00     0.050 A  
HETATM    8  C   UNL     1     -10.277  10.612  69.504  1.00  0.00    -0.190 A  
HETATM    9  C   UNL     1      -8.987  12.745  68.136  1.00  0.00    -0.199 A  
HETATM   10  I   UNL     1     -12.617  12.363  70.677  1.00  0.00     0.117 I  
HETATM   11  C   UNL     1      -8.445  11.438  68.026  1.00  0.00    -0.145 A  
HETATM   12  I   UNL     1      -8.627   8.320  68.183  1.00  0.00    -0.131 I  
HETATM   13  C   UNL     1      -9.137  10.376  68.675  1.00  0.00    -0.157 A  
BRANCH   8  14
HETATM   14  C   UNL     1     -10.741   9.540  70.440  1.00  0.00    -0.284 C  
HETATM   15  H   UNL     1     -10.306   8.658  72.142  1.00  0.00     0.000 HD 
HETATM   16  O   UNL     1     -10.011   9.338  71.548  1.00  0.00    -0.307 OA 
BRANCH  14  17
HETATM   17  N   UNL     1     -11.781   8.836  70.189  1.00  0.00    -0.453 NA 
HETATM   18  H   UNL     1     -12.096   8.693  69.230  1.00  0.00     0.000 HD 
BRANCH  17  19
HETATM   19  C   UNL     1     -12.510   8.240  71.319  1.00  0.00    -0.245 C  
BRANCH  19  20
HETATM   20  C   UNL     1     -12.250   6.729  71.351  1.00  0.00    -0.363 C  
HETATM   21  H   UNL     1     -11.481   5.375  70.144  1.00  0.00     0.000 HD 
HETATM   22  O   UNL     1     -11.643   6.312  70.123  1.00  0.00    -0.413 OA 
BRANCH  20  23
HETATM   23  C   UNL     1     -11.364   6.345  72.548  1.00  0.00    -0.264 C  
HETATM   24  O   UNL     1     -11.331   7.377  73.533  1.00  0.00    -0.601 OA 
HETATM   25  H   UNL     1     -10.784   7.139  74.273  1.00  0.00     0.000 HD 
ENDBRANCH  20  23
ENDBRANCH  19  20
ENDBRANCH  17  19
ENDBRANCH  14  17
ENDBRANCH   8  14
BRANCH  11  26
HETATM   26  C   UNL     1      -7.180  11.225  67.246  1.00  0.00    -0.114 C  
HETATM   27  O   UNL     1      -6.053  11.071  67.973  1.00  0.00    -0.049 OA 
HETATM   28  H   UNL     1      -5.252  10.936  67.480  1.00  0.00     0.000 HD 
BRANCH  26  29
HETATM   29  N   UNL     1      -7.135  11.250  65.966  1.00  0.00    -0.368 NA 
HETATM   30  H   UNL     1      -6.681  12.022  65.479  1.00  0.00     0.000 HD 
BRANCH  29  31
HETATM   31  C   UNL     1      -7.749  10.149  65.208  1.00  0.00    -0.144 C  
BRANCH  31  32
HETATM   32  C   UNL     1      -9.158  10.509  64.682  1.00  0.00    -0.218 C  
HETATM   33  O   UNL     1      -9.403  11.924  64.696  1.00  0.00    -0.428 OA 
HETATM   34  H   UNL     1     -10.269  12.145  64.373  1.00  0.00     0.000 HD 
BRANCH  32  35
HETATM   35  C   UNL     1      -9.330  10.013  63.236  1.00  0.00    -0.256 C  
HETATM   36  O   UNL     1     -10.414  10.655  62.565  1.00  0.00    -0.719 OA 
HETATM   37  H   UNL     1     -10.520  10.349  61.672  1.00  0.00     0.000 HD 
ENDBRANCH  32  35
ENDBRANCH  31  32
ENDBRANCH  29  31
ENDBRANCH  26  29
ENDBRANCH  11  26
ENDBRANCH   2   5
BRANCH   4  38
HETATM   38  C   UNL     1     -11.949  13.751  66.620  1.00  0.00    -0.431 C  
HETATM   39  O   UNL     1     -13.188  14.066  66.015  1.00  0.00    -0.488 OA 
HETATM   40  H   UNL     1     -13.396  13.463  65.310  1.00  0.00     0.000 HD 
ENDBRANCH   4  38
TORSDOF 12
ENDMDL
MODEL       72
REMARK 921   NORMALIZED FREE ENERGY PREDICTED BY IDOCK:   -4.34 KCAL/MOL
REMARK 922        TOTAL FREE ENERGY PREDICTED BY IDOCK:   -8.42 KCAL/MOL
REMARK 923 INTER-LIGAND FREE ENERGY PREDICTED BY IDOCK:   -6.79 KCAL/MOL
REMARK 924 INTRA-LIGAND FREE ENERGY PREDICTED BY IDOCK:   -1.63 KCAL/MOL
REMARK 927      BINDING AFFINITY PREDICTED BY RF-SCORE:    0.00 PKD
ROOT
HETATM    1  C   UNL     1     -11.615   6.624  69.465  1.00  0.00    -0.195 C  
HETATM    2  N   UNL     1     -10.369   7.375  69.587  1.00  0.00    -0.217 N  
HETATM    3  O   UNL     1      -9.873   6.497  71.655  1.00  0.00    -0.168 OA 
HETATM    4  C   UNL     1      -9.582   7.258  70.736  1.00  0.00    -0.171 C  
ENDROOT
BRANCH   2   5
HETATM    5  C   UNL     1     -10.018   8.197  68.470  1.00  0.00    -0.190 A  
HETATM    6  I   UNL     1     -11.426  10.345  70.198  1.00  0.00    -0.425 I  
HETATM    7  C   UNL     1      -9.197   7.673  67.438  1.00  0.00    -0.132 A  
HETATM    8  C   UNL     1      -8.900   8.455  66.303  1.00  0.00    -0.190 A  
HETATM    9  C   UNL     1     -10.494   9.532  68.398  1.00  0.00    -0.224 A  
HETATM   10  I   UNL     1      -8.397   5.673  67.690  1.00  0.00    -0.095 I  
HETATM   11  C   UNL     1     -10.274  10.316  67.237  1.00  0.00    -0.267 A  
HETATM   12  I   UNL     1      -9.525  10.693  64.224  1.00  0.00    -0.387 I  
HETATM   13  C   UNL     1      -9.518   9.738  66.178  1.00  0.00    -0.205 A  
BRANCH   8  14
HETATM   14  C   UNL     1      -7.835   8.054  65.332  1.00  0.00    -0.106 C  
HETATM   15  H   UNL     1      -7.494   6.899  63.778  1.00  0.00     0.000 HD 
HETATM   16  O   UNL     1      -8.170   7.153  64.395  1.00  0.00    -0.090 OA 
BRANCH  14  17
HETATM   17  N   UNL     1      -6.651   8.537  65.399  1.00  0.00    -0.059 NA 
HETATM   18  H   UNL     1      -6.099   8.685  64.554  1.00  0.00     0.000 HD 
BRANCH  17  19
HETATM   19  C   UNL     1      -6.108   8.874  66.723  1.00  0.00    -0.057 C  
BRANCH  19  20
HETATM   20  C   UNL     1      -5.717  10.357  66.749  1.00  0.00    -0.049 C  
HETATM   21  H   UNL     1      -5.456  11.800  65.433  1.00  0.00     0.000 HD 
HETATM   22  O   UNL     1      -5.698  10.881  65.417  1.00  0.00    -0.131 OA 
BRANCH  20  23
HETATM   23  C   UNL     1      -6.679  11.169  67.633  1.00  0.00    -0.071 C  
HETATM   24  O   UNL     1      -7.139  12.346  66.970  1.00  0.00    -0.323 OA 
HETATM   25  H   UNL     1      -7.733  12.847  67.516  1.00  0.00     0.000 HD 
ENDBRANCH  20  23
ENDBRANCH  19  20
ENDBRANCH  17  19
ENDBRANCH  14  17
ENDBRANCH   8  14
BRANCH  11  26
HETATM   26  C   UNL     1     -10.833  11.708  67.168  1.00  0.00    -0.261 C  
HETATM   27  O   UNL     1     -12.140  11.809  66.848  1.00  0.00    -0.566 OA 
HETATM   28  H   UNL     1     -12.494  12.689  66.804  1.00  0.00     0.000 HD 
BRANCH  26  29
HETATM   29  N   UNL     1     -10.117  12.758  67.335  1.00  0.00    -0.217 NA 
HETATM   30  H   UNL     1      -9.375  12.772  68.034  1.00  0.00     0.000 HD 
BRANCH  29  31
HETATM   31  C   UNL     1     -10.380  13.943  66.504  1.00  0.00    -0.286 C  
BRANCH  31  32
HETATM   32  C   UNL     1     -10.104  15.265  67.258  1.00  0.00    -0.236 C  
HETATM   33  O   UNL     1     -10.420  16.422  66.468  1.00  0.00    -0.302 OA 
HETATM   34  H   UNL     1     -10.250  17.234  66.931  1.00  0.00     0.000 HD 
BRANCH  32  35
HETATM   35  C   UNL     1     -10.943  15.328  68.546  1.00  0.00    -0.266 C  
HETATM   36  O   UNL     1     -10.441  14.464  69.566  1.00  0.00    -0.412 OA 
HETATM   37  H   UNL     1     -10.959  14.503  70.361  1.00  0.00     0.000 HD 
ENDBRANCH  32  35
ENDBRANCH  31  32
ENDBRANCH  29  31
ENDBRANCH  26  29
ENDBRANCH  11  26
ENDBRANCH   2   5
BRANCH   4  38
HETATM   38  C   UNL     1      -8.327   8.143  70.848  1.00  0.00    -0.121 C  
HETATM   39  O   UNL     1      -8.331   8.903  72.041  1.00  0.00    -0.367 OA 
HETATM   40  H   UNL     1      -7.556   9.449  72.110  1.00  0.00     0.000 HD 
ENDBRANCH   4  38
TORSDOF 12
ENDMDL
MODEL       73
REMARK 921   NORMALIZED FREE ENERGY PREDICTED BY IDOCK:   -4.34 KCAL/MOL
REMARK 922        TOTAL FREE ENERGY PREDICTED BY IDOCK:   -8.42 KCAL/MOL
REMARK 923 INTER-LIGAND FREE ENERGY PREDICTED BY IDOCK:   -8.09 KCAL/MOL
REMARK 924 INTRA-LIGAND FREE ENERGY PREDICTED BY IDOCK:   -0.32 KCAL/MOL
REMARK 927      BINDING AFFINITY PREDICTED BY RF-SCORE:    0.00 PKD
ROOT
HETATM    1  C   UNL     1     -12.873   7.739  71.215  1.00  0.00    -0.233 C  
HETATM    2  N   UNL     1     -11.472   8.149  71.221  1.00  0.00    -0.261 N  
HETATM    3  O   UNL     1     -11.162   7.575  73.427  1.00  0.00    -0.296 OA 
HETATM    4  C   UNL     1     -10.710   8.049  72.388  1.00  0.00    -0.320 C  
ENDROOT
BRANCH   2   5
HETATM    5  C   UNL     1     -10.952   8.628  69.977  1.00  0.00    -0.203 A  
HETATM    6  I   UNL     1     -10.492   5.598  69.532  1.00  0.00    -0.299 I  
HETATM    7  C   UNL     1     -11.082   9.999  69.639  1.00  0.00    -0.259 A  
HETATM    8  C   UNL     1     -10.517  10.491  68.445  1.00  0.00    -0.212 A  
HETATM    9  C   UNL     1     -10.307   7.729  69.088  1.00  0.00    -0.215 A  
HETATM   10  I   UNL     1     -12.202  11.278  70.986  1.00  0.00    -0.055 I  
HETATM   11  C   UNL     1      -9.665   8.207  67.917  1.00  0.00    -0.191 A  
HETATM   12  I   UNL     1      -8.420  10.457  66.137  1.00  0.00    -0.174 I  
HETATM   13  C   UNL     1      -9.737   9.602  67.642  1.00  0.00    -0.149 A  
BRANCH   8  14
HETATM   14  C   UNL     1     -10.855  11.851  67.920  1.00  0.00    -0.213 C  
HETATM   15  H   UNL     1     -10.351  13.747  68.054  1.00  0.00     0.000 HD 
HETATM   16  O   UNL     1     -10.136  12.884  68.387  1.00  0.00    -0.233 OA 
BRANCH  14  17
HETATM   17  N   UNL     1     -11.797  12.026  67.071  1.00  0.00    -0.611 NA 
HETATM   18  H   UNL     1     -12.249  11.230  66.621  1.00  0.00     0.000 HD 
BRANCH  17  19
HETATM   19  C   UNL     1     -12.213  13.403  66.761  1.00  0.00    -0.312 C  
BRANCH  19  20
HETATM   20  C   UNL     1     -12.870  13.435  65.375  1.00  0.00    -0.326 C  
HETATM   21  H   UNL     1     -13.923  14.715  64.312  1.00  0.00     0.000 HD 
HETATM   22  O   UNL     1     -13.516  14.696  65.170  1.00  0.00    -0.206 OA 
BRANCH  20  23
HETATM   23  C   UNL     1     -11.837  13.172  64.266  1.00  0.00    -0.406 C  
HETATM   24  O   UNL     1     -12.277  13.679  63.006  1.00  0.00    -0.995 OA 
HETATM   25  H   UNL     1     -11.639  13.516  62.321  1.00  0.00     0.000 HD 
ENDBRANCH  20  23
ENDBRANCH  19  20
ENDBRANCH  17  19
ENDBRANCH  14  17
ENDBRANCH   8  14
BRANCH  11  26
HETATM   26  C   UNL     1      -8.946   7.239  67.021  1.00  0.00    -0.130 C  
HETATM   27  O   UNL     1      -9.683   6.683  66.036  1.00  0.00    -0.397 OA 
HETATM   28  H   UNL     1      -9.229   6.070  65.469  1.00  0.00     0.000 HD 
BRANCH  26  29
HETATM   29  N   UNL     1      -7.725   6.896  67.200  1.00  0.00    -0.106 NA 
HETATM   30  H   UNL     1      -6.971   7.560  67.030  1.00  0.00     0.000 HD 
BRANCH  29  31
HETATM   31  C   UNL     1      -7.426   5.529  67.654  1.00  0.00    -0.081 C  
BRANCH  31  32
HETATM   32  C   UNL     1      -7.598   4.483  66.528  1.00  0.00    -0.090 C  
HETATM   33  O   UNL     1      -6.339   4.013  66.020  1.00  0.00    -0.031 OA 
HETATM   34  H   UNL     1      -6.444   3.371  65.328  1.00  0.00     0.000 HD 
BRANCH  32  35
HETATM   35  C   UNL     1      -8.382   3.265  67.047  1.00  0.00    -0.097 C  
HETATM   36  O   UNL     1      -9.675   3.155  66.450  1.00  0.00    -0.407 OA 
HETATM   37  H   UNL     1     -10.159   2.404  66.771  1.00  0.00     0.000 HD 
ENDBRANCH  32  35
ENDBRANCH  31  32
ENDBRANCH  29  31
ENDBRANCH  26  29
ENDBRANCH  11  26
ENDBRANCH   2   5
BRANCH   4  38
HETATM   38  C   UNL     1      -9.266   8.582  72.359  1.00  0.00    -0.258 C  
HETATM   39  O   UNL     1      -8.657   8.504  73.633  1.00  0.00    -0.325 OA 
HETATM   40  H   UNL     1      -7.765   8.833  73.615  1.00  0.00     0.000 HD 
ENDBRANCH   4  38
TORSDOF 12
ENDMDL
MODEL       74
REMARK 921   NORMALIZED FREE ENERGY PREDICTED BY IDOCK:   -4.33 KCAL/MOL
REMARK 922        TOTAL FREE ENERGY PREDICTED BY IDOCK:   -8.41 KCAL/MOL
REMARK 923 INTER-LIGAND FREE ENERGY PREDICTED BY IDOCK:   -7.59 KCAL/MOL
REMARK 924 INTRA-LIGAND FREE ENERGY PREDICTED BY IDOCK:   -0.81 KCAL/MOL
REMARK 927      BINDING AFFINITY PREDICTED BY RF-SCORE:    0.00 PKD
ROOT
HETATM    1  C   UNL     1      -9.255   6.205  69.320  1.00  0.00    -0.132 C  
HETATM    2  N   UNL     1      -8.573   7.434  69.716  1.00  0.00    -0.139 N  
HETATM    3  O   UNL     1      -7.098   6.341  71.102  1.00  0.00    -0.070 OA 
HETATM    4  C   UNL     1      -7.521   7.395  70.634  1.00  0.00    -0.078 C  
ENDROOT
BRANCH   2   5
HETATM    5  C   UNL     1      -9.039   8.637  69.098  1.00  0.00    -0.142 A  
HETATM    6  I   UNL     1     -10.766   8.739  71.666  1.00  0.00    -0.432 I  
HETATM    7  C   UNL     1      -8.412   9.113  67.918  1.00  0.00    -0.117 A  
HETATM    8  C   UNL     1      -8.905  10.263  67.269  1.00  0.00    -0.136 A  
HETATM    9  C   UNL     1     -10.127   9.348  69.668  1.00  0.00    -0.206 A  
HETATM   10  I   UNL     1      -6.669   8.048  67.190  1.00  0.00    -0.068 I  
HETATM   11  C   UNL     1     -10.692  10.464  68.998  1.00  0.00    -0.260 A  
HETATM   12  I   UNL     1     -11.166  12.263  66.484  1.00  0.00    -0.423 I  
HETATM   13  C   UNL     1     -10.097  10.872  67.770  1.00  0.00    -0.177 A  
BRANCH   8  14
HETATM   14  C   UNL     1      -8.125  10.950  66.192  1.00  0.00    -0.160 C  
HETATM   15  H   UNL     1      -7.980  11.126  64.239  1.00  0.00     0.000 HD 
HETATM   16  O   UNL     1      -8.476  10.690  64.922  1.00  0.00    -0.172 OA 
BRANCH  14  17
HETATM   17  N   UNL     1      -7.158  11.742  66.467  1.00  0.00    -0.376 NA 
HETATM   18  H   UNL     1      -6.248  11.631  66.020  1.00  0.00     0.000 HD 
BRANCH  17  19
HETATM   19  C   UNL     1      -7.391  12.817  67.444  1.00  0.00    -0.134 C  
BRANCH  19  20
HETATM   20  C   UNL     1      -6.084  13.118  68.189  1.00  0.00    -0.103 C  
HETATM   21  H   UNL     1      -4.502  14.258  67.915  1.00  0.00     0.000 HD 
HETATM   22  O   UNL     1      -5.311  14.072  67.454  1.00  0.00    -0.338 OA 
BRANCH  20  23
HETATM   23  C   UNL     1      -6.363  13.632  69.612  1.00  0.00    -0.110 C  
HETATM   24  O   UNL     1      -6.441  12.561  70.553  1.00  0.00    -0.479 OA 
HETATM   25  H   UNL     1      -6.613  12.879  71.432  1.00  0.00     0.000 HD 
ENDBRANCH  20  23
ENDBRANCH  19  20
ENDBRANCH  17  19
ENDBRANCH  14  17
ENDBRANCH   8  14
BRANCH  11  26
HETATM   26  C   UNL     1     -11.875  11.166  69.599  1.00  0.00    -0.348 C  
HETATM   27  O   UNL     1     -13.086  10.644  69.311  1.00  0.00    -0.425 OA 
HETATM   28  H   UNL     1     -13.835  11.088  69.692  1.00  0.00     0.000 HD 
BRANCH  26  29
HETATM   29  N   UNL     1     -11.773  12.237  70.295  1.00  0.00    -0.542 NA 
HETATM   30  H   UNL     1     -11.249  12.238  71.170  1.00  0.00     0.000 HD 
BRANCH  29  31
HETATM   31  C   UNL     1     -12.420  13.467  69.812  1.00  0.00    -0.098 C  
BRANCH  31  32
HETATM   32  C   UNL     1     -12.035  14.706  70.656  1.00  0.00    -0.315 C  
HETATM   33  O   UNL     1     -12.585  15.922  70.126  1.00  0.00    -0.449 OA 
HETATM   34  H   UNL     1     -12.348  16.683  70.644  1.00  0.00     0.000 HD 
BRANCH  32  35
HETATM   35  C   UNL     1     -12.544  14.545  72.099  1.00  0.00    -0.314 C  
HETATM   36  O   UNL     1     -13.720  13.740  72.175  1.00  0.00    -0.449 OA 
HETATM   37  H   UNL     1     -14.035  13.642  73.066  1.00  0.00     0.000 HD 
ENDBRANCH  32  35
ENDBRANCH  31  32
ENDBRANCH  29  31
ENDBRANCH  26  29
ENDBRANCH  11  26
ENDBRANCH   2   5
BRANCH   4  38
HETATM   38  C   UNL     1      -6.901   8.731  71.083  1.00  0.00    -0.078 C  
HETATM   39  O   UNL     1      -7.051   8.932  72.475  1.00  0.00    -0.320 OA 
HETATM   40  H   UNL     1      -6.669   9.757  72.753  1.00  0.00     0.000 HD 
ENDBRANCH   4  38
TORSDOF 12
ENDMDL
MODEL       75
REMARK 921   NORMALIZED FREE ENERGY PREDICTED BY IDOCK:   -4.31 KCAL/MOL
REMARK 922        TOTAL FREE ENERGY PREDICTED BY IDOCK:   -8.36 KCAL/MOL
REMARK 923 INTER-LIGAND FREE ENERGY PREDICTED BY IDOCK:   -7.36 KCAL/MOL
REMARK 924 INTRA-LIGAND FREE ENERGY PREDICTED BY IDOCK:   -1.01 KCAL/MOL
REMARK 927      BINDING AFFINITY PREDICTED BY RF-SCORE:    0.00 PKD
ROOT
HETATM    1  C   UNL     1      -7.112   9.132  65.864  1.00  0.00    -0.089 C  
HETATM    2  N   UNL     1      -7.040  10.219  66.837  1.00  0.00    -0.089 N  
HETATM    3  O   UNL     1      -5.476  11.394  65.626  1.00  0.00    -0.218 OA 
HETATM    4  C   UNL     1      -6.170  11.293  66.634  1.00  0.00    -0.141 C  
ENDROOT
BRANCH   2   5
HETATM    5  C   UNL     1      -7.913  10.111  67.965  1.00  0.00    -0.101 A  
HETATM    6  I   UNL     1      -5.405   8.772  69.192  1.00  0.00    -0.036 I  
HETATM    7  C   UNL     1      -9.184  10.739  67.936  1.00  0.00    -0.150 A  
HETATM    8  C   UNL     1     -10.075  10.584  69.018  1.00  0.00    -0.230 A  
HETATM    9  C   UNL     1      -7.504   9.374  69.107  1.00  0.00    -0.073 A  
HETATM   10  I   UNL     1      -9.678  11.961  66.214  1.00  0.00    -0.261 I  
HETATM   11  C   UNL     1      -8.405   9.139  70.177  1.00  0.00    -0.174 A  
HETATM   12  I   UNL     1     -11.260   9.031  71.449  1.00  0.00    -0.470 I  
HETATM   13  C   UNL     1      -9.706   9.710  70.087  1.00  0.00    -0.254 A  
BRANCH   8  14
HETATM   14  C   UNL     1     -11.299  11.435  69.154  1.00  0.00    -0.288 C  
HETATM   15  H   UNL     1     -13.186  11.553  68.616  1.00  0.00     0.000 HD 
HETATM   16  O   UNL     1     -12.410  11.012  68.530  1.00  0.00    -0.536 OA 
BRANCH  14  17
HETATM   17  N   UNL     1     -11.286  12.526  69.824  1.00  0.00    -0.487 NA 
HETATM   18  H   UNL     1     -10.805  12.581  70.722  1.00  0.00     0.000 HD 
BRANCH  17  19
HETATM   19  C   UNL     1     -11.980  13.697  69.268  1.00  0.00    -0.336 C  
BRANCH  19  20
HETATM   20  C   UNL     1     -12.498  14.573  70.415  1.00  0.00    -0.347 C  
HETATM   21  H   UNL     1     -13.073  14.308  72.281  1.00  0.00     0.000 HD 
HETATM   22  O   UNL     1     -12.752  13.765  71.570  1.00  0.00    -0.343 OA 
BRANCH  20  23
HETATM   23  C   UNL     1     -11.501  15.695  70.751  1.00  0.00    -0.379 C  
HETATM   24  O   UNL     1     -11.922  16.452  71.885  1.00  0.00    -0.622 OA 
HETATM   25  H   UNL     1     -11.306  17.145  72.092  1.00  0.00     0.000 HD 
ENDBRANCH  20  23
ENDBRANCH  19  20
ENDBRANCH  17  19
ENDBRANCH  14  17
ENDBRANCH   8  14
BRANCH  11  26
HETATM   26  C   UNL     1      -7.960   8.313  71.350  1.00  0.00    -0.119 C  
HETATM   27  O   UNL     1      -7.699   8.989  72.488  1.00  0.00    -0.338 OA 
HETATM   28  H   UNL     1      -7.418   8.467  73.230  1.00  0.00     0.000 HD 
BRANCH  26  29
HETATM   29  N   UNL     1      -7.768   7.048  71.281  1.00  0.00    -0.090 NA 
HETATM   30  H   UNL     1      -6.838   6.675  71.091  1.00  0.00     0.000 HD 
BRANCH  29  31
HETATM   31  C   UNL     1      -8.909   6.140  71.480  1.00  0.00    -0.135 C  
BRANCH  31  32
HETATM   32  C   UNL     1      -8.806   4.865  70.611  1.00  0.00    -0.117 C  
HETATM   33  O   UNL     1     -10.093   4.373  70.205  1.00  0.00    -0.218 OA 
HETATM   34  H   UNL     1     -10.030   3.590  69.672  1.00  0.00     0.000 HD 
BRANCH  32  35
HETATM   35  C   UNL     1      -7.987   5.152  69.340  1.00  0.00    -0.084 C  
HETATM   36  O   UNL     1      -8.668   6.026  68.439  1.00  0.00    -0.114 OA 
HETATM   37  H   UNL     1      -8.163   6.203  67.655  1.00  0.00     0.000 HD 
ENDBRANCH  32  35
ENDBRANCH  31  32
ENDBRANCH  29  31
ENDBRANCH  26  29
ENDBRANCH  11  26
ENDBRANCH   2   5
BRANCH   4  38
HETATM   38  C   UNL     1      -6.070  12.362  67.738  1.00  0.00    -0.111 C  
HETATM   39  O   UNL     1      -6.201  13.668  67.210  1.00  0.00    -0.408 OA 
HETATM   40  H   UNL     1      -6.140  14.328  67.892  1.00  0.00     0.000 HD 
ENDBRANCH   4  38
TORSDOF 12
ENDMDL
MODEL       76
REMARK 921   NORMALIZED FREE ENERGY PREDICTED BY IDOCK:   -4.30 KCAL/MOL
REMARK 922        TOTAL FREE ENERGY PREDICTED BY IDOCK:   -8.36 KCAL/MOL
REMARK 923 INTER-LIGAND FREE ENERGY PREDICTED BY IDOCK:   -7.16 KCAL/MOL
REMARK 924 INTRA-LIGAND FREE ENERGY PREDICTED BY IDOCK:   -1.20 KCAL/MOL
REMARK 927      BINDING AFFINITY PREDICTED BY RF-SCORE:    0.00 PKD
ROOT
HETATM    1  C   UNL     1      -5.872  16.108  67.210  1.00  0.00    -0.087 C  
HETATM    2  N   UNL     1      -6.626  15.400  68.240  1.00  0.00    -0.113 N  
HETATM    3  O   UNL     1      -5.420  16.327  69.966  1.00  0.00    -0.150 OA 
HETATM    4  C   UNL     1      -6.302  15.560  69.590  1.00  0.00    -0.163 C  
ENDROOT
BRANCH   2   5
HETATM    5  C   UNL     1      -7.696  14.570  67.778  1.00  0.00    -0.156 A  
HETATM    6  I   UNL     1      -5.525  12.386  68.100  1.00  0.00    -0.092 I  
HETATM    7  C   UNL     1      -8.995  15.117  67.623  1.00  0.00    -0.180 A  
HETATM    8  C   UNL     1     -10.040  14.322  67.107  1.00  0.00    -0.254 A  
HETATM    9  C   UNL     1      -7.451  13.206  67.475  1.00  0.00    -0.160 A  
HETATM   10  I   UNL     1      -9.317  17.170  68.239  1.00  0.00    -0.286 I  
HETATM   11  C   UNL     1      -8.462  12.404  66.886  1.00  0.00    -0.147 A  
HETATM   12  I   UNL     1     -11.167  11.989  65.373  1.00  0.00    -0.285 I  
HETATM   13  C   UNL     1      -9.736  12.999  66.661  1.00  0.00    -0.256 A  
BRANCH   8  14
HETATM   14  C   UNL     1     -11.468  14.764  67.178  1.00  0.00    -0.364 C  
HETATM   15  H   UNL     1     -12.938  15.479  66.085  1.00  0.00     0.000 HD 
HETATM   16  O   UNL     1     -12.031  15.198  66.039  1.00  0.00    -0.036 OA 
BRANCH  14  17
HETATM   17  N   UNL     1     -12.122  14.742  68.278  1.00  0.00    -0.573 NA 
HETATM   18  H   UNL     1     -12.753  15.504  68.527  1.00  0.00     0.000 HD 
BRANCH  17  19
HETATM   19  C   UNL     1     -11.942  13.589  69.175  1.00  0.00    -0.333 C  
BRANCH  19  20
HETATM   20  C   UNL     1     -12.569  13.904  70.538  1.00  0.00    -0.312 C  
HETATM   21  H   UNL     1     -13.068  12.902  72.159  1.00  0.00     0.000 HD 
HETATM   22  O   UNL     1     -12.680  12.706  71.314  1.00  0.00    -0.364 OA 
BRANCH  20  23
HETATM   23  C   UNL     1     -11.748  14.962  71.295  1.00  0.00    -0.331 C  
HETATM   24  O   UNL     1     -12.357  16.251  71.225  1.00  0.00    -0.563 OA 
HETATM   25  H   UNL     1     -11.849  16.905  71.693  1.00  0.00     0.000 HD 
ENDBRANCH  20  23
ENDBRANCH  19  20
ENDBRANCH  17  19
ENDBRANCH  14  17
ENDBRANCH   8  14
BRANCH  11  26
HETATM   26  C   UNL     1      -8.159  10.976  66.529  1.00  0.00    -0.161 C  
HETATM   27  O   UNL     1      -7.455  10.784  65.394  1.00  0.00    -0.320 OA 
HETATM   28  H   UNL     1      -7.264   9.881  65.168  1.00  0.00     0.000 HD 
BRANCH  26  29
HETATM   29  N   UNL     1      -8.589   9.980  67.211  1.00  0.00    -0.125 NA 
HETATM   30  H   UNL     1      -8.807   9.096  66.752  1.00  0.00     0.000 HD 
BRANCH  29  31
HETATM   31  C   UNL     1      -8.761  10.129  68.664  1.00  0.00    -0.128 C  
BRANCH  31  32
HETATM   32  C   UNL     1     -10.250  10.133  69.083  1.00  0.00    -0.214 C  
HETATM   33  O   UNL     1     -11.067   9.334  68.212  1.00  0.00    -0.481 OA 
HETATM   34  H   UNL     1     -11.982   9.337  68.468  1.00  0.00     0.000 HD 
BRANCH  32  35
HETATM   35  C   UNL     1     -10.403   9.581  70.511  1.00  0.00    -0.288 C  
HETATM   36  O   UNL     1     -11.592  10.046  71.150  1.00  0.00    -0.355 OA 
HETATM   37  H   UNL     1     -11.686   9.705  72.032  1.00  0.00     0.000 HD 
ENDBRANCH  32  35
ENDBRANCH  31  32
ENDBRANCH  29  31
ENDBRANCH  26  29
ENDBRANCH  11  26
ENDBRANCH   2   5
BRANCH   4  38
HETATM   38  C   UNL     1      -7.070  14.718  70.625  1.00  0.00     0.602 C  
HETATM   39  O   UNL     1      -6.190  14.037  71.499  1.00  0.00    -0.481 OA 
HETATM   40  H   UNL     1      -6.665  13.517  72.138  1.00  0.00     0.000 HD 
ENDBRANCH   4  38
TORSDOF 12
ENDMDL
MODEL       77
REMARK 921   NORMALIZED FREE ENERGY PREDICTED BY IDOCK:   -4.28 KCAL/MOL
REMARK 922        TOTAL FREE ENERGY PREDICTED BY IDOCK:   -8.32 KCAL/MOL
REMARK 923 INTER-LIGAND FREE ENERGY PREDICTED BY IDOCK:   -7.68 KCAL/MOL
REMARK 924 INTRA-LIGAND FREE ENERGY PREDICTED BY IDOCK:   -0.64 KCAL/MOL
REMARK 927      BINDING AFFINITY PREDICTED BY RF-SCORE:    0.00 PKD
ROOT
HETATM    1  C   UNL     1     -10.170   5.695  66.090  1.00  0.00    -0.041 C  
HETATM    2  N   UNL     1      -9.134   6.379  66.858  1.00  0.00    -0.129 N  
HETATM    3  O   UNL     1      -7.465   4.968  66.139  1.00  0.00    -0.083 OA 
HETATM    4  C   UNL     1      -7.814   5.919  66.833  1.00  0.00    -0.101 C  
ENDROOT
BRANCH   2   5
HETATM    5  C   UNL     1      -9.556   7.528  67.599  1.00  0.00    -0.143 A  
HETATM    6  I   UNL     1     -10.161   5.361  69.725  1.00  0.00    -0.350 I  
HETATM    7  C   UNL     1      -9.329   8.827  67.076  1.00  0.00    -0.157 A  
HETATM    8  C   UNL     1      -9.799   9.961  67.769  1.00  0.00    -0.184 A  
HETATM    9  C   UNL     1     -10.200   7.363  68.852  1.00  0.00    -0.196 A  
HETATM   10  I   UNL     1      -8.216   8.999  65.223  1.00  0.00    -0.183 I  
HETATM   11  C   UNL     1     -10.748   8.478  69.536  1.00  0.00    -0.181 A  
HETATM   12  I   UNL     1     -11.764  11.432  69.693  1.00  0.00    -0.443 I  
HETATM   13  C   UNL     1     -10.582   9.764  68.948  1.00  0.00    -0.218 A  
BRANCH   8  14
HETATM   14  C   UNL     1      -9.356  11.343  67.403  1.00  0.00    -0.167 C  
HETATM   15  H   UNL     1      -8.142  12.790  67.949  1.00  0.00     0.000 HD 
HETATM   16  O   UNL     1      -8.423  11.913  68.182  1.00  0.00    -0.149 OA 
BRANCH  14  17
HETATM   17  N   UNL     1      -9.853  11.961  66.398  1.00  0.00    -0.209 NA 
HETATM   18  H   UNL     1      -9.319  12.682  65.911  1.00  0.00     0.000 HD 
BRANCH  17  19
HETATM   19  C   UNL     1     -11.212  11.606  65.961  1.00  0.00    -0.240 C  
BRANCH  19  20
HETATM   20  C   UNL     1     -11.661  12.575  64.861  1.00  0.00    -0.341 C  
HETATM   21  H   UNL     1     -13.325  13.492  64.341  1.00  0.00     0.000 HD 
HETATM   22  O   UNL     1     -13.047  12.891  65.023  1.00  0.00    -0.794 OA 
BRANCH  20  23
HETATM   23  C   UNL     1     -10.811  13.858  64.871  1.00  0.00    -0.405 C  
HETATM   24  O   UNL     1      -9.811  13.835  63.853  1.00  0.00    -0.341 OA 
HETATM   25  H   UNL     1      -9.286  14.627  63.859  1.00  0.00     0.000 HD 
ENDBRANCH  20  23
ENDBRANCH  19  20
ENDBRANCH  17  19
ENDBRANCH  14  17
ENDBRANCH   8  14
BRANCH  11  26
HETATM   26  C   UNL     1     -11.469   8.267  70.836  1.00  0.00    -0.274 C  
HETATM   27  O   UNL     1     -12.787   7.990  70.747  1.00  0.00    -0.501 OA 
HETATM   28  H   UNL     1     -13.244   7.856  71.569  1.00  0.00     0.000 HD 
BRANCH  26  29
HETATM   29  N   UNL     1     -10.904   8.401  71.978  1.00  0.00    -0.295 NA 
HETATM   30  H   UNL     1     -10.297   9.198  72.164  1.00  0.00     0.000 HD 
BRANCH  29  31
HETATM   31  C   UNL     1     -11.144   7.388  73.018  1.00  0.00    -0.343 C  
BRANCH  31  32
HETATM   32  C   UNL     1      -9.844   6.968  73.743  1.00  0.00    -0.303 C  
HETATM   33  O   UNL     1      -9.451   5.623  73.428  1.00  0.00    -0.138 OA 
HETATM   34  H   UNL     1      -8.652   5.364  73.873  1.00  0.00     0.000 HD 
BRANCH  32  35
HETATM   35  C   UNL     1      -8.688   7.903  73.348  1.00  0.00    -0.249 C  
HETATM   36  O   UNL     1      -8.204   8.667  74.452  1.00  0.00    -0.396 OA 
HETATM   37  H   UNL     1      -7.490   9.245  74.208  1.00  0.00     0.000 HD 
ENDBRANCH  32  35
ENDBRANCH  31  32
ENDBRANCH  29  31
ENDBRANCH  26  29
ENDBRANCH  11  26
ENDBRANCH   2   5
BRANCH   4  38
HETATM   38  C   UNL     1      -6.784   6.623  67.735  1.00  0.00    -0.071 C  
HETATM   39  O   UNL     1      -6.732   6.038  69.022  1.00  0.00    -0.055 OA 
HETATM   40  H   UNL     1      -6.096   6.473  69.578  1.00  0.00     0.000 HD 
ENDBRANCH   4  38
TORSDOF 12
ENDMDL
MODEL       78
REMARK 921   NORMALIZED FREE ENERGY PREDICTED BY IDOCK:   -4.23 KCAL/MOL
REMARK 922        TOTAL FREE ENERGY PREDICTED BY IDOCK:   -8.24 KCAL/MOL
REMARK 923 INTER-LIGAND FREE ENERGY PREDICTED BY IDOCK:   -7.63 KCAL/MOL
REMARK 924 INTRA-LIGAND FREE ENERGY PREDICTED BY IDOCK:   -0.61 KCAL/MOL
REMARK 927      BINDING AFFINITY PREDICTED BY RF-SCORE:    0.00 PKD
ROOT
HETATM    1  C   UNL     1      -9.632  13.196  65.532  1.00  0.00     0.056 C  
HETATM    2  N   UNL     1      -9.095  13.195  66.889  1.00  0.00    -0.233 N  
HETATM    3  O   UNL     1      -7.873  15.116  66.563  1.00  0.00     0.061 OA 
HETATM    4  C   UNL     1      -8.201  14.189  67.297  1.00  0.00    -0.181 C  
ENDROOT
BRANCH   2   5
HETATM    5  C   UNL     1      -9.553  12.144  67.745  1.00  0.00    -0.195 A  
HETATM    6  I   UNL     1     -11.862  14.155  68.207  1.00  0.00    -0.252 I  
HETATM    7  C   UNL     1      -8.875  10.898  67.759  1.00  0.00    -0.135 A  
HETATM    8  C   UNL     1      -9.282   9.881  68.646  1.00  0.00    -0.139 A  
HETATM    9  C   UNL     1     -10.683  12.354  68.578  1.00  0.00    -0.238 A  
HETATM   10  I   UNL     1      -7.247  10.611  66.357  1.00  0.00    -0.117 I  
HETATM   11  C   UNL     1     -11.069  11.378  69.533  1.00  0.00    -0.274 A  
HETATM   12  I   UNL     1     -10.563   8.842  71.292  1.00  0.00    -0.431 I  
HETATM   13  C   UNL     1     -10.320  10.168  69.585  1.00  0.00    -0.247 A  
BRANCH   8  14
HETATM   14  C   UNL     1      -8.781   8.477  68.510  1.00  0.00    -0.139 C  
HETATM   15  H   UNL     1      -7.322   7.279  69.061  1.00  0.00     0.000 HD 
HETATM   16  O   UNL     1      -7.640   8.170  69.147  1.00  0.00    -0.092 OA 
BRANCH  14  17
HETATM   17  N   UNL     1      -9.405   7.608  67.806  1.00  0.00    -0.141 NA 
HETATM   18  H   UNL     1     -10.062   7.898  67.081  1.00  0.00     0.000 HD 
BRANCH  17  19
HETATM   19  C   UNL     1      -9.152   6.183  68.069  1.00  0.00    -0.114 C  
BRANCH  19  20
HETATM   20  C   UNL     1      -9.205   5.406  66.747  1.00  0.00    -0.128 C  
HETATM   21  H   UNL     1     -10.577   4.909  65.424  1.00  0.00     0.000 HD 
HETATM   22  O   UNL     1     -10.544   5.391  66.243  1.00  0.00    -0.260 OA 
BRANCH  20  23
HETATM   23  C   UNL     1      -8.245   6.013  65.709  1.00  0.00    -0.136 C  
HETATM   24  O   UNL     1      -8.863   7.068  64.974  1.00  0.00    -0.359 OA 
HETATM   25  H   UNL     1      -8.270   7.443  64.332  1.00  0.00     0.000 HD 
ENDBRANCH  20  23
ENDBRANCH  19  20
ENDBRANCH  17  19
ENDBRANCH  14  17
ENDBRANCH   8  14
BRANCH  11  26
HETATM   26  C   UNL     1     -12.238  11.648  70.436  1.00  0.00    -0.347 C  
HETATM   27  O   UNL     1     -13.258  10.768  70.368  1.00  0.00    -0.183 OA 
HETATM   28  H   UNL     1     -13.998  10.938  70.939  1.00  0.00     0.000 HD 
BRANCH  26  29
HETATM   29  N   UNL     1     -12.315  12.683  71.188  1.00  0.00    -0.342 NA 
HETATM   30  H   UNL     1     -11.603  13.412  71.140  1.00  0.00     0.000 HD 
BRANCH  29  31
HETATM   31  C   UNL     1     -13.446  12.806  72.121  1.00  0.00    -0.492 C  
BRANCH  31  32
HETATM   32  C   UNL     1     -13.723  14.275  72.520  1.00  0.00    -0.505 C  
HETATM   33  O   UNL     1     -12.782  14.766  73.488  1.00  0.00    -0.514 OA 
HETATM   34  H   UNL     1     -12.952  15.668  73.734  1.00  0.00     0.000 HD 
BRANCH  32  35
HETATM   35  C   UNL     1     -13.648  15.186  71.283  1.00  0.00    -0.484 C  
HETATM   36  O   UNL     1     -12.527  16.069  71.324  1.00  0.00    -0.546 OA 
HETATM   37  H   UNL     1     -12.482  16.632  70.560  1.00  0.00     0.000 HD 
ENDBRANCH  32  35
ENDBRANCH  31  32
ENDBRANCH  29  31
ENDBRANCH  26  29
ENDBRANCH  11  26
ENDBRANCH   2   5
BRANCH   4  38
HETATM   38  C   UNL     1      -7.598  14.084  68.710  1.00  0.00    -0.113 C  
HETATM   39  O   UNL     1      -8.268  14.928  69.626  1.00  0.00    -0.405 OA 
HETATM   40  H   UNL     1      -7.895  14.864  70.498  1.00  0.00     0.000 HD 
ENDBRANCH   4  38
TORSDOF 12
ENDMDL
MODEL       79
REMARK 921   NORMALIZED FREE ENERGY PREDICTED BY IDOCK:   -4.23 KCAL/MOL
REMARK 922        TOTAL FREE ENERGY PREDICTED BY IDOCK:   -8.24 KCAL/MOL
REMARK 923 INTER-LIGAND FREE ENERGY PREDICTED BY IDOCK:   -7.24 KCAL/MOL
REMARK 924 INTRA-LIGAND FREE ENERGY PREDICTED BY IDOCK:   -0.99 KCAL/MOL
REMARK 927      BINDING AFFINITY PREDICTED BY RF-SCORE:    0.00 PKD
ROOT
HETATM    1  C   UNL     1      -7.834   6.172  70.779  1.00  0.00    -0.103 C  
HETATM    2  N   UNL     1      -9.112   6.360  70.100  1.00  0.00    -0.153 N  
HETATM    3  O   UNL     1     -10.347   5.759  71.945  1.00  0.00    -0.201 OA 
HETATM    4  C   UNL     1     -10.313   6.101  70.766  1.00  0.00    -0.213 C  
ENDROOT
BRANCH   2   5
HETATM    5  C   UNL     1      -9.043   6.830  68.750  1.00  0.00    -0.132 A  
HETATM    6  I   UNL     1      -9.135   3.789  68.175  1.00  0.00    -0.225 I  
HETATM    7  C   UNL     1      -9.132   8.220  68.482  1.00  0.00    -0.136 A  
HETATM    8  C   UNL     1      -9.001   8.696  67.161  1.00  0.00    -0.148 A  
HETATM    9  C   UNL     1      -8.885   5.904  67.687  1.00  0.00    -0.106 A  
HETATM   10  I   UNL     1      -9.512   9.556  70.146  1.00  0.00    -0.235 I  
HETATM   11  C   UNL     1      -8.676   6.356  66.359  1.00  0.00    -0.140 A  
HETATM   12  I   UNL     1      -7.937   8.529  64.234  1.00  0.00    -0.112 I  
HETATM   13  C   UNL     1      -8.685   7.761  66.126  1.00  0.00    -0.156 A  
BRANCH   8  14
HETATM   14  C   UNL     1      -9.352  10.104  66.797  1.00  0.00    -0.160 C  
HETATM   15  H   UNL     1      -8.585  11.903  66.596  1.00  0.00     0.000 HD 
HETATM   16  O   UNL     1      -8.361  11.009  66.827  1.00  0.00    -0.136 OA 
BRANCH  14  17
HETATM   17  N   UNL     1     -10.548  10.436  66.482  1.00  0.00    -0.190 NA 
HETATM   18  H   UNL     1     -11.349   9.951  66.888  1.00  0.00     0.000 HD 
BRANCH  17  19
HETATM   19  C   UNL     1     -10.740  11.534  65.522  1.00  0.00    -0.272 C  
BRANCH  19  20
HETATM   20  C   UNL     1     -11.503  12.676  66.202  1.00  0.00    -0.365 C  
HETATM   21  H   UNL     1     -11.063  14.409  67.029  1.00  0.00     0.000 HD 
HETATM   22  O   UNL     1     -10.590  13.701  66.608  1.00  0.00    -0.274 OA 
BRANCH  20  23
HETATM   23  C   UNL     1     -12.582  13.255  65.270  1.00  0.00    -0.470 C  
HETATM   24  O   UNL     1     -13.166  12.244  64.449  1.00  0.00    -0.806 OA 
HETATM   25  H   UNL     1     -13.833  12.601  63.874  1.00  0.00     0.000 HD 
ENDBRANCH  20  23
ENDBRANCH  19  20
ENDBRANCH  17  19
ENDBRANCH  14  17
ENDBRANCH   8  14
BRANCH  11  26
HETATM   26  C   UNL     1      -8.462   5.353  65.261  1.00  0.00    -0.149 C  
HETATM   27  O   UNL     1      -7.178   5.039  64.987  1.00  0.00    -0.061 OA 
HETATM   28  H   UNL     1      -7.042   4.404  64.293  1.00  0.00     0.000 HD 
BRANCH  26  29
HETATM   29  N   UNL     1      -9.419   4.861  64.567  1.00  0.00    -0.355 NA 
HETATM   30  H   UNL     1     -10.354   4.773  64.965  1.00  0.00     0.000 HD 
BRANCH  29  31
HETATM   31  C   UNL     1      -9.152   4.425  63.188  1.00  0.00    -0.135 C  
BRANCH  31  32
HETATM   32  C   UNL     1      -9.037   2.887  63.069  1.00  0.00    -0.091 C  
HETATM   33  O   UNL     1      -8.258   2.312  64.130  1.00  0.00    -0.080 OA 
HETATM   34  H   UNL     1      -8.186   1.367  64.056  1.00  0.00     0.000 HD 
BRANCH  32  35
HETATM   35  C   UNL     1     -10.434   2.244  63.105  1.00  0.00    -0.160 C  
HETATM   36  O   UNL     1     -11.333   2.943  63.966  1.00  0.00    -0.574 OA 
HETATM   37  H   UNL     1     -12.195   2.545  63.989  1.00  0.00     0.000 HD 
ENDBRANCH  32  35
ENDBRANCH  31  32
ENDBRANCH  29  31
ENDBRANCH  26  29
ENDBRANCH  11  26
ENDBRANCH   2   5
BRANCH   4  38
HETATM   38  C   UNL     1     -11.625   6.228  69.971  1.00  0.00    -0.308 C  
HETATM   39  O   UNL     1     -12.576   7.018  70.658  1.00  0.00    -0.598 OA 
HETATM   40  H   UNL     1     -13.386   7.096  70.167  1.00  0.00     0.000 HD 
ENDBRANCH   4  38
TORSDOF 12
ENDMDL
MODEL       80
REMARK 921   NORMALIZED FREE ENERGY PREDICTED BY IDOCK:   -4.23 KCAL/MOL
REMARK 922        TOTAL FREE ENERGY PREDICTED BY IDOCK:   -8.23 KCAL/MOL
REMARK 923 INTER-LIGAND FREE ENERGY PREDICTED BY IDOCK:   -7.33 KCAL/MOL
REMARK 924 INTRA-LIGAND FREE ENERGY PREDICTED BY IDOCK:   -0.90 KCAL/MOL
REMARK 927      BINDING AFFINITY PREDICTED BY RF-SCORE:    0.00 PKD
ROOT
HETATM    1  C   UNL     1      -9.542   3.867  68.677  1.00  0.00    -0.111 C  
HETATM    2  N   UNL     1      -8.327   4.658  68.505  1.00  0.00    -0.086 N  
HETATM    3  O   UNL     1      -6.993   2.809  68.200  1.00  0.00    -0.047 OA 
HETATM    4  C   UNL     1      -7.097   4.029  68.296  1.00  0.00    -0.055 C  
ENDROOT
BRANCH   2   5
HETATM    5  C   UNL     1      -8.490   6.079  68.548  1.00  0.00    -0.113 A  
HETATM    6  I   UNL     1      -7.702   5.615  71.506  1.00  0.00    -0.111 I  
HETATM    7  C   UNL     1      -8.719   6.799  67.348  1.00  0.00    -0.119 A  
HETATM    8  C   UNL     1      -8.945   8.191  67.390  1.00  0.00    -0.145 A  
HETATM    9  C   UNL     1      -8.424   6.760  69.791  1.00  0.00    -0.133 A  
HETATM   10  I   UNL     1      -8.668   5.705  65.477  1.00  0.00    -0.040 I  
HETATM   11  C   UNL     1      -8.720   8.144  69.874  1.00  0.00    -0.138 A  
HETATM   12  I   UNL     1      -9.919  10.813  68.768  1.00  0.00    -0.201 I  
HETATM   13  C   UNL     1      -9.030   8.830  68.665  1.00  0.00    -0.138 A  
BRANCH   8  14
HETATM   14  C   UNL     1      -8.922   9.026  66.148  1.00  0.00    -0.177 C  
HETATM   15  H   UNL     1      -7.704   9.921  64.891  1.00  0.00     0.000 HD 
HETATM   16  O   UNL     1      -7.718   9.391  65.679  1.00  0.00    -0.097 OA 
BRANCH  14  17
HETATM   17  N   UNL     1     -10.002   9.387  65.564  1.00  0.00    -0.421 NA 
HETATM   18  H   UNL     1     -10.905   9.012  65.856  1.00  0.00     0.000 HD 
BRANCH  17  19
HETATM   19  C   UNL     1      -9.910  10.357  64.462  1.00  0.00    -0.339 C  
BRANCH  19  20
HETATM   20  C   UNL     1     -10.659  11.638  64.849  1.00  0.00    -0.296 C  
HETATM   21  H   UNL     1     -10.226  13.348  65.727  1.00  0.00     0.000 HD 
HETATM   22  O   UNL     1      -9.762  12.554  65.487  1.00  0.00    -0.220 OA 
BRANCH  20  23
HETATM   23  C   UNL     1     -11.312  12.292  63.620  1.00  0.00    -0.470 C  
HETATM   24  O   UNL     1     -12.430  11.537  63.153  1.00  0.00    -0.936 OA 
HETATM   25  H   UNL     1     -12.833  11.941  62.394  1.00  0.00     0.000 HD 
ENDBRANCH  20  23
ENDBRANCH  19  20
ENDBRANCH  17  19
ENDBRANCH  14  17
ENDBRANCH   8  14
BRANCH  11  26
HETATM   26  C   UNL     1      -8.691   8.828  71.211  1.00  0.00    -0.215 C  
HETATM   27  O   UNL     1      -7.620   9.613  71.454  1.00  0.00    -0.260 OA 
HETATM   28  H   UNL     1      -7.602  10.046  72.300  1.00  0.00     0.000 HD 
BRANCH  26  29
HETATM   29  N   UNL     1      -9.585   8.642  72.110  1.00  0.00    -0.309 NA 
HETATM   30  H   UNL     1      -9.319   8.358  73.052  1.00  0.00     0.000 HD 
BRANCH  29  31
HETATM   31  C   UNL     1     -11.000   8.846  71.764  1.00  0.00    -0.361 C  
BRANCH  31  32
HETATM   32  C   UNL     1     -11.893   7.667  72.219  1.00  0.00    -0.308 C  
HETATM   33  O   UNL     1     -13.283   8.023  72.275  1.00  0.00    -0.495 OA 
HETATM   34  H   UNL     1     -13.832   7.299  72.554  1.00  0.00     0.000 HD 
BRANCH  32  35
HETATM   35  C   UNL     1     -11.746   6.483  71.248  1.00  0.00    -0.331 C  
HETATM   36  O   UNL     1     -11.992   6.857  69.892  1.00  0.00    -0.627 OA 
HETATM   37  H   UNL     1     -11.902   6.125  69.293  1.00  0.00     0.000 HD 
ENDBRANCH  32  35
ENDBRANCH  31  32
ENDBRANCH  29  31
ENDBRANCH  26  29
ENDBRANCH  11  26
ENDBRANCH   2   5
BRANCH   4  38
HETATM   38  C   UNL     1      -5.837   4.910  68.214  1.00  0.00    -0.021 C  
HETATM   39  O   UNL     1      -5.158   4.735  66.986  1.00  0.00    -0.007 OA 
HETATM   40  H   UNL     1      -4.380   5.279  66.935  1.00  0.00     0.000 HD 
ENDBRANCH   4  38
TORSDOF 12
ENDMDL
MODEL       81
REMARK 921   NORMALIZED FREE ENERGY PREDICTED BY IDOCK:   -4.21 KCAL/MOL
REMARK 922        TOTAL FREE ENERGY PREDICTED BY IDOCK:   -8.20 KCAL/MOL
REMARK 923 INTER-LIGAND FREE ENERGY PREDICTED BY IDOCK:   -7.40 KCAL/MOL
REMARK 924 INTRA-LIGAND FREE ENERGY PREDICTED BY IDOCK:   -0.80 KCAL/MOL
REMARK 927      BINDING AFFINITY PREDICTED BY RF-SCORE:    0.00 PKD
ROOT
HETATM    1  C   UNL     1     -11.172   3.015  73.354  1.00  0.00    -0.149 C  
HETATM    2  N   UNL     1      -9.806   3.427  73.047  1.00  0.00    -0.130 N  
HETATM    3  O   UNL     1      -8.869   1.937  74.528  1.00  0.00    -0.060 OA 
HETATM    4  C   UNL     1      -8.724   2.841  73.710  1.00  0.00    -0.072 C  
ENDROOT
BRANCH   2   5
HETATM    5  C   UNL     1      -9.664   4.430  72.037  1.00  0.00    -0.166 A  
HETATM    6  I   UNL     1      -9.682   6.277  74.522  1.00  0.00    -0.337 I  
HETATM    7  C   UNL     1      -9.455   4.048  70.687  1.00  0.00    -0.170 A  
HETATM    8  C   UNL     1      -9.377   5.029  69.677  1.00  0.00    -0.184 A  
HETATM    9  C   UNL     1      -9.733   5.803  72.390  1.00  0.00    -0.159 A  
HETATM   10  I   UNL     1      -9.220   1.937  70.252  1.00  0.00    -0.112 I  
HETATM   11  C   UNL     1      -9.734   6.808  71.389  1.00  0.00    -0.177 A  
HETATM   12  I   UNL     1     -10.047   7.814  68.444  1.00  0.00    -0.228 I  
HETATM   13  C   UNL     1      -9.608   6.394  70.032  1.00  0.00    -0.158 A  
BRANCH   8  14
HETATM   14  C   UNL     1      -8.895   4.699  68.300  1.00  0.00    -0.105 C  
HETATM   15  H   UNL     1      -7.280   4.654  67.180  1.00  0.00     0.000 HD 
HETATM   16  O   UNL     1      -7.586   4.863  68.054  1.00  0.00    -0.080 OA 
BRANCH  14  17
HETATM   17  N   UNL     1      -9.697   4.289  67.390  1.00  0.00    -0.183 NA 
HETATM   18  H   UNL     1     -10.655   4.637  67.342  1.00  0.00     0.000 HD 
BRANCH  17  19
HETATM   19  C   UNL     1      -9.203   3.304  66.415  1.00  0.00    -0.149 C  
BRANCH  19  20
HETATM   20  C   UNL     1      -9.194   3.934  65.017  1.00  0.00    -0.150 C  
HETATM   21  H   UNL     1      -8.189   3.697  63.339  1.00  0.00     0.000 HD 
HETATM   22  O   UNL     1      -8.195   3.307  64.205  1.00  0.00    -0.088 OA 
BRANCH  20  23
HETATM   23  C   UNL     1     -10.576   3.825  64.350  1.00  0.00    -0.196 C  
HETATM   24  O   UNL     1     -11.547   4.631  65.017  1.00  0.00    -1.080 OA 
HETATM   25  H   UNL     1     -12.401   4.564  64.605  1.00  0.00     0.000 HD 
ENDBRANCH  20  23
ENDBRANCH  19  20
ENDBRANCH  17  19
ENDBRANCH  14  17
ENDBRANCH   8  14
BRANCH  11  26
HETATM   26  C   UNL     1      -9.860   8.250  71.789  1.00  0.00    -0.218 C  
HETATM   27  O   UNL     1      -8.724   8.977  71.756  1.00  0.00    -0.350 OA 
HETATM   28  H   UNL     1      -8.804   9.890  72.009  1.00  0.00     0.000 HD 
BRANCH  26  29
HETATM   29  N   UNL     1     -10.957   8.766  72.204  1.00  0.00    -0.364 NA 
HETATM   30  H   UNL     1     -10.997   9.241  73.106  1.00  0.00     0.000 HD 
BRANCH  29  31
HETATM   31  C   UNL     1     -12.159   8.665  71.362  1.00  0.00    -0.303 C  
BRANCH  31  32
HETATM   32  C   UNL     1     -12.820  10.041  71.110  1.00  0.00    -0.385 C  
HETATM   33  O   UNL     1     -12.965  10.807  72.317  1.00  0.00    -0.461 OA 
HETATM   34  H   UNL     1     -13.372  11.652  72.163  1.00  0.00     0.000 HD 
BRANCH  32  35
HETATM   35  C   UNL     1     -11.974  10.866  70.125  1.00  0.00    -0.352 C  
HETATM   36  O   UNL     1     -12.519  10.865  68.806  1.00  0.00    -0.767 OA 
HETATM   37  H   UNL     1     -11.997  11.374  68.197  1.00  0.00     0.000 HD 
ENDBRANCH  32  35
ENDBRANCH  31  32
ENDBRANCH  29  31
ENDBRANCH  26  29
ENDBRANCH  11  26
ENDBRANCH   2   5
BRANCH   4  38
HETATM   38  C   UNL     1      -7.313   3.380  73.412  1.00  0.00    -0.056 C  
HETATM   39  O   UNL     1      -6.463   2.366  72.913  1.00  0.00    -0.013 OA 
HETATM   40  H   UNL     1      -5.592   2.699  72.728  1.00  0.00     0.000 HD 
ENDBRANCH   4  38
TORSDOF 12
ENDMDL
MODEL       82
REMARK 921   NORMALIZED FREE ENERGY PREDICTED BY IDOCK:   -4.20 KCAL/MOL
REMARK 922        TOTAL FREE ENERGY PREDICTED BY IDOCK:   -8.19 KCAL/MOL
REMARK 923 INTER-LIGAND FREE ENERGY PREDICTED BY IDOCK:   -7.15 KCAL/MOL
REMARK 924 INTRA-LIGAND FREE ENERGY PREDICTED BY IDOCK:   -1.04 KCAL/MOL
REMARK 927      BINDING AFFINITY PREDICTED BY RF-SCORE:    0.00 PKD
ROOT
HETATM    1  C   UNL     1      -7.063  16.299  66.676  1.00  0.00    -0.077 C  
HETATM    2  N   UNL     1      -8.033  15.978  67.719  1.00  0.00    -0.136 N  
HETATM    3  O   UNL     1      -8.214  18.161  68.424  1.00  0.00    -0.288 OA 
HETATM    4  C   UNL     1      -8.528  16.981  68.557  1.00  0.00    -0.257 C  
ENDROOT
BRANCH   2   5
HETATM    5  C   UNL     1      -8.437  14.609  67.802  1.00  0.00    -0.174 A  
HETATM    6  I   UNL     1     -10.717  15.652  65.986  1.00  0.00    -0.222 I  
HETATM    7  C   UNL     1      -7.592  13.661  68.435  1.00  0.00    -0.132 A  
HETATM    8  C   UNL     1      -8.012  12.322  68.577  1.00  0.00    -0.107 A  
HETATM    9  C   UNL     1      -9.681  14.204  67.252  1.00  0.00    -0.236 A  
HETATM   10  I   UNL     1      -5.649  14.330  69.125  1.00  0.00    -0.097 I  
HETATM   11  C   UNL     1     -10.162  12.884  67.445  1.00  0.00    -0.230 A  
HETATM   12  I   UNL     1     -10.180  10.101  68.871  1.00  0.00    -0.279 I  
HETATM   13  C   UNL     1      -9.333  11.972  68.158  1.00  0.00    -0.199 A  
BRANCH   8  14
HETATM   14  C   UNL     1      -7.060  11.242  68.988  1.00  0.00    -0.116 C  
HETATM   15  H   UNL     1      -5.775   9.938  68.271  1.00  0.00     0.000 HD 
HETATM   16  O   UNL     1      -6.379  10.624  68.011  1.00  0.00    -0.057 OA 
BRANCH  14  17
HETATM   17  N   UNL     1      -6.910  10.913  70.216  1.00  0.00    -0.467 NA 
HETATM   18  H   UNL     1      -7.389  11.426  70.956  1.00  0.00     0.000 HD 
BRANCH  17  19
HETATM   19  C   UNL     1      -6.032   9.777  70.533  1.00  0.00    -0.072 C  
BRANCH  19  20
HETATM   20  C   UNL     1      -6.877   8.504  70.667  1.00  0.00    -0.041 C  
HETATM   21  H   UNL     1      -6.676   6.592  70.238  1.00  0.00     0.000 HD 
HETATM   22  O   UNL     1      -6.152   7.380  70.155  1.00  0.00    -0.024 OA 
BRANCH  20  23
HETATM   23  C   UNL     1      -7.285   8.260  72.130  1.00  0.00    -0.096 C  
HETATM   24  O   UNL     1      -8.410   9.054  72.502  1.00  0.00    -0.332 OA 
HETATM   25  H   UNL     1      -8.662   8.904  73.406  1.00  0.00     0.000 HD 
ENDBRANCH  20  23
ENDBRANCH  19  20
ENDBRANCH  17  19
ENDBRANCH  14  17
ENDBRANCH   8  14
BRANCH  11  26
HETATM   26  C   UNL     1     -11.506  12.499  66.895  1.00  0.00    -0.353 C  
HETATM   27  O   UNL     1     -12.559  12.678  67.720  1.00  0.00     0.151 OA 
HETATM   28  H   UNL     1     -13.409  12.434  67.372  1.00  0.00     0.000 HD 
BRANCH  26  29
HETATM   29  N   UNL     1     -11.662  11.968  65.739  1.00  0.00    -0.442 NA 
HETATM   30  H   UNL     1     -11.066  11.197  65.440  1.00  0.00     0.000 HD 
BRANCH  29  31
HETATM   31  C   UNL     1     -12.713  12.487  64.850  1.00  0.00    -0.287 C  
BRANCH  31  32
HETATM   32  C   UNL     1     -12.265  12.530  63.371  1.00  0.00    -0.517 C  
HETATM   33  O   UNL     1     -12.468  13.820  62.773  1.00  0.00    -0.879 OA 
HETATM   34  H   UNL     1     -12.193  13.846  61.864  1.00  0.00     0.000 HD 
BRANCH  32  35
HETATM   35  C   UNL     1     -10.769  12.186  63.257  1.00  0.00    -0.318 C  
HETATM   36  O   UNL     1     -10.546  10.793  63.037  1.00  0.00    -0.719 OA 
HETATM   37  H   UNL     1      -9.623  10.581  62.968  1.00  0.00     0.000 HD 
ENDBRANCH  32  35
ENDBRANCH  31  32
ENDBRANCH  29  31
ENDBRANCH  26  29
ENDBRANCH  11  26
ENDBRANCH   2   5
BRANCH   4  38
HETATM   38  C   UNL     1      -9.477  16.569  69.697  1.00  0.00     0.206 C  
HETATM   39  O   UNL     1     -10.783  17.074  69.495  1.00  0.00    -0.353 OA 
HETATM   40  H   UNL     1     -11.369  16.820  70.199  1.00  0.00     0.000 HD 
ENDBRANCH   4  38
TORSDOF 12
ENDMDL
MODEL       83
REMARK 921   NORMALIZED FREE ENERGY PREDICTED BY IDOCK:   -4.18 KCAL/MOL
REMARK 922        TOTAL FREE ENERGY PREDICTED BY IDOCK:   -8.14 KCAL/MOL
REMARK 923 INTER-LIGAND FREE ENERGY PREDICTED BY IDOCK:   -7.35 KCAL/MOL
REMARK 924 INTRA-LIGAND FREE ENERGY PREDICTED BY IDOCK:   -0.79 KCAL/MOL
REMARK 927      BINDING AFFINITY PREDICTED BY RF-SCORE:    0.00 PKD
ROOT
HETATM    1  C   UNL     1      -8.158   7.355  71.591  1.00  0.00    -0.099 C  
HETATM    2  N   UNL     1      -8.910   7.419  70.342  1.00  0.00    -0.149 N  
HETATM    3  O   UNL     1      -9.304   5.153  70.294  1.00  0.00    -0.142 OA 
HETATM    4  C   UNL     1      -9.420   6.254  69.763  1.00  0.00    -0.151 C  
ENDROOT
BRANCH   2   5
HETATM    5  C   UNL     1      -9.094   8.724  69.784  1.00  0.00    -0.151 A  
HETATM    6  I   UNL     1     -11.460   8.739  71.781  1.00  0.00    -0.443 I  
HETATM    7  C   UNL     1      -8.127   9.251  68.890  1.00  0.00    -0.103 A  
HETATM    8  C   UNL     1      -8.332  10.509  68.287  1.00  0.00    -0.122 A  
HETATM    9  C   UNL     1     -10.242   9.483  70.127  1.00  0.00    -0.246 A  
HETATM   10  I   UNL     1      -6.334   8.088  68.526  1.00  0.00    -0.056 I  
HETATM   11  C   UNL     1     -10.512  10.717  69.481  1.00  0.00    -0.236 A  
HETATM   12  I   UNL     1     -10.127  12.811  67.191  1.00  0.00    -0.254 I  
HETATM   13  C   UNL     1      -9.569  11.186  68.524  1.00  0.00    -0.193 A  
BRANCH   8  14
HETATM   14  C   UNL     1      -7.233  11.218  67.560  1.00  0.00    -0.100 C  
HETATM   15  H   UNL     1      -5.666  12.373  67.840  1.00  0.00     0.000 HD 
HETATM   16  O   UNL     1      -6.364  11.923  68.302  1.00  0.00    -0.049 OA 
BRANCH  14  17
HETATM   17  N   UNL     1      -7.132  11.167  66.285  1.00  0.00    -0.301 NA 
HETATM   18  H   UNL     1      -7.171  12.017  65.723  1.00  0.00     0.000 HD 
BRANCH  17  19
HETATM   19  C   UNL     1      -6.958   9.851  65.650  1.00  0.00    -0.108 C  
BRANCH  19  20
HETATM   20  C   UNL     1      -7.649   9.853  64.281  1.00  0.00    -0.139 C  
HETATM   21  H   UNL     1      -8.070   8.534  62.880  1.00  0.00     0.000 HD 
HETATM   22  O   UNL     1      -7.642   8.533  63.728  1.00  0.00    -0.115 OA 
BRANCH  20  23
HETATM   23  C   UNL     1      -9.089  10.385  64.387  1.00  0.00    -0.234 C  
HETATM   24  O   UNL     1      -9.919   9.510  65.151  1.00  0.00    -0.429 OA 
HETATM   25  H   UNL     1     -10.808   9.838  65.216  1.00  0.00     0.000 HD 
ENDBRANCH  20  23
ENDBRANCH  19  20
ENDBRANCH  17  19
ENDBRANCH  14  17
ENDBRANCH   8  14
BRANCH  11  26
HETATM   26  C   UNL     1     -11.762  11.475  69.828  1.00  0.00    -0.353 C  
HETATM   27  O   UNL     1     -12.869  11.146  69.130  1.00  0.00    -0.290 OA 
HETATM   28  H   UNL     1     -13.660  11.625  69.349  1.00  0.00     0.000 HD 
BRANCH  26  29
HETATM   29  N   UNL     1     -11.787  12.427  70.685  1.00  0.00    -0.472 NA 
HETATM   30  H   UNL     1     -10.982  12.602  71.286  1.00  0.00     0.000 HD 
BRANCH  29  31
HETATM   31  C   UNL     1     -12.992  13.264  70.789  1.00  0.00    -0.026 C  
BRANCH  31  32
HETATM   32  C   UNL     1     -12.709  14.748  70.458  1.00  0.00    -0.343 C  
HETATM   33  O   UNL     1     -13.796  15.610  70.830  1.00  0.00    -0.850 OA 
HETATM   34  H   UNL     1     -13.622  16.521  70.626  1.00  0.00     0.000 HD 
BRANCH  32  35
HETATM   35  C   UNL     1     -11.449  15.228  71.199  1.00  0.00    -0.369 C  
HETATM   36  O   UNL     1     -10.256  15.007  70.446  1.00  0.00    -0.502 OA 
HETATM   37  H   UNL     1      -9.479  15.303  70.903  1.00  0.00     0.000 HD 
ENDBRANCH  32  35
ENDBRANCH  31  32
ENDBRANCH  29  31
ENDBRANCH  26  29
ENDBRANCH  11  26
ENDBRANCH   2   5
BRANCH   4  38
HETATM   38  C   UNL     1     -10.124   6.371  68.398  1.00  0.00    -0.157 C  
HETATM   39  O   UNL     1     -10.205   5.118  67.745  1.00  0.00    -0.172 OA 
HETATM   40  H   UNL     1     -10.640   5.191  66.903  1.00  0.00     0.000 HD 
ENDBRANCH   4  38
TORSDOF 12
ENDMDL
MODEL       84
REMARK 921   NORMALIZED FREE ENERGY PREDICTED BY IDOCK:   -4.18 KCAL/MOL
REMARK 922        TOTAL FREE ENERGY PREDICTED BY IDOCK:   -8.14 KCAL/MOL
REMARK 923 INTER-LIGAND FREE ENERGY PREDICTED BY IDOCK:   -7.20 KCAL/MOL
REMARK 924 INTRA-LIGAND FREE ENERGY PREDICTED BY IDOCK:   -0.94 KCAL/MOL
REMARK 927      BINDING AFFINITY PREDICTED BY RF-SCORE:    0.00 PKD
ROOT
HETATM    1  C   UNL     1      -7.039   4.034  66.808  1.00  0.00    -0.064 C  
HETATM    2  N   UNL     1      -8.274   4.812  66.776  1.00  0.00    -0.107 N  
HETATM    3  O   UNL     1      -9.489   3.114  65.810  1.00  0.00    -0.138 OA 
HETATM    4  C   UNL     1      -9.440   4.266  66.232  1.00  0.00    -0.180 C  
ENDROOT
BRANCH   2   5
HETATM    5  C   UNL     1      -8.206   6.124  67.342  1.00  0.00    -0.109 A  
HETATM    6  I   UNL     1      -7.675   6.869  64.384  1.00  0.00    -0.066 I  
HETATM    7  C   UNL     1      -8.540   6.322  68.706  1.00  0.00    -0.122 A  
HETATM    8  C   UNL     1      -8.414   7.601  69.287  1.00  0.00    -0.138 A  
HETATM    9  C   UNL     1      -7.802   7.220  66.537  1.00  0.00    -0.109 A  
HETATM   10  I   UNL     1      -9.281   4.623  69.831  1.00  0.00    -0.246 I  
HETATM   11  C   UNL     1      -7.595   8.501  67.110  1.00  0.00    -0.096 A  
HETATM   12  I   UNL     1      -7.143  10.438  69.523  1.00  0.00    -0.134 I  
HETATM   13  C   UNL     1      -7.856   8.656  68.501  1.00  0.00    -0.108 A  
BRANCH   8  14
HETATM   14  C   UNL     1      -9.003   7.914  70.627  1.00  0.00    -0.148 C  
HETATM   15  H   UNL     1      -8.626   7.838  72.555  1.00  0.00     0.000 HD 
HETATM   16  O   UNL     1      -8.252   7.640  71.705  1.00  0.00    -0.102 OA 
BRANCH  14  17
HETATM   17  N   UNL     1     -10.177   8.411  70.743  1.00  0.00    -0.191 NA 
HETATM   18  H   UNL     1     -10.697   8.720  69.921  1.00  0.00     0.000 HD 
BRANCH  17  19
HETATM   19  C   UNL     1     -10.759   8.524  72.089  1.00  0.00    -0.356 C  
BRANCH  19  20
HETATM   20  C   UNL     1     -12.289   8.487  71.986  1.00  0.00    -0.365 C  
HETATM   21  H   UNL     1     -13.691   9.476  71.018  1.00  0.00     0.000 HD 
HETATM   22  O   UNL     1     -12.743   9.499  71.081  1.00  0.00    -0.317 OA 
BRANCH  20  23
HETATM   23  C   UNL     1     -12.780   7.101  71.535  1.00  0.00    -0.393 C  
HETATM   24  O   UNL     1     -12.536   6.882  70.146  1.00  0.00    -0.602 OA 
HETATM   25  H   UNL     1     -12.840   6.026  69.867  1.00  0.00     0.000 HD 
ENDBRANCH  20  23
ENDBRANCH  19  20
ENDBRANCH  17  19
ENDBRANCH  14  17
ENDBRANCH   8  14
BRANCH  11  26
HETATM   26  C   UNL     1      -7.119   9.631  66.243  1.00  0.00    -0.093 C  
HETATM   27  O   UNL     1      -5.787   9.847  66.227  1.00  0.00    -0.055 OA 
HETATM   28  H   UNL     1      -5.485  10.562  65.679  1.00  0.00     0.000 HD 
BRANCH  26  29
HETATM   29  N   UNL     1      -7.915  10.400  65.598  1.00  0.00    -0.150 NA 
HETATM   30  H   UNL     1      -7.941  10.380  64.579  1.00  0.00     0.000 HD 
BRANCH  29  31
HETATM   31  C   UNL     1      -8.791  11.313  66.349  1.00  0.00    -0.182 C  
BRANCH  31  32
HETATM   32  C   UNL     1      -9.964  11.843  65.490  1.00  0.00    -0.238 C  
HETATM   33  O   UNL     1     -10.720  10.784  64.883  1.00  0.00    -0.250 OA 
HETATM   34  H   UNL     1     -11.441  11.109  64.356  1.00  0.00     0.000 HD 
BRANCH  32  35
HETATM   35  C   UNL     1     -10.925  12.675  66.357  1.00  0.00    -0.272 C  
HETATM   36  O   UNL     1     -12.097  11.946  66.724  1.00  0.00    -0.593 OA 
HETATM   37  H   UNL     1     -12.690  12.460  67.259  1.00  0.00     0.000 HD 
ENDBRANCH  32  35
ENDBRANCH  31  32
ENDBRANCH  29  31
ENDBRANCH  26  29
ENDBRANCH  11  26
ENDBRANCH   2   5
BRANCH   4  38
HETATM   38  C   UNL     1     -10.687   5.164  66.142  1.00  0.00    -0.185 C  
HETATM   39  O   UNL     1     -11.649   4.632  65.251  1.00  0.00    -1.093 OA 
HETATM   40  H   UNL     1     -12.419   5.186  65.195  1.00  0.00     0.000 HD 
ENDBRANCH   4  38
TORSDOF 12
ENDMDL
MODEL       85
REMARK 921   NORMALIZED FREE ENERGY PREDICTED BY IDOCK:   -4.14 KCAL/MOL
REMARK 922        TOTAL FREE ENERGY PREDICTED BY IDOCK:   -8.09 KCAL/MOL
REMARK 923 INTER-LIGAND FREE ENERGY PREDICTED BY IDOCK:   -7.45 KCAL/MOL
REMARK 924 INTRA-LIGAND FREE ENERGY PREDICTED BY IDOCK:   -0.64 KCAL/MOL
REMARK 927      BINDING AFFINITY PREDICTED BY RF-SCORE:    0.00 PKD
ROOT
HETATM    1  C   UNL     1     -11.366  14.067  69.283  1.00  0.00    -0.273 C  
HETATM    2  N   UNL     1     -11.008  13.130  68.221  1.00  0.00    -0.242 N  
HETATM    3  O   UNL     1     -12.531  14.006  66.736  1.00  0.00    -0.391 OA 
HETATM    4  C   UNL     1     -11.670  13.168  66.991  1.00  0.00    -0.377 C  
ENDROOT
BRANCH   2   5
HETATM    5  C   UNL     1      -9.951  12.214  68.521  1.00  0.00    -0.175 A  
HETATM    6  I   UNL     1      -8.246  14.518  67.349  1.00  0.00    -0.188 I  
HETATM    7  C   UNL     1     -10.233  11.022  69.236  1.00  0.00    -0.127 A  
HETATM    8  C   UNL     1      -9.208  10.084  69.480  1.00  0.00    -0.238 A  
HETATM    9  C   UNL     1      -8.626  12.503  68.102  1.00  0.00    -0.189 A  
HETATM   10  I   UNL     1     -12.254  10.723  69.962  1.00  0.00    -0.260 I  
HETATM   11  C   UNL     1      -7.592  11.547  68.267  1.00  0.00    -0.115 A  
HETATM   12  I   UNL     1      -6.521   8.657  68.799  1.00  0.00    -0.055 I  
HETATM   13  C   UNL     1      -7.918  10.320  68.912  1.00  0.00    -0.113 A  
BRANCH   8  14
HETATM   14  C   UNL     1      -9.391   8.958  70.448  1.00  0.00    -0.193 C  
HETATM   15  H   UNL     1      -9.015   8.413  72.299  1.00  0.00     0.000 HD 
HETATM   16  O   UNL     1      -8.899   9.128  71.685  1.00  0.00    -0.339 OA 
BRANCH  14  17
HETATM   17  N   UNL     1      -9.981   7.873  70.109  1.00  0.00    -0.189 NA 
HETATM   18  H   UNL     1     -10.346   7.234  70.815  1.00  0.00     0.000 HD 
BRANCH  17  19
HETATM   19  C   UNL     1     -10.118   7.570  68.676  1.00  0.00    -0.184 C  
BRANCH  19  20
HETATM   20  C   UNL     1      -9.923   6.065  68.454  1.00  0.00    -0.145 C  
HETATM   21  H   UNL     1     -10.471   4.396  69.345  1.00  0.00     0.000 HD 
HETATM   22  O   UNL     1     -10.592   5.329  69.483  1.00  0.00    -0.279 OA 
BRANCH  20  23
HETATM   23  C   UNL     1     -10.433   5.639  67.067  1.00  0.00    -0.281 C  
HETATM   24  O   UNL     1     -11.481   6.490  66.606  1.00  0.00    -0.727 OA 
HETATM   25  H   UNL     1     -11.796   6.226  65.749  1.00  0.00     0.000 HD 
ENDBRANCH  20  23
ENDBRANCH  19  20
ENDBRANCH  17  19
ENDBRANCH  14  17
ENDBRANCH   8  14
BRANCH  11  26
HETATM   26  C   UNL     1      -6.210  11.859  67.768  1.00  0.00    -0.070 C  
HETATM   27  O   UNL     1      -5.309  12.226  68.703  1.00  0.00    -0.053 OA 
HETATM   28  H   UNL     1      -4.435  12.423  68.388  1.00  0.00     0.000 HD 
BRANCH  26  29
HETATM   29  N   UNL     1      -5.897  11.848  66.525  1.00  0.00    -0.488 NA 
HETATM   30  H   UNL     1      -5.551  12.694  66.072  1.00  0.00     0.000 HD 
BRANCH  29  31
HETATM   31  C   UNL     1      -6.045  10.600  65.761  1.00  0.00    -0.134 C  
BRANCH  31  32
HETATM   32  C   UNL     1      -7.341  10.575  64.918  1.00  0.00     0.019 C  
HETATM   33  O   UNL     1      -7.076  10.600  63.506  1.00  0.00    -0.344 OA 
HETATM   34  H   UNL     1      -7.872  10.585  62.988  1.00  0.00     0.000 HD 
BRANCH  32  35
HETATM   35  C   UNL     1      -8.151   9.304  65.225  1.00  0.00    -0.121 C  
HETATM   36  O   UNL     1      -9.416   9.291  64.562  1.00  0.00    -0.426 OA 
HETATM   37  H   UNL     1      -9.917   8.507  64.752  1.00  0.00     0.000 HD 
ENDBRANCH  32  35
ENDBRANCH  31  32
ENDBRANCH  29  31
ENDBRANCH  26  29
ENDBRANCH  11  26
ENDBRANCH   2   5
BRANCH   4  38
HETATM   38  C   UNL     1     -11.315  12.098  65.944  1.00  0.00    -0.356 C  
HETATM   39  O   UNL     1     -12.048  12.276  64.747  1.00  0.00    -0.395 OA 
HETATM   40  H   UNL     1     -11.828  11.616  64.100  1.00  0.00     0.000 HD 
ENDBRANCH   4  38
TORSDOF 12
ENDMDL
MODEL       86
REMARK 921   NORMALIZED FREE ENERGY PREDICTED BY IDOCK:   -4.14 KCAL/MOL
REMARK 922        TOTAL FREE ENERGY PREDICTED BY IDOCK:   -8.08 KCAL/MOL
REMARK 923 INTER-LIGAND FREE ENERGY PREDICTED BY IDOCK:   -8.39 KCAL/MOL
REMARK 924 INTRA-LIGAND FREE ENERGY PREDICTED BY IDOCK:    0.32 KCAL/MOL
REMARK 927      BINDING AFFINITY PREDICTED BY RF-SCORE:    0.00 PKD
ROOT
HETATM    1  C   UNL     1      -8.718  13.551  66.723  1.00  0.00    -0.083 C  
HETATM    2  N   UNL     1      -9.877  12.734  66.374  1.00  0.00    -0.264 N  
HETATM    3  O   UNL     1     -10.021  13.589  64.243  1.00  0.00    -0.270 OA 
HETATM    4  C   UNL     1     -10.470  12.848  65.113  1.00  0.00    -0.309 C  
ENDROOT
BRANCH   2   5
HETATM    5  C   UNL     1     -10.333  11.827  67.382  1.00  0.00    -0.204 A  
HETATM    6  I   UNL     1     -12.003  14.303  68.201  1.00  0.00    -0.076 I  
HETATM    7  C   UNL     1      -9.945  10.464  67.332  1.00  0.00    -0.187 A  
HETATM    8  C   UNL     1     -10.337   9.578  68.356  1.00  0.00    -0.237 A  
HETATM    9  C   UNL     1     -11.171  12.295  68.427  1.00  0.00    -0.266 A  
HETATM   10  I   UNL     1      -8.780   9.798  65.628  1.00  0.00    -0.228 I  
HETATM   11  C   UNL     1     -11.520  11.447  69.509  1.00  0.00    -0.381 A  
HETATM   12  I   UNL     1     -11.159   8.899  71.286  1.00  0.00    -0.459 I  
HETATM   13  C   UNL     1     -11.047  10.104  69.480  1.00  0.00    -0.250 A  
BRANCH   8  14
HETATM   14  C   UNL     1     -10.184   8.096  68.212  1.00  0.00    -0.206 C  
HETATM   15  H   UNL     1     -11.055   6.502  67.459  1.00  0.00     0.000 HD 
HETATM   16  O   UNL     1     -11.153   7.443  67.551  1.00  0.00    -0.146 OA 
BRANCH  14  17
HETATM   17  N   UNL     1      -9.180   7.475  68.707  1.00  0.00    -0.145 NA 
HETATM   18  H   UNL     1      -8.456   7.978  69.220  1.00  0.00     0.000 HD 
BRANCH  17  19
HETATM   19  C   UNL     1      -9.096   6.019  68.518  1.00  0.00    -0.112 C  
BRANCH  19  20
HETATM   20  C   UNL     1      -9.137   5.327  69.886  1.00  0.00    -0.130 C  
HETATM   21  H   UNL     1      -9.565   3.533  70.580  1.00  0.00     0.000 HD 
HETATM   22  O   UNL     1      -9.539   3.961  69.732  1.00  0.00    -0.192 OA 
BRANCH  20  23
HETATM   23  C   UNL     1      -7.771   5.409  70.590  1.00  0.00    -0.089 C  
HETATM   24  O   UNL     1      -6.746   5.853  69.702  1.00  0.00    -0.051 OA 
HETATM   25  H   UNL     1      -5.903   5.904  70.137  1.00  0.00     0.000 HD 
ENDBRANCH  20  23
ENDBRANCH  19  20
ENDBRANCH  17  19
ENDBRANCH  14  17
ENDBRANCH   8  14
BRANCH  11  26
HETATM   26  C   UNL     1     -12.366  11.985  70.627  1.00  0.00    -0.304 C  
HETATM   27  O   UNL     1     -13.367  11.186  71.052  1.00  0.00    -0.076 OA 
HETATM   28  H   UNL     1     -13.903  11.526  71.760  1.00  0.00     0.000 HD 
BRANCH  26  29
HETATM   29  N   UNL     1     -12.208  13.157  71.121  1.00  0.00    -0.383 NA 
HETATM   30  H   UNL     1     -11.398  13.721  70.866  1.00  0.00     0.000 HD 
BRANCH  29  31
HETATM   31  C   UNL     1     -13.213  13.678  72.061  1.00  0.00    -0.434 C  
BRANCH  31  32
HETATM   32  C   UNL     1     -13.351  15.216  71.983  1.00  0.00    -0.398 C  
HETATM   33  O   UNL     1     -14.217  15.741  73.002  1.00  0.00    -0.549 OA 
HETATM   34  H   UNL     1     -14.302  16.686  72.954  1.00  0.00     0.000 HD 
BRANCH  32  35
HETATM   35  C   UNL     1     -11.974  15.883  72.142  1.00  0.00    -0.518 C  
HETATM   36  O   UNL     1     -11.545  16.539  70.949  1.00  0.00    -0.585 OA 
HETATM   37  H   UNL     1     -10.694  16.950  71.048  1.00  0.00     0.000 HD 
ENDBRANCH  32  35
ENDBRANCH  31  32
ENDBRANCH  29  31
ENDBRANCH  26  29
ENDBRANCH  11  26
ENDBRANCH   2   5
BRANCH   4  38
HETATM   38  C   UNL     1     -11.744  12.030  64.835  1.00  0.00    -0.258 C  
HETATM   39  O   UNL     1     -11.823  11.635  63.479  1.00  0.00    -0.601 OA 
HETATM   40  H   UNL     1     -12.610  11.130  63.307  1.00  0.00     0.000 HD 
ENDBRANCH   4  38
TORSDOF 12
ENDMDL
MODEL       87
REMARK 921   NORMALIZED FREE ENERGY PREDICTED BY IDOCK:   -4.13 KCAL/MOL
REMARK 922        TOTAL FREE ENERGY PREDICTED BY IDOCK:   -8.07 KCAL/MOL
REMARK 923 INTER-LIGAND FREE ENERGY PREDICTED BY IDOCK:   -7.29 KCAL/MOL
REMARK 924 INTRA-LIGAND FREE ENERGY PREDICTED BY IDOCK:   -0.78 KCAL/MOL
REMARK 927      BINDING AFFINITY PREDICTED BY RF-SCORE:    0.00 PKD
ROOT
HETATM    1  C   UNL     1      -7.692   4.344  68.449  1.00  0.00    -0.075 C  
HETATM    2  N   UNL     1      -8.783   5.001  67.734  1.00  0.00    -0.103 N  
HETATM    3  O   UNL     1      -9.889   3.028  67.313  1.00  0.00     0.056 OA 
HETATM    4  C   UNL     1      -9.822   4.247  67.181  1.00  0.00    -0.163 C  
ENDROOT
BRANCH   2   5
HETATM    5  C   UNL     1      -8.717   6.428  67.661  1.00  0.00    -0.114 A  
HETATM    6  I   UNL     1      -7.193   5.761  65.049  1.00  0.00    -0.074 I  
HETATM    7  C   UNL     1      -9.430   7.217  68.600  1.00  0.00    -0.140 A  
HETATM    8  C   UNL     1      -9.319   8.622  68.573  1.00  0.00    -0.138 A  
HETATM    9  C   UNL     1      -7.937   7.048  66.650  1.00  0.00    -0.108 A  
HETATM   10  I   UNL     1     -10.708   6.197  70.023  1.00  0.00    -0.450 I  
HETATM   11  C   UNL     1      -7.747   8.454  66.644  1.00  0.00    -0.090 A  
HETATM   12  I   UNL     1      -7.811  11.284  67.972  1.00  0.00    -0.138 I  
HETATM   13  C   UNL     1      -8.406   9.218  67.649  1.00  0.00    -0.116 A  
BRANCH   8  14
HETATM   14  C   UNL     1     -10.248   9.496  69.356  1.00  0.00    -0.206 C  
HETATM   15  H   UNL     1     -10.514  10.297  71.131  1.00  0.00     0.000 HD 
HETATM   16  O   UNL     1      -9.924   9.742  70.635  1.00  0.00    -0.262 OA 
BRANCH  14  17
HETATM   17  N   UNL     1     -11.312   9.979  68.833  1.00  0.00    -0.463 NA 
HETATM   18  H   UNL     1     -11.843   9.447  68.142  1.00  0.00     0.000 HD 
BRANCH  17  19
HETATM   19  C   UNL     1     -11.752  11.319  69.253  1.00  0.00    -0.334 C  
BRANCH  19  20
HETATM   20  C   UNL     1     -11.194  12.364  68.279  1.00  0.00    -0.263 C  
HETATM   21  H   UNL     1     -11.469  12.866  66.394  1.00  0.00     0.000 HD 
HETATM   22  O   UNL     1     -11.814  12.218  66.997  1.00  0.00    -0.519 OA 
BRANCH  20  23
HETATM   23  C   UNL     1     -11.401  13.790  68.818  1.00  0.00    -0.283 C  
HETATM   24  O   UNL     1     -12.747  14.004  69.239  1.00  0.00    -0.378 OA 
HETATM   25  H   UNL     1     -12.875  14.885  69.572  1.00  0.00     0.000 HD 
ENDBRANCH  20  23
ENDBRANCH  19  20
ENDBRANCH  17  19
ENDBRANCH  14  17
ENDBRANCH   8  14
BRANCH  11  26
HETATM   26  C   UNL     1      -6.874   9.077  65.592  1.00  0.00    -0.076 C  
HETATM   27  O   UNL     1      -5.608   9.362  65.962  1.00  0.00    -0.043 OA 
HETATM   28  H   UNL     1      -5.056   9.756  65.297  1.00  0.00     0.000 HD 
BRANCH  26  29
HETATM   29  N   UNL     1      -7.302   9.391  64.426  1.00  0.00    -0.105 NA 
HETATM   30  H   UNL     1      -7.131   8.777  63.630  1.00  0.00     0.000 HD 
BRANCH  29  31
HETATM   31  C   UNL     1      -8.044  10.649  64.251  1.00  0.00     0.054 C  
BRANCH  31  32
HETATM   32  C   UNL     1      -9.546  10.413  63.967  1.00  0.00    -0.317 C  
HETATM   33  O   UNL     1     -10.286  10.098  65.158  1.00  0.00    -0.306 OA 
HETATM   34  H   UNL     1     -11.209   9.952  64.983  1.00  0.00     0.000 HD 
BRANCH  32  35
HETATM   35  C   UNL     1     -10.174  11.669  63.339  1.00  0.00    -0.433 C  
HETATM   36  O   UNL     1     -11.550  11.483  63.009  1.00  0.00    -0.848 OA 
HETATM   37  H   UNL     1     -11.937  12.259  62.620  1.00  0.00     0.000 HD 
ENDBRANCH  32  35
ENDBRANCH  31  32
ENDBRANCH  29  31
ENDBRANCH  26  29
ENDBRANCH  11  26
ENDBRANCH   2   5
BRANCH   4  38
HETATM   38  C   UNL     1     -10.895   4.985  66.360  1.00  0.00    -0.044 C  
HETATM   39  O   UNL     1     -11.133   4.346  65.120  1.00  0.00    -0.808 OA 
HETATM   40  H   UNL     1     -11.795   4.802  64.614  1.00  0.00     0.000 HD 
ENDBRANCH   4  38
TORSDOF 12
ENDMDL
MODEL       88
REMARK 921   NORMALIZED FREE ENERGY PREDICTED BY IDOCK:   -4.10 KCAL/MOL
REMARK 922        TOTAL FREE ENERGY PREDICTED BY IDOCK:   -8.01 KCAL/MOL
REMARK 923 INTER-LIGAND FREE ENERGY PREDICTED BY IDOCK:   -7.39 KCAL/MOL
REMARK 924 INTRA-LIGAND FREE ENERGY PREDICTED BY IDOCK:   -0.62 KCAL/MOL
REMARK 927      BINDING AFFINITY PREDICTED BY RF-SCORE:    0.00 PKD
ROOT
HETATM    1  C   UNL     1      -7.279   9.322  70.067  1.00  0.00    -0.078 C  
HETATM    2  N   UNL     1      -8.594   9.000  69.520  1.00  0.00    -0.133 N  
HETATM    3  O   UNL     1      -9.577   8.839  71.594  1.00  0.00    -0.245 OA 
HETATM    4  C   UNL     1      -9.673   8.751  70.373  1.00  0.00    -0.180 C  
ENDROOT
BRANCH   2   5
HETATM    5  C   UNL     1      -8.693   8.977  68.093  1.00  0.00    -0.130 A  
HETATM    6  I   UNL     1      -8.204   5.957  68.570  1.00  0.00    -0.108 I  
HETATM    7  C   UNL     1      -9.073  10.151  67.393  1.00  0.00    -0.137 A  
HETATM    8  C   UNL     1      -9.111  10.154  65.984  1.00  0.00    -0.185 A  
HETATM    9  C   UNL     1      -8.410   7.781  67.385  1.00  0.00    -0.123 A  
HETATM   10  I   UNL     1      -9.624  11.896  68.556  1.00  0.00     0.025 I  
HETATM   11  C   UNL     1      -8.367   7.773  65.967  1.00  0.00    -0.134 A  
HETATM   12  I   UNL     1      -8.193   9.166  63.173  1.00  0.00    -0.170 I  
HETATM   13  C   UNL     1      -8.670   8.987  65.287  1.00  0.00    -0.193 A  
BRANCH   8  14
HETATM   14  C   UNL     1      -9.756  11.267  65.220  1.00  0.00    -0.239 C  
HETATM   15  H   UNL     1      -9.582  13.180  64.802  1.00  0.00     0.000 HD 
HETATM   16  O   UNL     1      -9.172  12.474  65.287  1.00  0.00     0.180 OA 
BRANCH  14  17
HETATM   17  N   UNL     1     -10.826  11.081  64.541  1.00  0.00    -0.268 NA 
HETATM   18  H   UNL     1     -11.513  10.384  64.829  1.00  0.00     0.000 HD 
BRANCH  17  19
HETATM   19  C   UNL     1     -11.039  11.897  63.335  1.00  0.00    -0.383 C  
BRANCH  19  20
HETATM   20  C   UNL     1     -12.346  12.685  63.481  1.00  0.00    -0.496 C  
HETATM   21  H   UNL     1     -14.154  12.356  64.191  1.00  0.00     0.000 HD 
HETATM   22  O   UNL     1     -13.344  11.867  64.102  1.00  0.00    -0.652 OA 
BRANCH  20  23
HETATM   23  C   UNL     1     -12.129  13.976  64.289  1.00  0.00    -0.445 C  
HETATM   24  O   UNL     1     -13.193  14.206  65.212  1.00  0.00    -0.760 OA 
HETATM   25  H   UNL     1     -13.058  15.003  65.711  1.00  0.00     0.000 HD 
ENDBRANCH  20  23
ENDBRANCH  19  20
ENDBRANCH  17  19
ENDBRANCH  14  17
ENDBRANCH   8  14
BRANCH  11  26
HETATM   26  C   UNL     1      -8.015   6.504  65.245  1.00  0.00    -0.119 C  
HETATM   27  O   UNL     1      -6.711   6.158  65.254  1.00  0.00    -0.045 OA 
HETATM   28  H   UNL     1      -6.487   5.355  64.797  1.00  0.00     0.000 HD 
BRANCH  26  29
HETATM   29  N   UNL     1      -8.873   5.808  64.596  1.00  0.00    -0.362 NA 
HETATM   30  H   UNL     1      -9.812   6.169  64.429  1.00  0.00     0.000 HD 
BRANCH  29  31
HETATM   31  C   UNL     1      -8.484   4.481  64.093  1.00  0.00    -0.121 C  
BRANCH  31  32
HETATM   32  C   UNL     1      -9.616   3.439  64.247  1.00  0.00    -0.153 C  
HETATM   33  O   UNL     1      -9.437   2.601  65.399  1.00  0.00    -0.308 OA 
HETATM   34  H   UNL     1     -10.132   1.960  65.493  1.00  0.00     0.000 HD 
BRANCH  32  35
HETATM   35  C   UNL     1     -10.976   4.146  64.382  1.00  0.00     0.002 C  
HETATM   36  O   UNL     1     -11.204   4.639  65.702  1.00  0.00    -0.854 OA 
HETATM   37  H   UNL     1     -12.044   5.075  65.786  1.00  0.00     0.000 HD 
ENDBRANCH  32  35
ENDBRANCH  31  32
ENDBRANCH  29  31
ENDBRANCH  26  29
ENDBRANCH  11  26
ENDBRANCH   2   5
BRANCH   4  38
HETATM   38  C   UNL     1     -11.012   8.326  69.742  1.00  0.00    -0.129 C  
HETATM   39  O   UNL     1     -11.989   9.342  69.861  1.00  0.00    -0.447 OA 
HETATM   40  H   UNL     1     -12.816   9.080  69.472  1.00  0.00     0.000 HD 
ENDBRANCH   4  38
TORSDOF 12
ENDMDL
MODEL       89
REMARK 921   NORMALIZED FREE ENERGY PREDICTED BY IDOCK:   -4.08 KCAL/MOL
REMARK 922        TOTAL FREE ENERGY PREDICTED BY IDOCK:   -7.98 KCAL/MOL
REMARK 923 INTER-LIGAND FREE ENERGY PREDICTED BY IDOCK:   -7.59 KCAL/MOL
REMARK 924 INTRA-LIGAND FREE ENERGY PREDICTED BY IDOCK:   -0.39 KCAL/MOL
REMARK 927      BINDING AFFINITY PREDICTED BY RF-SCORE:    0.00 PKD
ROOT
HETATM    1  C   UNL     1     -11.213  11.963  65.090  1.00  0.00    -0.289 C  
HETATM    2  N   UNL     1     -10.146  12.051  66.082  1.00  0.00    -0.220 N  
HETATM    3  O   UNL     1      -9.743  14.277  65.664  1.00  0.00    -0.288 OA 
HETATM    4  C   UNL     1      -9.456  13.251  66.274  1.00  0.00    -0.184 C  
ENDROOT
BRANCH   2   5
HETATM    5  C   UNL     1      -9.884  10.860  66.830  1.00  0.00    -0.189 A  
HETATM    6  I   UNL     1      -8.022  10.311  64.418  1.00  0.00     0.029 I  
HETATM    7  C   UNL     1     -10.418  10.714  68.136  1.00  0.00    -0.185 A  
HETATM    8  C   UNL     1     -10.216   9.517  68.854  1.00  0.00    -0.213 A  
HETATM    9  C   UNL     1      -9.091   9.830  66.261  1.00  0.00    -0.157 A  
HETATM   10  I   UNL     1     -11.500  12.390  68.986  1.00  0.00    -0.359 I  
HETATM   11  C   UNL     1      -8.934   8.587  66.927  1.00  0.00    -0.166 A  
HETATM   12  I   UNL     1      -9.729   6.444  69.062  1.00  0.00    -0.177 I  
HETATM   13  C   UNL     1      -9.550   8.434  68.201  1.00  0.00    -0.143 A  
BRANCH   8  14
HETATM   14  C   UNL     1     -10.522   9.419  70.316  1.00  0.00    -0.251 C  
HETATM   15  H   UNL     1      -9.694   9.526  72.095  1.00  0.00     0.000 HD 
HETATM   16  O   UNL     1      -9.499   9.588  71.167  1.00  0.00    -0.200 OA 
BRANCH  14  17
HETATM   17  N   UNL     1     -11.706   9.173  70.736  1.00  0.00    -0.344 NA 
HETATM   18  H   UNL     1     -12.509   9.683  70.368  1.00  0.00     0.000 HD 
BRANCH  17  19
HETATM   19  C   UNL     1     -11.880   8.136  71.765  1.00  0.00    -0.300 C  
BRANCH  19  20
HETATM   20  C   UNL     1     -13.178   7.364  71.494  1.00  0.00    -0.372 C  
HETATM   21  H   UNL     1     -13.959   5.633  72.017  1.00  0.00     0.000 HD 
HETATM   22  O   UNL     1     -13.155   6.111  72.185  1.00  0.00     0.012 OA 
BRANCH  20  23
HETATM   23  C   UNL     1     -14.409   8.187  71.911  1.00  0.00    -0.472 C  
HETATM   24  O   UNL     1     -14.184   8.891  73.132  1.00  0.00    -1.144 OA 
HETATM   25  H   UNL     1     -14.944   9.399  73.389  1.00  0.00     0.000 HD 
ENDBRANCH  20  23
ENDBRANCH  19  20
ENDBRANCH  17  19
ENDBRANCH  14  17
ENDBRANCH   8  14
BRANCH  11  26
HETATM   26  C   UNL     1      -8.131   7.497  66.278  1.00  0.00    -0.113 C  
HETATM   27  O   UNL     1      -6.809   7.489  66.550  1.00  0.00    -0.059 OA 
HETATM   28  H   UNL     1      -6.301   6.799  66.139  1.00  0.00     0.000 HD 
BRANCH  26  29
HETATM   29  N   UNL     1      -8.636   6.652  65.458  1.00  0.00    -0.267 NA 
HETATM   30  H   UNL     1      -9.327   6.948  64.769  1.00  0.00     0.000 HD 
BRANCH  29  31
HETATM   31  C   UNL     1      -8.203   5.247  65.522  1.00  0.00    -0.124 C  
BRANCH  31  32
HETATM   32  C   UNL     1      -9.387   4.259  65.394  1.00  0.00    -0.164 C  
HETATM   33  O   UNL     1     -10.236   4.563  64.276  1.00  0.00    -0.397 OA 
HETATM   34  H   UNL     1     -10.963   3.957  64.198  1.00  0.00     0.000 HD 
BRANCH  32  35
HETATM   35  C   UNL     1      -8.866   2.823  65.217  1.00  0.00    -0.129 C  
HETATM   36  O   UNL     1      -9.873   1.843  65.467  1.00  0.00    -0.265 OA 
HETATM   37  H   UNL     1      -9.551   0.956  65.358  1.00  0.00     0.000 HD 
ENDBRANCH  32  35
ENDBRANCH  31  32
ENDBRANCH  29  31
ENDBRANCH  26  29
ENDBRANCH  11  26
ENDBRANCH   2   5
BRANCH   4  38
HETATM   38  C   UNL     1      -8.280  13.259  67.268  1.00  0.00    -0.158 C  
HETATM   39  O   UNL     1      -7.491  14.425  67.132  1.00  0.00    -0.306 OA 
HETATM   40  H   UNL     1      -6.765  14.431  67.745  1.00  0.00     0.000 HD 
ENDBRANCH   4  38
TORSDOF 12
ENDMDL
MODEL       90
REMARK 921   NORMALIZED FREE ENERGY PREDICTED BY IDOCK:   -4.08 KCAL/MOL
REMARK 922        TOTAL FREE ENERGY PREDICTED BY IDOCK:   -7.97 KCAL/MOL
REMARK 923 INTER-LIGAND FREE ENERGY PREDICTED BY IDOCK:   -7.22 KCAL/MOL
REMARK 924 INTRA-LIGAND FREE ENERGY PREDICTED BY IDOCK:   -0.75 KCAL/MOL
REMARK 927      BINDING AFFINITY PREDICTED BY RF-SCORE:    0.00 PKD
ROOT
HETATM    1  C   UNL     1     -11.499   9.379  70.337  1.00  0.00    -0.223 C  
HETATM    2  N   UNL     1     -10.121   8.999  70.037  1.00  0.00    -0.187 N  
HETATM    3  O   UNL     1      -9.445   9.163  72.230  1.00  0.00    -0.229 OA 
HETATM    4  C   UNL     1      -9.165   8.945  71.054  1.00  0.00    -0.245 C  
ENDROOT
BRANCH   2   5
HETATM    5  C   UNL     1      -9.841   8.679  68.671  1.00  0.00    -0.169 A  
HETATM    6  I   UNL     1     -10.780   5.884  69.616  1.00  0.00    -0.347 I  
HETATM    7  C   UNL     1      -9.506   9.713  67.759  1.00  0.00    -0.127 A  
HETATM    8  C   UNL     1      -9.167   9.399  66.427  1.00  0.00    -0.215 A  
HETATM    9  C   UNL     1      -9.899   7.330  68.235  1.00  0.00    -0.154 A  
HETATM   10  I   UNL     1      -9.577  11.760  68.469  1.00  0.00    -0.006 I  
HETATM   11  C   UNL     1      -9.491   6.976  66.924  1.00  0.00    -0.199 A  
HETATM   12  I   UNL     1      -8.031   7.520  64.213  1.00  0.00     0.055 I  
HETATM   13  C   UNL     1      -9.078   8.022  66.051  1.00  0.00    -0.142 A  
BRANCH   8  14
HETATM   14  C   UNL     1      -9.072  10.456  65.372  1.00  0.00    -0.189 C  
HETATM   15  H   UNL     1      -7.812  11.699  64.517  1.00  0.00     0.000 HD 
HETATM   16  O   UNL     1      -7.872  11.028  65.186  1.00  0.00     0.089 OA 
BRANCH  14  17
HETATM   17  N   UNL     1     -10.093  10.811  64.686  1.00  0.00    -0.322 NA 
HETATM   18  H   UNL     1     -10.591  10.137  64.105  1.00  0.00     0.000 HD 
BRANCH  17  19
HETATM   19  C   UNL     1     -10.529  12.214  64.755  1.00  0.00    -0.294 C  
BRANCH  19  20
HETATM   20  C   UNL     1     -12.061  12.268  64.793  1.00  0.00    -0.365 C  
HETATM   21  H   UNL     1     -13.442  13.293  65.754  1.00  0.00     0.000 HD 
HETATM   22  O   UNL     1     -12.492  13.260  65.731  1.00  0.00    -0.448 OA 
BRANCH  20  23
HETATM   23  C   UNL     1     -12.640  12.558  63.398  1.00  0.00    -0.312 C  
HETATM   24  O   UNL     1     -12.439  13.918  63.016  1.00  0.00    -1.099 OA 
HETATM   25  H   UNL     1     -12.797  14.097  62.154  1.00  0.00     0.000 HD 
ENDBRANCH  20  23
ENDBRANCH  19  20
ENDBRANCH  17  19
ENDBRANCH  14  17
ENDBRANCH   8  14
BRANCH  11  26
HETATM   26  C   UNL     1      -9.514   5.533  66.507  1.00  0.00    -0.151 C  
HETATM   27  O   UNL     1     -10.598   5.134  65.809  1.00  0.00    -0.468 OA 
HETATM   28  H   UNL     1     -10.613   4.221  65.545  1.00  0.00     0.000 HD 
BRANCH  26  29
HETATM   29  N   UNL     1      -8.603   4.696  66.838  1.00  0.00    -0.105 NA 
HETATM   30  H   UNL     1      -8.320   4.598  67.813  1.00  0.00     0.000 HD 
BRANCH  29  31
HETATM   31  C   UNL     1      -7.971   3.875  65.793  1.00  0.00    -0.093 C  
BRANCH  31  32
HETATM   32  C   UNL     1      -8.599   2.466  65.690  1.00  0.00    -0.115 C  
HETATM   33  O   UNL     1      -9.696   2.287  66.600  1.00  0.00    -0.351 OA 
HETATM   34  H   UNL     1     -10.081   1.421  66.538  1.00  0.00     0.000 HD 
BRANCH  32  35
HETATM   35  C   UNL     1      -9.122   2.218  64.264  1.00  0.00    -0.116 C  
HETATM   36  O   UNL     1     -10.524   1.950  64.238  1.00  0.00    -0.347 OA 
HETATM   37  H   UNL     1     -10.847   1.797  63.357  1.00  0.00     0.000 HD 
ENDBRANCH  32  35
ENDBRANCH  31  32
ENDBRANCH  29  31
ENDBRANCH  26  29
ENDBRANCH  11  26
ENDBRANCH   2   5
BRANCH   4  38
HETATM   38  C   UNL     1      -7.709   8.628  70.664  1.00  0.00    -0.086 C  
HETATM   39  O   UNL     1      -6.788   9.274  71.521  1.00  0.00    -0.260 OA 
HETATM   40  H   UNL     1      -5.889   9.078  71.280  1.00  0.00     0.000 HD 
ENDBRANCH   4  38
TORSDOF 12
ENDMDL
MODEL       91
REMARK 921   NORMALIZED FREE ENERGY PREDICTED BY IDOCK:   -4.07 KCAL/MOL
REMARK 922        TOTAL FREE ENERGY PREDICTED BY IDOCK:   -7.97 KCAL/MOL
REMARK 923 INTER-LIGAND FREE ENERGY PREDICTED BY IDOCK:   -6.87 KCAL/MOL
REMARK 924 INTRA-LIGAND FREE ENERGY PREDICTED BY IDOCK:   -1.10 KCAL/MOL
REMARK 927      BINDING AFFINITY PREDICTED BY RF-SCORE:    0.00 PKD
ROOT
HETATM    1  C   UNL     1      -7.166   6.157  66.472  1.00  0.00    -0.073 C  
HETATM    2  N   UNL     1      -8.593   5.989  66.727  1.00  0.00    -0.109 N  
HETATM    3  O   UNL     1      -8.883   4.529  64.973  1.00  0.00    -0.134 OA 
HETATM    4  C   UNL     1      -9.368   5.170  65.901  1.00  0.00    -0.159 C  
ENDROOT
BRANCH   2   5
HETATM    5  C   UNL     1      -9.116   6.690  67.859  1.00  0.00    -0.114 A  
HETATM    6  I   UNL     1      -8.094   4.156  69.317  1.00  0.00    -0.076 I  
HETATM    7  C   UNL     1      -9.581   8.022  67.712  1.00  0.00    -0.151 A  
HETATM    8  C   UNL     1     -10.156   8.697  68.808  1.00  0.00    -0.210 A  
HETATM    9  C   UNL     1      -9.168   6.049  69.124  1.00  0.00    -0.126 A  
HETATM   10  I   UNL     1      -9.338   8.978  65.781  1.00  0.00    -0.160 I  
HETATM   11  C   UNL     1      -9.808   6.674  70.225  1.00  0.00    -0.188 A  
HETATM   12  I   UNL     1     -11.707   8.800  71.511  1.00  0.00    -0.453 I  
HETATM   13  C   UNL     1     -10.343   7.979  70.030  1.00  0.00    -0.218 A  
BRANCH   8  14
HETATM   14  C   UNL     1     -10.408  10.172  68.776  1.00  0.00    -0.194 C  
HETATM   15  H   UNL     1      -9.619  11.903  69.271  1.00  0.00     0.000 HD 
HETATM   16  O   UNL     1      -9.458  10.967  69.292  1.00  0.00    -0.148 OA 
BRANCH  14  17
HETATM   17  N   UNL     1     -11.489  10.655  68.289  1.00  0.00    -0.517 NA 
HETATM   18  H   UNL     1     -11.979  10.180  67.531  1.00  0.00     0.000 HD 
BRANCH  17  19
HETATM   19  C   UNL     1     -12.007  11.913  68.849  1.00  0.00    -0.254 C  
BRANCH  19  20
HETATM   20  C   UNL     1     -11.801  13.044  67.834  1.00  0.00    -0.343 C  
HETATM   21  H   UNL     1     -10.466  14.454  67.502  1.00  0.00     0.000 HD 
HETATM   22  O   UNL     1     -10.594  13.753  68.131  1.00  0.00    -0.241 OA 
BRANCH  20  23
HETATM   23  C   UNL     1     -11.765  12.498  66.396  1.00  0.00    -0.397 C  
HETATM   24  O   UNL     1     -12.182  13.481  65.449  1.00  0.00    -0.392 OA 
HETATM   25  H   UNL     1     -12.160  13.144  64.561  1.00  0.00     0.000 HD 
ENDBRANCH  20  23
ENDBRANCH  19  20
ENDBRANCH  17  19
ENDBRANCH  14  17
ENDBRANCH   8  14
BRANCH  11  26
HETATM   26  C   UNL     1      -9.893   5.950  71.539  1.00  0.00    -0.166 C  
HETATM   27  O   UNL     1     -10.810   4.963  71.615  1.00  0.00    -0.075 OA 
HETATM   28  H   UNL     1     -10.864   4.505  72.446  1.00  0.00     0.000 HD 
BRANCH  26  29
HETATM   29  N   UNL     1      -9.194   6.275  72.562  1.00  0.00    -0.141 NA 
HETATM   30  H   UNL     1      -9.546   6.956  73.234  1.00  0.00     0.000 HD 
BRANCH  29  31
HETATM   31  C   UNL     1      -7.875   5.652  72.754  1.00  0.00    -0.102 C  
BRANCH  31  32
HETATM   32  C   UNL     1      -6.723   6.684  72.708  1.00  0.00    -0.067 C  
HETATM   33  O   UNL     1      -6.305   6.979  71.366  1.00  0.00    -0.040 OA 
HETATM   34  H   UNL     1      -5.598   7.612  71.338  1.00  0.00     0.000 HD 
BRANCH  32  35
HETATM   35  C   UNL     1      -7.163   8.002  73.368  1.00  0.00    -0.129 C  
HETATM   36  O   UNL     1      -7.624   8.961  72.415  1.00  0.00    -0.351 OA 
HETATM   37  H   UNL     1      -7.895   9.775  72.822  1.00  0.00     0.000 HD 
ENDBRANCH  32  35
ENDBRANCH  31  32
ENDBRANCH  29  31
ENDBRANCH  26  29
ENDBRANCH  11  26
ENDBRANCH   2   5
BRANCH   4  38
HETATM   38  C   UNL     1     -10.884   5.104  66.163  1.00  0.00    -0.097 C  
HETATM   39  O   UNL     1     -11.563   4.426  65.123  1.00  0.00    -1.042 OA 
HETATM   40  H   UNL     1     -12.499   4.386  65.285  1.00  0.00     0.000 HD 
ENDBRANCH   4  38
TORSDOF 12
ENDMDL
MODEL       92
REMARK 921   NORMALIZED FREE ENERGY PREDICTED BY IDOCK:   -4.05 KCAL/MOL
REMARK 922        TOTAL FREE ENERGY PREDICTED BY IDOCK:   -7.94 KCAL/MOL
REMARK 923 INTER-LIGAND FREE ENERGY PREDICTED BY IDOCK:   -7.25 KCAL/MOL
REMARK 924 INTRA-LIGAND FREE ENERGY PREDICTED BY IDOCK:   -0.69 KCAL/MOL
REMARK 927      BINDING AFFINITY PREDICTED BY RF-SCORE:    0.00 PKD
ROOT
HETATM    1  C   UNL     1      -7.688   9.050  66.315  1.00  0.00    -0.095 C  
HETATM    2  N   UNL     1      -7.418   9.498  67.679  1.00  0.00    -0.090 N  
HETATM    3  O   UNL     1      -5.609   8.100  67.934  1.00  0.00    -0.033 OA 
HETATM    4  C   UNL     1      -6.368   8.939  68.412  1.00  0.00    -0.055 C  
ENDROOT
BRANCH   2   5
HETATM    5  C   UNL     1      -8.273  10.529  68.182  1.00  0.00    -0.114 A  
HETATM    6  I   UNL     1      -9.789   8.078  69.315  1.00  0.00    -0.193 I  
HETATM    7  C   UNL     1      -7.897  11.889  68.040  1.00  0.00    -0.140 A  
HETATM    8  C   UNL     1      -8.763  12.912  68.476  1.00  0.00    -0.038 A  
HETATM    9  C   UNL     1      -9.492  10.186  68.821  1.00  0.00    -0.171 A  
HETATM   10  I   UNL     1      -5.955  12.324  67.179  1.00  0.00     0.251 I  
HETATM   11  C   UNL     1     -10.417  11.192  69.203  1.00  0.00    -0.211 A  
HETATM   12  I   UNL     1     -11.578  14.094  69.112  1.00  0.00    -0.411 I  
HETATM   13  C   UNL     1     -10.054  12.549  68.972  1.00  0.00     0.175 A  
BRANCH   8  14
HETATM   14  C   UNL     1      -8.302  14.332  68.594  1.00  0.00    -0.135 C  
HETATM   15  H   UNL     1      -7.510  15.616  69.853  1.00  0.00     0.000 HD 
HETATM   16  O   UNL     1      -7.802  14.716  69.779  1.00  0.00     0.004 OA 
BRANCH  14  17
HETATM   17  N   UNL     1      -8.393  15.148  67.613  1.00  0.00    -0.151 NA 
HETATM   18  H   UNL     1      -7.846  16.009  67.597  1.00  0.00     0.000 HD 
BRANCH  17  19
HETATM   19  C   UNL     1      -9.304  14.815  66.507  1.00  0.00    -0.290 C  
BRANCH  19  20
HETATM   20  C   UNL     1      -9.455  16.033  65.588  1.00  0.00    -0.140 C  
HETATM   21  H   UNL     1     -10.705  16.635  64.190  1.00  0.00     0.000 HD 
HETATM   22  O   UNL     1     -10.612  15.880  64.760  1.00  0.00    -0.562 OA 
BRANCH  20  23
HETATM   23  C   UNL     1      -9.544  17.335  66.403  1.00  0.00    -0.274 C  
HETATM   24  O   UNL     1     -10.470  17.219  67.482  1.00  0.00    -0.345 OA 
HETATM   25  H   UNL     1     -10.525  18.023  67.985  1.00  0.00     0.000 HD 
ENDBRANCH  20  23
ENDBRANCH  19  20
ENDBRANCH  17  19
ENDBRANCH  14  17
ENDBRANCH   8  14
BRANCH  11  26
HETATM   26  C   UNL     1     -11.722  10.797  69.831  1.00  0.00    -0.333 C  
HETATM   27  O   UNL     1     -12.730  10.516  68.979  1.00  0.00    -0.601 OA 
HETATM   28  H   UNL     1     -13.557  10.266  69.376  1.00  0.00     0.000 HD 
BRANCH  26  29
HETATM   29  N   UNL     1     -11.913  10.783  71.098  1.00  0.00    -0.305 NA 
HETATM   30  H   UNL     1     -11.192  11.126  71.733  1.00  0.00     0.000 HD 
BRANCH  29  31
HETATM   31  C   UNL     1     -13.186  10.267  71.624  1.00  0.00    -0.408 C  
BRANCH  31  32
HETATM   32  C   UNL     1     -12.985   9.061  72.572  1.00  0.00    -0.361 C  
HETATM   33  O   UNL     1     -14.051   8.930  73.525  1.00  0.00    -1.189 OA 
HETATM   34  H   UNL     1     -13.928   8.190  74.108  1.00  0.00     0.000 HD 
BRANCH  32  35
HETATM   35  C   UNL     1     -12.911   7.754  71.763  1.00  0.00    -0.327 C  
HETATM   36  O   UNL     1     -14.027   7.592  70.887  1.00  0.00    -0.632 OA 
HETATM   37  H   UNL     1     -13.981   6.785  70.388  1.00  0.00     0.000 HD 
ENDBRANCH  32  35
ENDBRANCH  31  32
ENDBRANCH  29  31
ENDBRANCH  26  29
ENDBRANCH  11  26
ENDBRANCH   2   5
BRANCH   4  38
HETATM   38  C   UNL     1      -6.189   9.383  69.875  1.00  0.00    -0.040 C  
HETATM   39  O   UNL     1      -6.159   8.276  70.755  1.00  0.00    -0.032 OA 
HETATM   40  H   UNL     1      -6.049   8.551  71.659  1.00  0.00     0.000 HD 
ENDBRANCH   4  38
TORSDOF 12
ENDMDL
MODEL       93
REMARK 921   NORMALIZED FREE ENERGY PREDICTED BY IDOCK:   -4.05 KCAL/MOL
REMARK 922        TOTAL FREE ENERGY PREDICTED BY IDOCK:   -7.94 KCAL/MOL
REMARK 923 INTER-LIGAND FREE ENERGY PREDICTED BY IDOCK:   -8.87 KCAL/MOL
REMARK 924 INTRA-LIGAND FREE ENERGY PREDICTED BY IDOCK:    0.93 KCAL/MOL
REMARK 927      BINDING AFFINITY PREDICTED BY RF-SCORE:    0.00 PKD
ROOT
HETATM    1  C   UNL     1      -9.054   7.170  68.032  1.00  0.00    -0.132 C  
HETATM    2  N   UNL     1      -8.548   8.506  68.334  1.00  0.00    -0.138 N  
HETATM    3  O   UNL     1      -6.428   7.751  68.815  1.00  0.00    -0.042 OA 
HETATM    4  C   UNL     1      -7.223   8.685  68.742  1.00  0.00    -0.075 C  
ENDROOT
BRANCH   2   5
HETATM    5  C   UNL     1      -9.476   9.582  68.169  1.00  0.00    -0.133 A  
HETATM    6  I   UNL     1      -8.648   9.227  65.206  1.00  0.00    -0.231 I  
HETATM    7  C   UNL     1     -10.256  10.017  69.271  1.00  0.00    -0.214 A  
HETATM    8  C   UNL     1     -11.126  11.118  69.132  1.00  0.00    -0.306 A  
HETATM    9  C   UNL     1      -9.611  10.210  66.903  1.00  0.00    -0.177 A  
HETATM   10  I   UNL     1     -10.093   8.915  71.131  1.00  0.00    -0.390 I  
HETATM   11  C   UNL     1     -10.420  11.364  66.752  1.00  0.00    -0.284 A  
HETATM   12  I   UNL     1     -12.014  13.819  67.853  1.00  0.00    -0.106 I  
HETATM   13  C   UNL     1     -11.129  11.833  67.895  1.00  0.00    -0.245 A  
BRANCH   8  14
HETATM   14  C   UNL     1     -12.154  11.440  70.170  1.00  0.00    -0.357 C  
HETATM   15  H   UNL     1     -13.962  10.964  70.778  1.00  0.00     0.000 HD 
HETATM   16  O   UNL     1     -13.310  10.759  70.118  1.00  0.00     0.048 OA 
BRANCH  14  17
HETATM   17  N   UNL     1     -11.947  12.334  71.063  1.00  0.00    -0.269 NA 
HETATM   18  H   UNL     1     -11.436  12.111  71.917  1.00  0.00     0.000 HD 
BRANCH  17  19
HETATM   19  C   UNL     1     -12.464  13.690  70.826  1.00  0.00    -0.359 C  
BRANCH  19  20
HETATM   20  C   UNL     1     -13.658  13.948  71.754  1.00  0.00    -0.385 C  
HETATM   21  H   UNL     1     -14.045  13.787  73.679  1.00  0.00     0.000 HD 
HETATM   22  O   UNL     1     -13.305  13.628  73.104  1.00  0.00    -0.518 OA 
BRANCH  20  23
HETATM   23  C   UNL     1     -14.134  15.407  71.653  1.00  0.00    -0.514 C  
HETATM   24  O   UNL     1     -13.829  16.144  72.836  1.00  0.00    -0.498 OA 
HETATM   25  H   UNL     1     -14.123  17.045  72.774  1.00  0.00     0.000 HD 
ENDBRANCH  20  23
ENDBRANCH  19  20
ENDBRANCH  17  19
ENDBRANCH  14  17
ENDBRANCH   8  14
BRANCH  11  26
HETATM   26  C   UNL     1     -10.504  12.038  65.412  1.00  0.00    -0.275 C  
HETATM   27  O   UNL     1     -11.401  11.526  64.544  1.00  0.00    -0.276 OA 
HETATM   28  H   UNL     1     -11.455  11.952  63.697  1.00  0.00     0.000 HD 
BRANCH  26  29
HETATM   29  N   UNL     1      -9.735  13.002  65.066  1.00  0.00    -0.517 NA 
HETATM   30  H   UNL     1      -8.721  12.893  65.099  1.00  0.00     0.000 HD 
BRANCH  29  31
HETATM   31  C   UNL     1     -10.333  14.270  64.619  1.00  0.00    -0.224 C  
BRANCH  31  32
HETATM   32  C   UNL     1     -10.015  15.442  65.576  1.00  0.00    -0.344 C  
HETATM   33  O   UNL     1      -8.610  15.555  65.855  1.00  0.00    -0.331 OA 
HETATM   34  H   UNL     1      -8.414  16.275  66.444  1.00  0.00     0.000 HD 
BRANCH  32  35
HETATM   35  C   UNL     1     -10.484  16.773  64.964  1.00  0.00     0.077 C  
HETATM   36  O   UNL     1     -11.369  16.582  63.860  1.00  0.00    -1.557 OA 
HETATM   37  H   UNL     1     -11.659  17.403  63.481  1.00  0.00     0.000 HD 
ENDBRANCH  32  35
ENDBRANCH  31  32
ENDBRANCH  29  31
ENDBRANCH  26  29
ENDBRANCH  11  26
ENDBRANCH   2   5
BRANCH   4  38
HETATM   38  C   UNL     1      -6.771  10.103  69.135  1.00  0.00    -0.056 C  
HETATM   39  O   UNL     1      -5.669  10.532  68.359  1.00  0.00    -0.038 OA 
HETATM   40  H   UNL     1      -5.391  11.408  68.602  1.00  0.00     0.000 HD 
ENDBRANCH   4  38
TORSDOF 12
ENDMDL
MODEL       94
REMARK 921   NORMALIZED FREE ENERGY PREDICTED BY IDOCK:   -4.05 KCAL/MOL
REMARK 922        TOTAL FREE ENERGY PREDICTED BY IDOCK:   -7.93 KCAL/MOL
REMARK 923 INTER-LIGAND FREE ENERGY PREDICTED BY IDOCK:   -7.07 KCAL/MOL
REMARK 924 INTRA-LIGAND FREE ENERGY PREDICTED BY IDOCK:   -0.85 KCAL/MOL
REMARK 927      BINDING AFFINITY PREDICTED BY RF-SCORE:    0.00 PKD
ROOT
HETATM    1  C   UNL     1     -12.570   9.347  72.403  1.00  0.00    -0.237 C  
HETATM    2  N   UNL     1     -11.834   8.433  71.534  1.00  0.00    -0.284 N  
HETATM    3  O   UNL     1     -13.664   7.093  71.149  1.00  0.00    -0.296 OA 
HETATM    4  C   UNL     1     -12.469   7.320  70.977  1.00  0.00    -0.285 C  
ENDROOT
BRANCH   2   5
HETATM    5  C   UNL     1     -10.463   8.763  71.292  1.00  0.00    -0.256 A  
HETATM    6  I   UNL     1     -11.776  10.800  69.365  1.00  0.00    -0.320 I  
HETATM    7  C   UNL     1      -9.444   8.173  72.083  1.00  0.00    -0.225 A  
HETATM    8  C   UNL     1      -8.088   8.445  71.809  1.00  0.00    -0.192 A  
HETATM    9  C   UNL     1     -10.129   9.679  70.261  1.00  0.00    -0.275 A  
HETATM   10  I   UNL     1     -10.045   6.894  73.728  1.00  0.00    -0.334 I  
HETATM   11  C   UNL     1      -8.774   9.914  69.914  1.00  0.00    -0.225 A  
HETATM   12  I   UNL     1      -5.728   9.204  69.918  1.00  0.00    -0.033 I  
HETATM   13  C   UNL     1      -7.769   9.244  70.668  1.00  0.00    -0.151 A  
BRANCH   8  14
HETATM   14  C   UNL     1      -7.004   8.068  72.770  1.00  0.00    -0.092 C  
HETATM   15  H   UNL     1      -6.137   8.626  74.444  1.00  0.00     0.000 HD 
HETATM   16  O   UNL     1      -6.826   8.866  73.834  1.00  0.00    -0.349 OA 
BRANCH  14  17
HETATM   17  N   UNL     1      -6.270   7.037  72.580  1.00  0.00    -0.052 NA 
HETATM   18  H   UNL     1      -5.262   7.077  72.734  1.00  0.00     0.000 HD 
BRANCH  17  19
HETATM   19  C   UNL     1      -6.914   5.793  72.132  1.00  0.00    -0.082 C  
BRANCH  19  20
HETATM   20  C   UNL     1      -6.308   5.361  70.791  1.00  0.00    -0.031 C  
HETATM   21  H   UNL     1      -5.337   3.799  70.086  1.00  0.00     0.000 HD 
HETATM   22  O   UNL     1      -5.713   4.066  70.918  1.00  0.00    -0.012 OA 
BRANCH  20  23
HETATM   23  C   UNL     1      -7.370   5.359  69.678  1.00  0.00    -0.065 C  
HETATM   24  O   UNL     1      -6.838   4.883  68.442  1.00  0.00    -0.053 OA 
HETATM   25  H   UNL     1      -7.494   4.882  67.755  1.00  0.00     0.000 HD 
ENDBRANCH  20  23
ENDBRANCH  19  20
ENDBRANCH  17  19
ENDBRANCH  14  17
ENDBRANCH   8  14
BRANCH  11  26
HETATM   26  C   UNL     1      -8.451  10.850  68.784  1.00  0.00    -0.150 C  
HETATM   27  O   UNL     1      -8.201  12.131  69.127  1.00  0.00    -0.336 OA 
HETATM   28  H   UNL     1      -7.997  12.723  68.412  1.00  0.00     0.000 HD 
BRANCH  26  29
HETATM   29  N   UNL     1      -8.471  10.493  67.554  1.00  0.00    -0.118 NA 
HETATM   30  H   UNL     1      -8.559   9.508  67.302  1.00  0.00     0.000 HD 
BRANCH  29  31
HETATM   31  C   UNL     1      -8.366  11.523  66.508  1.00  0.00    -0.147 C  
BRANCH  31  32
HETATM   32  C   UNL     1      -9.615  11.567  65.597  1.00  0.00    -0.231 C  
HETATM   33  O   UNL     1      -9.620  12.711  64.729  1.00  0.00    -0.486 OA 
HETATM   34  H   UNL     1     -10.387  12.739  64.170  1.00  0.00     0.000 HD 
BRANCH  32  35
HETATM   35  C   UNL     1      -9.676  10.306  64.717  1.00  0.00    -0.332 C  
HETATM   36  O   UNL     1      -9.849   9.114  65.485  1.00  0.00    -0.455 OA 
HETATM   37  H   UNL     1      -9.887   8.336  64.942  1.00  0.00     0.000 HD 
ENDBRANCH  32  35
ENDBRANCH  31  32
ENDBRANCH  29  31
ENDBRANCH  26  29
ENDBRANCH  11  26
ENDBRANCH   2   5
BRANCH   4  38
HETATM   38  C   UNL     1     -11.620   6.342  70.145  1.00  0.00    -0.381 C  
HETATM   39  O   UNL     1     -11.632   6.681  68.771  1.00  0.00    -0.587 OA 
HETATM   40  H   UNL     1     -11.108   6.077  68.257  1.00  0.00     0.000 HD 
ENDBRANCH   4  38
TORSDOF 12
ENDMDL
MODEL       95
REMARK 921   NORMALIZED FREE ENERGY PREDICTED BY IDOCK:   -4.04 KCAL/MOL
REMARK 922        TOTAL FREE ENERGY PREDICTED BY IDOCK:   -7.92 KCAL/MOL
REMARK 923 INTER-LIGAND FREE ENERGY PREDICTED BY IDOCK:   -6.92 KCAL/MOL
REMARK 924 INTRA-LIGAND FREE ENERGY PREDICTED BY IDOCK:   -0.99 KCAL/MOL
REMARK 927      BINDING AFFINITY PREDICTED BY RF-SCORE:    0.00 PKD
ROOT
HETATM    1  C   UNL     1      -7.131   6.828  70.216  1.00  0.00    -0.071 C  
HETATM    2  N   UNL     1      -8.309   7.322  69.509  1.00  0.00    -0.131 N  
HETATM    3  O   UNL     1      -9.643   7.248  71.382  1.00  0.00    -0.161 OA 
HETATM    4  C   UNL     1      -9.526   7.472  70.181  1.00  0.00    -0.161 C  
ENDROOT
BRANCH   2   5
HETATM    5  C   UNL     1      -8.124   7.646  68.128  1.00  0.00    -0.124 A  
HETATM    6  I   UNL     1      -7.421  10.404  69.347  1.00  0.00    -0.125 I  
HETATM    7  C   UNL     1      -8.192   6.623  67.148  1.00  0.00    -0.113 A  
HETATM    8  C   UNL     1      -8.074   6.944  65.780  1.00  0.00    -0.123 A  
HETATM    9  C   UNL     1      -7.874   8.989  67.745  1.00  0.00    -0.101 A  
HETATM   10  I   UNL     1      -8.438   4.578  67.826  1.00  0.00    -0.117 I  
HETATM   11  C   UNL     1      -7.825   9.353  66.375  1.00  0.00    -0.100 A  
HETATM   12  I   UNL     1      -8.363   8.856  63.335  1.00  0.00    -0.042 I  
HETATM   13  C   UNL     1      -7.981   8.320  65.407  1.00  0.00    -0.127 A  
BRANCH   8  14
HETATM   14  C   UNL     1      -7.871   5.885  64.742  1.00  0.00    -0.113 C  
HETATM   15  H   UNL     1      -6.475   4.881  63.788  1.00  0.00     0.000 HD 
HETATM   16  O   UNL     1      -6.604   5.553  64.447  1.00  0.00    -0.039 OA 
BRANCH  14  17
HETATM   17  N   UNL     1      -8.860   5.329  64.150  1.00  0.00    -0.338 NA 
HETATM   18  H   UNL     1      -9.806   5.698  64.253  1.00  0.00     0.000 HD 
BRANCH  17  19
HETATM   19  C   UNL     1      -8.601   4.144  63.318  1.00  0.00    -0.104 C  
BRANCH  19  20
HETATM   20  C   UNL     1      -9.720   3.117  63.534  1.00  0.00    -0.120 C  
HETATM   21  H   UNL     1     -10.135   1.692  64.830  1.00  0.00     0.000 HD 
HETATM   22  O   UNL     1      -9.442   2.328  64.696  1.00  0.00    -0.142 OA 
BRANCH  20  23
HETATM   23  C   UNL     1     -11.088   3.808  63.667  1.00  0.00     0.103 C  
HETATM   24  O   UNL     1     -11.326   4.254  65.002  1.00  0.00    -0.996 OA 
HETATM   25  H   UNL     1     -12.171   4.680  65.084  1.00  0.00     0.000 HD 
ENDBRANCH  20  23
ENDBRANCH  19  20
ENDBRANCH  17  19
ENDBRANCH  14  17
ENDBRANCH   8  14
BRANCH  11  26
HETATM   26  C   UNL     1      -7.610  10.791  65.999  1.00  0.00    -0.130 C  
HETATM   27  O   UNL     1      -6.336  11.153  65.739  1.00  0.00    -0.355 OA 
HETATM   28  H   UNL     1      -6.199  12.063  65.501  1.00  0.00     0.000 HD 
BRANCH  26  29
HETATM   29  N   UNL     1      -8.553  11.658  65.984  1.00  0.00    -0.374 NA 
HETATM   30  H   UNL     1      -8.339  12.655  65.966  1.00  0.00     0.000 HD 
BRANCH  29  31
HETATM   31  C   UNL     1      -9.949  11.196  65.993  1.00  0.00    -0.236 C  
BRANCH  31  32
HETATM   32  C   UNL     1     -10.900  12.179  65.271  1.00  0.00    -0.293 C  
HETATM   33  O   UNL     1     -10.803  13.515  65.788  1.00  0.00    -0.273 OA 
HETATM   34  H   UNL     1     -11.387  14.119  65.345  1.00  0.00     0.000 HD 
BRANCH  32  35
HETATM   35  C   UNL     1     -10.574  12.228  63.768  1.00  0.00    -0.451 C  
HETATM   36  O   UNL     1     -11.570  12.922  63.017  1.00  0.00    -0.804 OA 
HETATM   37  H   UNL     1     -11.368  12.952  62.089  1.00  0.00     0.000 HD 
ENDBRANCH  32  35
ENDBRANCH  31  32
ENDBRANCH  29  31
ENDBRANCH  26  29
ENDBRANCH  11  26
ENDBRANCH   2   5
BRANCH   4  38
HETATM   38  C   UNL     1     -10.755   7.909  69.363  1.00  0.00    -0.168 C  
HETATM   39  O   UNL     1     -11.645   6.830  69.145  1.00  0.00    -0.592 OA 
HETATM   40  H   UNL     1     -12.404   7.100  68.640  1.00  0.00     0.000 HD 
ENDBRANCH   4  38
TORSDOF 12
ENDMDL
MODEL       96
REMARK 921   NORMALIZED FREE ENERGY PREDICTED BY IDOCK:   -4.00 KCAL/MOL
REMARK 922        TOTAL FREE ENERGY PREDICTED BY IDOCK:   -7.84 KCAL/MOL
REMARK 923 INTER-LIGAND FREE ENERGY PREDICTED BY IDOCK:   -6.88 KCAL/MOL
REMARK 924 INTRA-LIGAND FREE ENERGY PREDICTED BY IDOCK:   -0.96 KCAL/MOL
REMARK 927      BINDING AFFINITY PREDICTED BY RF-SCORE:    0.00 PKD
ROOT
HETATM    1  C   UNL     1     -12.502  12.108  64.761  1.00  0.00    -0.178 C  
HETATM    2  N   UNL     1     -11.211  12.416  65.369  1.00  0.00    -0.307 N  
HETATM    3  O   UNL     1     -11.417  14.678  65.009  1.00  0.00    -0.356 OA 
HETATM    4  C   UNL     1     -10.749  13.734  65.420  1.00  0.00    -0.317 C  
ENDROOT
BRANCH   2   5
HETATM    5  C   UNL     1     -10.488  11.304  65.906  1.00  0.00    -0.259 A  
HETATM    6  I   UNL     1      -9.303  11.286  63.046  1.00  0.00    -0.123 I  
HETATM    7  C   UNL     1     -10.588  10.998  67.288  1.00  0.00    -0.245 A  
HETATM    8  C   UNL     1      -9.930   9.867  67.812  1.00  0.00    -0.201 A  
HETATM    9  C   UNL     1      -9.676  10.511  65.054  1.00  0.00    -0.292 A  
HETATM   10  I   UNL     1     -11.736  12.339  68.547  1.00  0.00    -0.234 I  
HETATM   11  C   UNL     1      -9.064   9.326  65.536  1.00  0.00    -0.275 A  
HETATM   12  I   UNL     1      -8.726   6.998  67.597  1.00  0.00    -0.118 I  
HETATM   13  C   UNL     1      -9.248   8.994  66.909  1.00  0.00    -0.142 A  
BRANCH   8  14
HETATM   14  C   UNL     1      -9.784   9.658  69.287  1.00  0.00    -0.185 C  
HETATM   15  H   UNL     1      -8.622  10.079  70.816  1.00  0.00     0.000 HD 
HETATM   16  O   UNL     1      -8.714  10.211  69.880  1.00  0.00    -0.173 OA 
BRANCH  14  17
HETATM   17  N   UNL     1     -10.635   8.973  69.953  1.00  0.00    -0.223 NA 
HETATM   18  H   UNL     1     -11.085   8.155  69.542  1.00  0.00     0.000 HD 
BRANCH  17  19
HETATM   19  C   UNL     1     -10.948   9.393  71.328  1.00  0.00    -0.370 C  
BRANCH  19  20
HETATM   20  C   UNL     1     -11.938   8.399  71.949  1.00  0.00    -0.338 C  
HETATM   21  H   UNL     1     -13.893   8.179  72.036  1.00  0.00     0.000 HD 
HETATM   22  O   UNL     1     -13.281   8.795  71.651  1.00  0.00    -0.336 OA 
BRANCH  20  23
HETATM   23  C   UNL     1     -11.674   6.968  71.449  1.00  0.00    -0.306 C  
HETATM   24  O   UNL     1     -12.315   6.720  70.199  1.00  0.00    -0.614 OA 
HETATM   25  H   UNL     1     -12.152   5.837  69.890  1.00  0.00     0.000 HD 
ENDBRANCH  20  23
ENDBRANCH  19  20
ENDBRANCH  17  19
ENDBRANCH  14  17
ENDBRANCH   8  14
BRANCH  11  26
HETATM   26  C   UNL     1      -8.252   8.480  64.598  1.00  0.00    -0.160 C  
HETATM   27  O   UNL     1      -6.925   8.726  64.573  1.00  0.00    -0.082 OA 
HETATM   28  H   UNL     1      -6.411   8.191  63.980  1.00  0.00     0.000 HD 
BRANCH  26  29
HETATM   29  N   UNL     1      -8.772   7.614  63.811  1.00  0.00    -0.113 NA 
HETATM   30  H   UNL     1      -9.782   7.474  63.790  1.00  0.00     0.000 HD 
BRANCH  29  31
HETATM   31  C   UNL     1      -7.892   6.822  62.936  1.00  0.00    -0.108 C  
BRANCH  31  32
HETATM   32  C   UNL     1      -7.584   5.423  63.520  1.00  0.00    -0.065 C  
HETATM   33  O   UNL     1      -6.672   5.481  64.628  1.00  0.00    -0.041 OA 
HETATM   34  H   UNL     1      -6.483   4.621  64.987  1.00  0.00     0.000 HD 
BRANCH  32  35
HETATM   35  C   UNL     1      -8.881   4.754  64.008  1.00  0.00    -0.117 C  
HETATM   36  O   UNL     1      -9.898   4.742  63.006  1.00  0.00    -0.363 OA 
HETATM   37  H   UNL     1     -10.698   4.328  63.308  1.00  0.00     0.000 HD 
ENDBRANCH  32  35
ENDBRANCH  31  32
ENDBRANCH  29  31
ENDBRANCH  26  29
ENDBRANCH  11  26
ENDBRANCH   2   5
BRANCH   4  38
HETATM   38  C   UNL     1      -9.341  13.986  65.989  1.00  0.00    -0.055 C  
HETATM   39  O   UNL     1      -9.389  14.344  67.357  1.00  0.00    -0.189 OA 
HETATM   40  H   UNL     1      -8.519  14.499  67.709  1.00  0.00     0.000 HD 
ENDBRANCH   4  38
TORSDOF 12
ENDMDL
MODEL       97
REMARK 921   NORMALIZED FREE ENERGY PREDICTED BY IDOCK:   -3.93 KCAL/MOL
REMARK 922        TOTAL FREE ENERGY PREDICTED BY IDOCK:   -7.72 KCAL/MOL
REMARK 923 INTER-LIGAND FREE ENERGY PREDICTED BY IDOCK:   -6.96 KCAL/MOL
REMARK 924 INTRA-LIGAND FREE ENERGY PREDICTED BY IDOCK:   -0.76 KCAL/MOL
REMARK 927      BINDING AFFINITY PREDICTED BY RF-SCORE:    0.00 PKD
ROOT
HETATM    1  C   UNL     1      -6.129  11.037  66.110  1.00  0.00    -0.119 C  
HETATM    2  N   UNL     1      -7.284  10.204  65.789  1.00  0.00    -0.121 N  
HETATM    3  O   UNL     1      -6.778  10.114  63.547  1.00  0.00    -0.133 OA 
HETATM    4  C   UNL     1      -7.532   9.817  64.469  1.00  0.00    -0.135 C  
ENDROOT
BRANCH   2   5
HETATM    5  C   UNL     1      -8.103   9.812  66.895  1.00  0.00    -0.113 A  
HETATM    6  I   UNL     1      -9.807  12.188  65.878  1.00  0.00    -0.205 I  
HETATM    7  C   UNL     1      -7.798   8.628  67.614  1.00  0.00    -0.103 A  
HETATM    8  C   UNL     1      -8.562   8.269  68.743  1.00  0.00    -0.133 A  
HETATM    9  C   UNL     1      -9.215  10.610  67.268  1.00  0.00    -0.143 A  
HETATM   10  I   UNL     1      -6.168   7.391  66.896  1.00  0.00    -0.051 I  
HETATM   11  C   UNL     1      -9.955  10.316  68.441  1.00  0.00    -0.173 A  
HETATM   12  I   UNL     1     -10.359   8.915  71.208  1.00  0.00    -0.413 I  
HETATM   13  C   UNL     1      -9.577   9.168  69.195  1.00  0.00    -0.161 A  
BRANCH   8  14
HETATM   14  C   UNL     1      -8.453   6.911  69.364  1.00  0.00    -0.133 C  
HETATM   15  H   UNL     1      -7.321   5.819  70.543  1.00  0.00     0.000 HD 
HETATM   16  O   UNL     1      -7.390   6.681  70.149  1.00  0.00    -0.081 OA 
BRANCH  14  17
HETATM   17  N   UNL     1      -9.330   6.004  69.146  1.00  0.00    -0.125 NA 
HETATM   18  H   UNL     1     -10.284   6.104  69.492  1.00  0.00     0.000 HD 
BRANCH  17  19
HETATM   19  C   UNL     1      -8.927   4.812  68.383  1.00  0.00    -0.111 C  
BRANCH  19  20
HETATM   20  C   UNL     1      -9.885   4.616  67.202  1.00  0.00    -0.195 C  
HETATM   21  H   UNL     1     -11.390   5.597  66.393  1.00  0.00     0.000 HD 
HETATM   22  O   UNL     1     -10.796   5.718  67.125  1.00  0.00    -0.280 OA 
BRANCH  20  23
HETATM   23  C   UNL     1      -9.113   4.462  65.881  1.00  0.00    -0.133 C  
HETATM   24  O   UNL     1      -9.658   5.287  64.852  1.00  0.00    -0.360 OA 
HETATM   25  H   UNL     1      -9.181   5.192  64.036  1.00  0.00     0.000 HD 
ENDBRANCH  20  23
ENDBRANCH  19  20
ENDBRANCH  17  19
ENDBRANCH  14  17
ENDBRANCH   8  14
BRANCH  11  26
HETATM   26  C   UNL     1     -11.096  11.208  68.839  1.00  0.00    -0.237 C  
HETATM   27  O   UNL     1     -12.283  10.952  68.251  1.00  0.00    -0.804 OA 
HETATM   28  H   UNL     1     -13.006  11.516  68.502  1.00  0.00     0.000 HD 
BRANCH  26  29
HETATM   29  N   UNL     1     -10.961  12.201  69.637  1.00  0.00    -0.466 NA 
HETATM   30  H   UNL     1     -10.207  12.215  70.323  1.00  0.00     0.000 HD 
BRANCH  29  31
HETATM   31  C   UNL     1     -11.909  13.323  69.548  1.00  0.00    -0.327 C  
BRANCH  31  32
HETATM   32  C   UNL     1     -11.367  14.486  68.684  1.00  0.00    -0.276 C  
HETATM   33  O   UNL     1     -12.384  15.444  68.355  1.00  0.00    -0.513 OA 
HETATM   34  H   UNL     1     -12.052  16.158  67.824  1.00  0.00     0.000 HD 
BRANCH  32  35
HETATM   35  C   UNL     1     -10.243  15.225  69.431  1.00  0.00    -0.256 C  
HETATM   36  O   UNL     1      -9.852  16.430  68.772  1.00  0.00    -0.229 OA 
HETATM   37  H   UNL     1      -9.158  16.886  69.233  1.00  0.00     0.000 HD 
ENDBRANCH  32  35
ENDBRANCH  31  32
ENDBRANCH  29  31
ENDBRANCH  26  29
ENDBRANCH  11  26
ENDBRANCH   2   5
BRANCH   4  38
HETATM   38  C   UNL     1      -8.814   9.016  64.178  1.00  0.00    -0.029 C  
HETATM   39  O   UNL     1      -8.586   7.999  63.222  1.00  0.00    -0.403 OA 
HETATM   40  H   UNL     1      -9.378   7.504  63.043  1.00  0.00     0.000 HD 
ENDBRANCH   4  38
TORSDOF 12
ENDMDL
MODEL       98
REMARK 921   NORMALIZED FREE ENERGY PREDICTED BY IDOCK:   -3.92 KCAL/MOL
REMARK 922        TOTAL FREE ENERGY PREDICTED BY IDOCK:   -7.70 KCAL/MOL
REMARK 923 INTER-LIGAND FREE ENERGY PREDICTED BY IDOCK:   -7.77 KCAL/MOL
REMARK 924 INTRA-LIGAND FREE ENERGY PREDICTED BY IDOCK:    0.07 KCAL/MOL
REMARK 927      BINDING AFFINITY PREDICTED BY RF-SCORE:    0.00 PKD
ROOT
HETATM    1  C   UNL     1     -10.193  13.304  65.579  1.00  0.00    -0.290 C  
HETATM    2  N   UNL     1      -9.516  13.169  66.866  1.00  0.00    -0.237 N  
HETATM    3  O   UNL     1      -8.161  14.994  66.507  1.00  0.00    -0.103 OA 
HETATM    4  C   UNL     1      -8.494  14.053  67.223  1.00  0.00    -0.207 C  
ENDROOT
BRANCH   2   5
HETATM    5  C   UNL     1      -9.975  12.110  67.710  1.00  0.00    -0.198 A  
HETATM    6  I   UNL     1     -12.009  14.287  68.554  1.00  0.00    -0.123 I  
HETATM    7  C   UNL     1      -9.426  10.809  67.573  1.00  0.00    -0.154 A  
HETATM    8  C   UNL     1      -9.828   9.775  68.444  1.00  0.00    -0.168 A  
HETATM    9  C   UNL     1     -10.978  12.365  68.681  1.00  0.00    -0.247 A  
HETATM   10  I   UNL     1      -8.002  10.469  65.974  1.00  0.00    -0.121 I  
HETATM   11  C   UNL     1     -11.348  11.366  69.619  1.00  0.00    -0.347 A  
HETATM   12  I   UNL     1     -10.898   8.683  71.161  1.00  0.00    -0.408 I  
HETATM   13  C   UNL     1     -10.720  10.093  69.515  1.00  0.00    -0.249 A  
BRANCH   8  14
HETATM   14  C   UNL     1      -9.485   8.344  68.171  1.00  0.00    -0.138 C  
HETATM   15  H   UNL     1     -10.065   6.767  67.151  1.00  0.00     0.000 HD 
HETATM   16  O   UNL     1     -10.283   7.675  67.324  1.00  0.00    -0.216 OA 
BRANCH  14  17
HETATM   17  N   UNL     1      -8.483   7.777  68.731  1.00  0.00    -0.128 NA 
HETATM   18  H   UNL     1      -8.380   7.782  69.746  1.00  0.00     0.000 HD 
BRANCH  17  19
HETATM   19  C   UNL     1      -7.484   7.119  67.875  1.00  0.00    -0.099 C  
BRANCH  19  20
HETATM   20  C   UNL     1      -7.278   5.676  68.351  1.00  0.00    -0.075 C  
HETATM   21  H   UNL     1      -7.233   4.723  70.075  1.00  0.00     0.000 HD 
HETATM   22  O   UNL     1      -7.361   5.617  69.779  1.00  0.00    -0.066 OA 
BRANCH  20  23
HETATM   23  C   UNL     1      -8.308   4.729  67.712  1.00  0.00    -0.103 C  
HETATM   24  O   UNL     1      -9.580   4.825  68.351  1.00  0.00    -0.136 OA 
HETATM   25  H   UNL     1     -10.216   4.240  67.956  1.00  0.00     0.000 HD 
ENDBRANCH  20  23
ENDBRANCH  19  20
ENDBRANCH  17  19
ENDBRANCH  14  17
ENDBRANCH   8  14
BRANCH  11  26
HETATM   26  C   UNL     1     -12.375  11.681  70.668  1.00  0.00    -0.344 C  
HETATM   27  O   UNL     1     -13.337  10.754  70.854  1.00  0.00    -0.186 OA 
HETATM   28  H   UNL     1     -13.988  10.953  71.518  1.00  0.00     0.000 HD 
BRANCH  26  29
HETATM   29  N   UNL     1     -12.397  12.787  71.315  1.00  0.00    -0.290 NA 
HETATM   30  H   UNL     1     -11.604  13.427  71.272  1.00  0.00     0.000 HD 
BRANCH  29  31
HETATM   31  C   UNL     1     -13.582  13.121  72.121  1.00  0.00    -0.544 C  
BRANCH  31  32
HETATM   32  C   UNL     1     -13.534  14.567  72.667  1.00  0.00    -0.493 C  
HETATM   33  O   UNL     1     -12.474  14.760  73.616  1.00  0.00    -0.468 OA 
HETATM   34  H   UNL     1     -12.445  15.648  73.952  1.00  0.00     0.000 HD 
BRANCH  32  35
HETATM   35  C   UNL     1     -13.325  15.565  71.514  1.00  0.00    -0.509 C  
HETATM   36  O   UNL     1     -12.229  16.448  71.751  1.00  0.00    -0.605 OA 
HETATM   37  H   UNL     1     -12.099  17.064  71.040  1.00  0.00     0.000 HD 
ENDBRANCH  32  35
ENDBRANCH  31  32
ENDBRANCH  29  31
ENDBRANCH  26  29
ENDBRANCH  11  26
ENDBRANCH   2   5
BRANCH   4  38
HETATM   38  C   UNL     1      -7.754  13.806  68.551  1.00  0.00    -0.138 C  
HETATM   39  O   UNL     1      -8.226  14.660  69.576  1.00  0.00    -0.380 OA 
HETATM   40  H   UNL     1      -7.769  14.507  70.395  1.00  0.00     0.000 HD 
ENDBRANCH   4  38
TORSDOF 12
ENDMDL
MODEL       99
REMARK 921   NORMALIZED FREE ENERGY PREDICTED BY IDOCK:   -3.91 KCAL/MOL
REMARK 922        TOTAL FREE ENERGY PREDICTED BY IDOCK:   -7.69 KCAL/MOL
REMARK 923 INTER-LIGAND FREE ENERGY PREDICTED BY IDOCK:   -7.05 KCAL/MOL
REMARK 924 INTRA-LIGAND FREE ENERGY PREDICTED BY IDOCK:   -0.64 KCAL/MOL
REMARK 927      BINDING AFFINITY PREDICTED BY RF-SCORE:    0.00 PKD
ROOT
HETATM    1  C   UNL     1      -7.619   4.461  68.607  1.00  0.00    -0.063 C  
HETATM    2  N   UNL     1      -8.534   4.949  67.580  1.00  0.00    -0.105 N  
HETATM    3  O   UNL     1      -9.419   2.865  67.173  1.00  0.00    -0.161 OA 
HETATM    4  C   UNL     1      -9.377   4.062  66.904  1.00  0.00    -0.182 C  
ENDROOT
BRANCH   2   5
HETATM    5  C   UNL     1      -8.516   6.359  67.340  1.00  0.00    -0.108 A  
HETATM    6  I   UNL     1      -6.551   5.486  65.112  1.00  0.00    -0.041 I  
HETATM    7  C   UNL     1      -9.407   7.207  68.045  1.00  0.00    -0.129 A  
HETATM    8  C   UNL     1      -9.351   8.604  67.861  1.00  0.00    -0.155 A  
HETATM    9  C   UNL     1      -7.604   6.903  66.398  1.00  0.00    -0.089 A  
HETATM   10  I   UNL     1     -10.863   6.285  69.361  1.00  0.00    -0.452 I  
HETATM   11  C   UNL     1      -7.473   8.307  66.246  1.00  0.00    -0.079 A  
HETATM   12  I   UNL     1      -7.875  11.265  67.180  1.00  0.00    -0.169 I  
HETATM   13  C   UNL     1      -8.322   9.142  67.028  1.00  0.00    -0.120 A  
BRANCH   8  14
HETATM   14  C   UNL     1     -10.433   9.505  68.368  1.00  0.00    -0.224 C  
HETATM   15  H   UNL     1     -11.983  10.566  67.785  1.00  0.00     0.000 HD 
HETATM   16  O   UNL     1     -11.296   9.994  67.463  1.00  0.00    -0.212 OA 
BRANCH  14  17
HETATM   17  N   UNL     1     -10.526   9.808  69.608  1.00  0.00    -0.225 NA 
HETATM   18  H   UNL     1      -9.988   9.302  70.311  1.00  0.00     0.000 HD 
BRANCH  17  19
HETATM   19  C   UNL     1     -11.427  10.905  69.994  1.00  0.00    -0.329 C  
BRANCH  19  20
HETATM   20  C   UNL     1     -12.282  10.463  71.188  1.00  0.00    -0.394 C  
HETATM   21  H   UNL     1     -14.153   9.933  71.500  1.00  0.00     0.000 HD 
HETATM   22  O   UNL     1     -13.624  10.206  70.760  1.00  0.00    -0.233 OA 
BRANCH  20  23
HETATM   23  C   UNL     1     -11.685   9.218  71.867  1.00  0.00    -0.350 C  
HETATM   24  O   UNL     1     -12.685   8.453  72.538  1.00  0.00    -0.533 OA 
HETATM   25  H   UNL     1     -12.317   7.684  72.957  1.00  0.00     0.000 HD 
ENDBRANCH  20  23
ENDBRANCH  19  20
ENDBRANCH  17  19
ENDBRANCH  14  17
ENDBRANCH   8  14
BRANCH  11  26
HETATM   26  C   UNL     1      -6.464   8.856  65.278  1.00  0.00    -0.067 C  
HETATM   27  O   UNL     1      -5.320   9.328  65.816  1.00  0.00    -0.039 OA 
HETATM   28  H   UNL     1      -4.682   9.676  65.204  1.00  0.00     0.000 HD 
BRANCH  26  29
HETATM   29  N   UNL     1      -6.679   8.941  64.018  1.00  0.00    -0.086 NA 
HETATM   30  H   UNL     1      -6.444   8.166  63.399  1.00  0.00     0.000 HD 
BRANCH  29  31
HETATM   31  C   UNL     1      -7.272  10.174  63.476  1.00  0.00    -0.120 C  
BRANCH  31  32
HETATM   32  C   UNL     1      -8.685   9.941  62.891  1.00  0.00    -0.213 C  
HETATM   33  O   UNL     1      -9.021   8.547  62.811  1.00  0.00    -0.413 OA 
HETATM   34  H   UNL     1      -9.889   8.404  62.451  1.00  0.00     0.000 HD 
BRANCH  32  35
HETATM   35  C   UNL     1      -9.744  10.634  63.766  1.00  0.00    -0.327 C  
HETATM   36  O   UNL     1     -10.735  11.308  62.990  1.00  0.00    -0.733 OA 
HETATM   37  H   UNL     1     -11.388  11.736  63.530  1.00  0.00     0.000 HD 
ENDBRANCH  32  35
ENDBRANCH  31  32
ENDBRANCH  29  31
ENDBRANCH  26  29
ENDBRANCH  11  26
ENDBRANCH   2   5
BRANCH   4  38
HETATM   38  C   UNL     1     -10.254   4.619  65.768  1.00  0.00    -0.258 C  
HETATM   39  O   UNL     1     -10.757   3.586  64.944  1.00  0.00    -0.445 OA 
HETATM   40  H   UNL     1     -11.298   3.930  64.242  1.00  0.00     0.000 HD 
ENDBRANCH   4  38
TORSDOF 12
ENDMDL
MODEL      100
REMARK 921   NORMALIZED FREE ENERGY PREDICTED BY IDOCK:   -3.90 KCAL/MOL
REMARK 922        TOTAL FREE ENERGY PREDICTED BY IDOCK:   -7.67 KCAL/MOL
REMARK 923 INTER-LIGAND FREE ENERGY PREDICTED BY IDOCK:   -7.47 KCAL/MOL
REMARK 924 INTRA-LIGAND FREE ENERGY PREDICTED BY IDOCK:   -0.20 KCAL/MOL
REMARK 927      BINDING AFFINITY PREDICTED BY RF-SCORE:    0.00 PKD
ROOT
HETATM    1  C   UNL     1      -9.662  12.821  65.520  1.00  0.00    -0.076 C  
HETATM    2  N   UNL     1      -9.311  13.253  66.870  1.00  0.00    -0.238 N  
HETATM    3  O   UNL     1      -8.485  15.280  66.162  1.00  0.00    -0.091 OA 
HETATM    4  C   UNL     1      -8.702  14.493  67.080  1.00  0.00    -0.234 C  
ENDROOT
BRANCH   2   5
HETATM    5  C   UNL     1      -9.642  12.347  67.926  1.00  0.00    -0.205 A  
HETATM    6  I   UNL     1      -6.742  11.398  67.398  1.00  0.00    -0.128 I  
HETATM    7  C   UNL     1     -10.869  12.494  68.623  1.00  0.00    -0.248 A  
HETATM    8  C   UNL     1     -11.231  11.567  69.622  1.00  0.00    -0.276 A  
HETATM    9  C   UNL     1      -8.743  11.305  68.271  1.00  0.00    -0.158 A  
HETATM   10  I   UNL     1     -12.122  14.194  68.131  1.00  0.00     0.132 I  
HETATM   11  C   UNL     1      -9.112  10.315  69.217  1.00  0.00    -0.206 A  
HETATM   12  I   UNL     1     -11.191   8.744  70.947  1.00  0.00    -0.362 I  
HETATM   13  C   UNL     1     -10.385  10.436  69.843  1.00  0.00    -0.182 A  
BRANCH   8  14
HETATM   14  C   UNL     1     -12.369  11.829  70.558  1.00  0.00    -0.299 C  
HETATM   15  H   UNL     1     -14.090  11.100  71.166  1.00  0.00     0.000 HD 
HETATM   16  O   UNL     1     -13.368  10.933  70.572  1.00  0.00    -0.010 OA 
BRANCH  14  17
HETATM   17  N   UNL     1     -12.395  12.868  71.306  1.00  0.00    -0.304 NA 
HETATM   18  H   UNL     1     -11.641  13.554  71.273  1.00  0.00     0.000 HD 
BRANCH  17  19
HETATM   19  C   UNL     1     -13.539  13.047  72.213  1.00  0.00    -0.547 C  
BRANCH  19  20
HETATM   20  C   UNL     1     -13.625  14.519  72.637  1.00  0.00    -0.478 C  
HETATM   21  H   UNL     1     -12.565  15.764  73.736  1.00  0.00     0.000 HD 
HETATM   22  O   UNL     1     -12.512  14.853  73.473  1.00  0.00    -0.456 OA 
BRANCH  20  23
HETATM   23  C   UNL     1     -13.675  15.447  71.411  1.00  0.00    -0.504 C  
HETATM   24  O   UNL     1     -12.458  16.176  71.252  1.00  0.00    -0.573 OA 
HETATM   25  H   UNL     1     -12.489  16.749  70.495  1.00  0.00     0.000 HD 
ENDBRANCH  20  23
ENDBRANCH  19  20
ENDBRANCH  17  19
ENDBRANCH  14  17
ENDBRANCH   8  14
BRANCH  11  26
HETATM   26  C   UNL     1      -8.160   9.194  69.525  1.00  0.00    -0.107 C  
HETATM   27  O   UNL     1      -7.445   9.318  70.662  1.00  0.00    -0.108 OA 
HETATM   28  H   UNL     1      -6.842   8.609  70.857  1.00  0.00     0.000 HD 
BRANCH  26  29
HETATM   29  N   UNL     1      -7.972   8.201  68.737  1.00  0.00    -0.113 NA 
HETATM   30  H   UNL     1      -7.053   7.765  68.666  1.00  0.00     0.000 HD 
BRANCH  29  31
HETATM   31  C   UNL     1      -9.100   7.699  67.938  1.00  0.00    -0.134 C  
BRANCH  31  32
HETATM   32  C   UNL     1      -9.372   6.196  68.182  1.00  0.00    -0.115 C  
HETATM   33  O   UNL     1      -8.883   5.751  69.456  1.00  0.00    -0.116 OA 
HETATM   34  H   UNL     1      -9.050   4.827  69.606  1.00  0.00     0.000 HD 
BRANCH  32  35
HETATM   35  C   UNL     1     -10.884   5.913  68.130  1.00  0.00    -0.236 C  
HETATM   36  O   UNL     1     -11.567   6.771  67.215  1.00  0.00    -0.726 OA 
HETATM   37  H   UNL     1     -12.500   6.597  67.183  1.00  0.00     0.000 HD 
ENDBRANCH  32  35
ENDBRANCH  31  32
ENDBRANCH  29  31
ENDBRANCH  26  29
ENDBRANCH  11  26
ENDBRANCH   2   5
BRANCH   4  38
HETATM   38  C   UNL     1      -8.270  14.855  68.513  1.00  0.00    -0.153 C  
HETATM   39  O   UNL     1      -8.898  16.041  68.962  1.00  0.00    -0.219 OA 
HETATM   40  H   UNL     1      -8.631  16.264  69.846  1.00  0.00     0.000 HD 
ENDBRANCH   4  38
TORSDOF 12
ENDMDL
MODEL      101
REMARK 921   NORMALIZED FREE ENERGY PREDICTED BY IDOCK:   -3.87 KCAL/MOL
REMARK 922        TOTAL FREE ENERGY PREDICTED BY IDOCK:   -7.63 KCAL/MOL
REMARK 923 INTER-LIGAND FREE ENERGY PREDICTED BY IDOCK:   -6.32 KCAL/MOL
REMARK 924 INTRA-LIGAND FREE ENERGY PREDICTED BY IDOCK:   -1.31 KCAL/MOL
REMARK 927      BINDING AFFINITY PREDICTED BY RF-SCORE:    0.00 PKD
ROOT
HETATM    1  C   UNL     1     -11.161  14.257  69.577  1.00  0.00    -0.204 C  
HETATM    2  N   UNL     1     -10.988  13.351  68.445  1.00  0.00    -0.256 N  
HETATM    3  O   UNL     1     -12.732  14.269  67.258  1.00  0.00     0.094 OA 
HETATM    4  C   UNL     1     -11.845  13.424  67.344  1.00  0.00    -0.375 C  
ENDROOT
BRANCH   2   5
HETATM    5  C   UNL     1      -9.901  12.427  68.541  1.00  0.00    -0.151 A  
HETATM    6  I   UNL     1     -12.102  10.686  69.848  1.00  0.00    -0.238 I  
HETATM    7  C   UNL     1      -8.662  12.728  67.919  1.00  0.00    -0.185 A  
HETATM    8  C   UNL     1      -7.566  11.851  68.062  1.00  0.00    -0.122 A  
HETATM    9  C   UNL     1     -10.066  11.213  69.258  1.00  0.00    -0.041 A  
HETATM   10  I   UNL     1      -8.533  14.534  66.726  1.00  0.00     0.307 I  
HETATM   11  C   UNL     1      -8.963  10.350  69.482  1.00  0.00    -0.127 A  
HETATM   12  I   UNL     1      -5.907   9.695  69.586  1.00  0.00    -0.036 I  
HETATM   13  C   UNL     1      -7.708  10.716  68.918  1.00  0.00    -0.121 A  
BRANCH   8  14
HETATM   14  C   UNL     1      -6.339  11.986  67.216  1.00  0.00    -0.151 C  
HETATM   15  H   UNL     1      -4.522  12.737  67.208  1.00  0.00     0.000 HD 
HETATM   16  O   UNL     1      -5.301  12.651  67.746  1.00  0.00    -0.091 OA 
BRANCH  14  17
HETATM   17  N   UNL     1      -6.285  11.499  66.033  1.00  0.00    -0.445 NA 
HETATM   18  H   UNL     1      -5.988  12.074  65.244  1.00  0.00     0.000 HD 
BRANCH  17  19
HETATM   19  C   UNL     1      -6.663  10.091  65.839  1.00  0.00    -0.103 C  
BRANCH  19  20
HETATM   20  C   UNL     1      -7.924  10.018  64.970  1.00  0.00    -0.143 C  
HETATM   21  H   UNL     1      -8.419   9.287  63.209  1.00  0.00     0.000 HD 
HETATM   22  O   UNL     1      -7.637   9.332  63.747  1.00  0.00    -0.106 OA 
BRANCH  20  23
HETATM   23  C   UNL     1      -9.075   9.325  65.720  1.00  0.00    -0.209 C  
HETATM   24  O   UNL     1      -9.118   7.926  65.441  1.00  0.00    -0.394 OA 
HETATM   25  H   UNL     1      -9.829   7.498  65.904  1.00  0.00     0.000 HD 
ENDBRANCH  20  23
ENDBRANCH  19  20
ENDBRANCH  17  19
ENDBRANCH  14  17
ENDBRANCH   8  14
BRANCH  11  26
HETATM   26  C   UNL     1      -9.157   9.097  70.288  1.00  0.00    -0.218 C  
HETATM   27  O   UNL     1      -9.037   9.227  71.625  1.00  0.00    -0.315 OA 
HETATM   28  H   UNL     1      -9.159   8.435  72.136  1.00  0.00     0.000 HD 
BRANCH  26  29
HETATM   29  N   UNL     1      -9.360   7.949  69.756  1.00  0.00    -0.153 NA 
HETATM   30  H   UNL     1      -9.145   7.789  68.772  1.00  0.00     0.000 HD 
BRANCH  29  31
HETATM   31  C   UNL     1      -9.906   6.864  70.586  1.00  0.00    -0.182 C  
BRANCH  31  32
HETATM   32  C   UNL     1     -11.106   6.155  69.915  1.00  0.00    -0.410 C  
HETATM   33  O   UNL     1     -12.369   6.645  70.392  1.00  0.00    -0.529 OA 
HETATM   34  H   UNL     1     -13.106   6.210  69.980  1.00  0.00     0.000 HD 
BRANCH  32  35
HETATM   35  C   UNL     1     -11.063   6.365  68.391  1.00  0.00    -0.285 C  
HETATM   36  O   UNL     1      -9.848   5.890  67.810  1.00  0.00    -0.114 OA 
HETATM   37  H   UNL     1      -9.821   6.019  66.870  1.00  0.00     0.000 HD 
ENDBRANCH  32  35
ENDBRANCH  31  32
ENDBRANCH  29  31
ENDBRANCH  26  29
ENDBRANCH  11  26
ENDBRANCH   2   5
BRANCH   4  38
HETATM   38  C   UNL     1     -11.673  12.383  66.222  1.00  0.00    -0.395 C  
HETATM   39  O   UNL     1     -12.751  12.422  65.307  1.00  0.00    -0.617 OA 
HETATM   40  H   UNL     1     -12.644  11.779  64.614  1.00  0.00     0.000 HD 
ENDBRANCH   4  38
TORSDOF 12
ENDMDL
MODEL      102
REMARK 921   NORMALIZED FREE ENERGY PREDICTED BY IDOCK:   -3.84 KCAL/MOL
REMARK 922        TOTAL FREE ENERGY PREDICTED BY IDOCK:   -7.57 KCAL/MOL
REMARK 923 INTER-LIGAND FREE ENERGY PREDICTED BY IDOCK:   -6.85 KCAL/MOL
REMARK 924 INTRA-LIGAND FREE ENERGY PREDICTED BY IDOCK:   -0.72 KCAL/MOL
REMARK 927      BINDING AFFINITY PREDICTED BY RF-SCORE:    0.00 PKD
ROOT
HETATM    1  C   UNL     1      -6.699   4.989  65.208  1.00  0.00    -0.048 C  
HETATM    2  N   UNL     1      -8.064   5.154  65.699  1.00  0.00    -0.112 N  
HETATM    3  O   UNL     1      -8.905   3.496  64.344  1.00  0.00    -0.106 OA 
HETATM    4  C   UNL     1      -9.101   4.372  65.181  1.00  0.00    -0.148 C  
ENDROOT
BRANCH   2   5
HETATM    5  C   UNL     1      -8.249   6.130  66.728  1.00  0.00    -0.109 A  
HETATM    6  I   UNL     1      -7.621   3.685  68.520  1.00  0.00    -0.052 I  
HETATM    7  C   UNL     1      -8.420   7.495  66.382  1.00  0.00    -0.131 A  
HETATM    8  C   UNL     1      -8.666   8.454  67.386  1.00  0.00    -0.136 A  
HETATM    9  C   UNL     1      -8.261   5.729  68.089  1.00  0.00    -0.104 A  
HETATM   10  I   UNL     1      -8.249   8.046  64.292  1.00  0.00     0.154 I  
HETATM   11  C   UNL     1      -8.580   6.657  69.113  1.00  0.00    -0.130 A  
HETATM   12  I   UNL     1      -9.751   9.358  70.166  1.00  0.00    -0.318 I  
HETATM   13  C   UNL     1      -8.831   8.006  68.733  1.00  0.00    -0.138 A  
BRANCH   8  14
HETATM   14  C   UNL     1      -8.584   9.922  67.105  1.00  0.00    -0.125 C  
HETATM   15  H   UNL     1      -7.396  11.479  67.267  1.00  0.00     0.000 HD 
HETATM   16  O   UNL     1      -7.447  10.548  67.446  1.00  0.00    -0.092 OA 
BRANCH  14  17
HETATM   17  N   UNL     1      -9.561  10.557  66.574  1.00  0.00    -0.170 NA 
HETATM   18  H   UNL     1     -10.428  10.076  66.335  1.00  0.00     0.000 HD 
BRANCH  17  19
HETATM   19  C   UNL     1      -9.401  11.997  66.316  1.00  0.00    -0.223 C  
BRANCH  19  20
HETATM   20  C   UNL     1     -10.658  12.530  65.617  1.00  0.00    -0.269 C  
HETATM   21  H   UNL     1     -11.772  14.152  65.701  1.00  0.00     0.000 HD 
HETATM   22  O   UNL     1     -10.993  13.822  66.134  1.00  0.00    -0.291 OA 
BRANCH  20  23
HETATM   23  C   UNL     1     -10.461  12.593  64.093  1.00  0.00    -0.413 C  
HETATM   24  O   UNL     1      -9.299  11.874  63.682  1.00  0.00    -0.513 OA 
HETATM   25  H   UNL     1      -9.177  11.913  62.740  1.00  0.00     0.000 HD 
ENDBRANCH  20  23
ENDBRANCH  19  20
ENDBRANCH  17  19
ENDBRANCH  14  17
ENDBRANCH   8  14
BRANCH  11  26
HETATM   26  C   UNL     1      -8.635   6.192  70.540  1.00  0.00    -0.138 C  
HETATM   27  O   UNL     1      -7.537   6.433  71.287  1.00  0.00    -0.091 OA 
HETATM   28  H   UNL     1      -7.572   6.139  72.190  1.00  0.00     0.000 HD 
BRANCH  26  29
HETATM   29  N   UNL     1      -9.628   5.544  71.026  1.00  0.00    -0.166 NA 
HETATM   30  H   UNL     1      -9.474   4.752  71.650  1.00  0.00     0.000 HD 
BRANCH  29  31
HETATM   31  C   UNL     1     -10.995   5.957  70.671  1.00  0.00    -0.287 C  
BRANCH  31  32
HETATM   32  C   UNL     1     -11.846   6.309  71.914  1.00  0.00    -0.305 C  
HETATM   33  O   UNL     1     -11.060   6.878  72.973  1.00  0.00    -0.360 OA 
HETATM   34  H   UNL     1     -11.582   7.093  73.736  1.00  0.00     0.000 HD 
BRANCH  32  35
HETATM   35  C   UNL     1     -12.941   7.323  71.539  1.00  0.00    -0.389 C  
HETATM   36  O   UNL     1     -14.249   6.861  71.877  1.00  0.00    -0.497 OA 
HETATM   37  H   UNL     1     -14.925   7.487  71.646  1.00  0.00     0.000 HD 
ENDBRANCH  32  35
ENDBRANCH  31  32
ENDBRANCH  29  31
ENDBRANCH  26  29
ENDBRANCH  11  26
ENDBRANCH   2   5
BRANCH   4  38
HETATM   38  C   UNL     1     -10.533   4.653  65.670  1.00  0.00    -0.227 C  
HETATM   39  O   UNL     1     -11.496   4.289  64.700  1.00  0.00    -0.921 OA 
HETATM   40  H   UNL     1     -12.380   4.462  65.002  1.00  0.00     0.000 HD 
ENDBRANCH   4  38
TORSDOF 12
ENDMDL
MODEL      103
REMARK 921   NORMALIZED FREE ENERGY PREDICTED BY IDOCK:   -3.81 KCAL/MOL
REMARK 922        TOTAL FREE ENERGY PREDICTED BY IDOCK:   -7.53 KCAL/MOL
REMARK 923 INTER-LIGAND FREE ENERGY PREDICTED BY IDOCK:   -7.16 KCAL/MOL
REMARK 924 INTRA-LIGAND FREE ENERGY PREDICTED BY IDOCK:   -0.36 KCAL/MOL
REMARK 927      BINDING AFFINITY PREDICTED BY RF-SCORE:    0.00 PKD
ROOT
HETATM    1  C   UNL     1     -10.065  16.573  65.439  1.00  0.00    -0.066 C  
HETATM    2  N   UNL     1      -9.984  16.120  66.825  1.00  0.00    -0.249 N  
HETATM    3  O   UNL     1     -10.913  18.050  67.663  1.00  0.00    -0.323 OA 
HETATM    4  C   UNL     1     -10.413  16.947  67.866  1.00  0.00    -0.344 C  
ENDROOT
BRANCH   2   5
HETATM    5  C   UNL     1      -9.466  14.802  67.025  1.00  0.00    -0.231 A  
HETATM    6  I   UNL     1     -12.363  14.044  66.239  1.00  0.00    -0.147 I  
HETATM    7  C   UNL     1      -8.080  14.618  67.267  1.00  0.00    -0.206 A  
HETATM    8  C   UNL     1      -7.573  13.328  67.529  1.00  0.00    -0.169 A  
HETATM    9  C   UNL     1     -10.340  13.685  66.982  1.00  0.00    -0.260 A  
HETATM   10  I   UNL     1      -6.791  16.358  67.178  1.00  0.00    -0.172 I  
HETATM   11  C   UNL     1      -9.873  12.388  67.315  1.00  0.00    -0.207 A  
HETATM   12  I   UNL     1      -7.813  10.402  68.577  1.00  0.00    -0.129 I  
HETATM   13  C   UNL     1      -8.494  12.241  67.637  1.00  0.00    -0.166 A  
BRANCH   8  14
HETATM   14  C   UNL     1      -6.102  13.049  67.521  1.00  0.00    -0.125 C  
HETATM   15  H   UNL     1      -4.713  12.020  66.585  1.00  0.00     0.000 HD 
HETATM   16  O   UNL     1      -5.646  12.197  66.590  1.00  0.00    -0.311 OA 
BRANCH  14  17
HETATM   17  N   UNL     1      -5.314  13.589  68.373  1.00  0.00    -0.088 NA 
HETATM   18  H   UNL     1      -4.807  14.445  68.147  1.00  0.00     0.000 HD 
BRANCH  17  19
HETATM   19  C   UNL     1      -5.157  12.944  69.686  1.00  0.00    -0.073 C  
BRANCH  19  20
HETATM   20  C   UNL     1      -5.296  14.000  70.790  1.00  0.00    -0.138 C  
HETATM   21  H   UNL     1      -6.619  15.360  71.321  1.00  0.00     0.000 HD 
HETATM   22  O   UNL     1      -6.533  14.706  70.637  1.00  0.00    -0.148 OA 
BRANCH  20  23
HETATM   23  C   UNL     1      -5.211  13.358  72.185  1.00  0.00    -0.098 C  
HETATM   24  O   UNL     1      -5.292  11.935  72.117  1.00  0.00    -0.338 OA 
HETATM   25  H   UNL     1      -5.239  11.539  72.979  1.00  0.00     0.000 HD 
ENDBRANCH  20  23
ENDBRANCH  19  20
ENDBRANCH  17  19
ENDBRANCH  14  17
ENDBRANCH   8  14
BRANCH  11  26
HETATM   26  C   UNL     1     -10.833  11.232  67.310  1.00  0.00    -0.267 C  
HETATM   27  O   UNL     1     -10.739  10.386  66.263  1.00  0.00    -0.151 OA 
HETATM   28  H   UNL     1     -11.346   9.655  66.260  1.00  0.00     0.000 HD 
BRANCH  26  29
HETATM   29  N   UNL     1     -11.740  11.074  68.201  1.00  0.00    -0.593 NA 
HETATM   30  H   UNL     1     -12.717  10.963  67.931  1.00  0.00     0.000 HD 
BRANCH  29  31
HETATM   31  C   UNL     1     -11.352  11.055  69.620  1.00  0.00    -0.292 C  
BRANCH  31  32
HETATM   32  C   UNL     1     -11.836   9.778  70.346  1.00  0.00    -0.193 C  
HETATM   33  O   UNL     1     -11.043   9.472  71.504  1.00  0.00    -0.367 OA 
HETATM   34  H   UNL     1     -11.339   8.687  71.949  1.00  0.00     0.000 HD 
BRANCH  32  35
HETATM   35  C   UNL     1     -13.295   9.945  70.803  1.00  0.00    -0.123 C  
HETATM   36  O   UNL     1     -13.403  10.172  72.208  1.00  0.00    -0.570 OA 
HETATM   37  H   UNL     1     -14.305  10.275  72.490  1.00  0.00     0.000 HD 
ENDBRANCH  32  35
ENDBRANCH  31  32
ENDBRANCH  29  31
ENDBRANCH  26  29
ENDBRANCH  11  26
ENDBRANCH   2   5
BRANCH   4  38
HETATM   38  C   UNL     1     -10.218  16.453  69.311  1.00  0.00    -0.278 C  
HETATM   39  O   UNL     1     -11.455  16.298  69.980  1.00  0.00    -0.343 OA 
HETATM   40  H   UNL     1     -11.334  15.993  70.872  1.00  0.00     0.000 HD 
ENDBRANCH   4  38
TORSDOF 12
ENDMDL
MODEL      104
REMARK 921   NORMALIZED FREE ENERGY PREDICTED BY IDOCK:   -3.80 KCAL/MOL
REMARK 922        TOTAL FREE ENERGY PREDICTED BY IDOCK:   -7.51 KCAL/MOL
REMARK 923 INTER-LIGAND FREE ENERGY PREDICTED BY IDOCK:   -6.41 KCAL/MOL
REMARK 924 INTRA-LIGAND FREE ENERGY PREDICTED BY IDOCK:   -1.10 KCAL/MOL
REMARK 927      BINDING AFFINITY PREDICTED BY RF-SCORE:    0.00 PKD
ROOT
HETATM    1  C   UNL     1      -9.517   7.984  72.770  1.00  0.00    -0.269 C  
HETATM    2  N   UNL     1     -10.470   7.334  71.876  1.00  0.00    -0.199 N  
HETATM    3  O   UNL     1     -12.172   8.793  72.393  1.00  0.00    -0.370 OA 
HETATM    4  C   UNL     1     -11.783   7.802  71.780  1.00  0.00    -0.284 C  
ENDROOT
BRANCH   2   5
HETATM    5  C   UNL     1      -9.968   6.228  71.119  1.00  0.00    -0.181 A  
HETATM    6  I   UNL     1      -9.138   8.514  69.203  1.00  0.00    -0.145 I  
HETATM    7  C   UNL     1      -9.984   4.925  71.679  1.00  0.00    -0.190 A  
HETATM    8  C   UNL     1      -9.550   3.822  70.915  1.00  0.00    -0.256 A  
HETATM    9  C   UNL     1      -9.458   6.441  69.812  1.00  0.00    -0.152 A  
HETATM   10  I   UNL     1     -10.648   4.705  73.731  1.00  0.00    -0.372 I  
HETATM   11  C   UNL     1      -9.085   5.344  68.994  1.00  0.00    -0.136 A  
HETATM   12  I   UNL     1      -9.068   2.311  68.230  1.00  0.00    -0.243 I  
HETATM   13  C   UNL     1      -9.189   4.036  69.549  1.00  0.00    -0.151 A  
BRANCH   8  14
HETATM   14  C   UNL     1      -9.295   2.486  71.542  1.00  0.00    -0.124 C  
HETATM   15  H   UNL     1     -10.182   0.810  72.058  1.00  0.00     0.000 HD 
HETATM   16  O   UNL     1     -10.344   1.657  71.660  1.00  0.00    -0.110 OA 
BRANCH  14  17
HETATM   17  N   UNL     1      -8.132   2.154  71.959  1.00  0.00    -0.052 NA 
HETATM   18  H   UNL     1      -7.323   2.191  71.339  1.00  0.00     0.000 HD 
BRANCH  17  19
HETATM   19  C   UNL     1      -7.989   1.715  73.356  1.00  0.00    -0.041 C  
BRANCH  19  20
HETATM   20  C   UNL     1      -6.709   2.316  73.949  1.00  0.00    -0.022 C  
HETATM   21  H   UNL     1      -4.820   2.489  73.416  1.00  0.00     0.000 HD 
HETATM   22  O   UNL     1      -5.613   2.117  73.049  1.00  0.00     0.000 OA 
BRANCH  20  23
HETATM   23  C   UNL     1      -6.889   3.813  74.255  1.00  0.00    -0.050 C  
HETATM   24  O   UNL     1      -6.789   4.609  73.075  1.00  0.00    -0.064 OA 
HETATM   25  H   UNL     1      -6.900   5.533  73.264  1.00  0.00     0.000 HD 
ENDBRANCH  20  23
ENDBRANCH  19  20
ENDBRANCH  17  19
ENDBRANCH  14  17
ENDBRANCH   8  14
BRANCH  11  26
HETATM   26  C   UNL     1      -8.596   5.596  67.597  1.00  0.00    -0.108 C  
HETATM   27  O   UNL     1      -7.259   5.561  67.419  1.00  0.00    -0.072 OA 
HETATM   28  H   UNL     1      -6.949   5.720  66.535  1.00  0.00     0.000 HD 
BRANCH  26  29
HETATM   29  N   UNL     1      -9.378   5.893  66.626  1.00  0.00    -0.141 NA 
HETATM   30  H   UNL     1     -10.100   6.604  66.743  1.00  0.00     0.000 HD 
BRANCH  29  31
HETATM   31  C   UNL     1      -9.220   5.196  65.341  1.00  0.00    -0.113 C  
BRANCH  31  32
HETATM   32  C   UNL     1     -10.252   4.059  65.156  1.00  0.00    -0.161 C  
HETATM   33  O   UNL     1     -11.585   4.556  64.958  1.00  0.00    -1.101 OA 
HETATM   34  H   UNL     1     -12.220   3.858  64.845  1.00  0.00     0.000 HD 
BRANCH  32  35
HETATM   35  C   UNL     1      -9.883   3.197  63.936  1.00  0.00    -0.155 C  
HETATM   36  O   UNL     1     -10.445   1.887  64.004  1.00  0.00    -0.343 OA 
HETATM   37  H   UNL     1     -10.216   1.355  63.251  1.00  0.00     0.000 HD 
ENDBRANCH  32  35
ENDBRANCH  31  32
ENDBRANCH  29  31
ENDBRANCH  26  29
ENDBRANCH  11  26
ENDBRANCH   2   5
BRANCH   4  38
HETATM   38  C   UNL     1     -12.768   7.020  70.891  1.00  0.00    -0.167 C  
HETATM   39  O   UNL     1     -14.036   7.646  70.844  1.00  0.00    -0.632 OA 
HETATM   40  H   UNL     1     -14.644   7.163  70.296  1.00  0.00     0.000 HD 
ENDBRANCH   4  38
TORSDOF 12
ENDMDL
MODEL      105
REMARK 921   NORMALIZED FREE ENERGY PREDICTED BY IDOCK:   -3.80 KCAL/MOL
REMARK 922        TOTAL FREE ENERGY PREDICTED BY IDOCK:   -7.50 KCAL/MOL
REMARK 923 INTER-LIGAND FREE ENERGY PREDICTED BY IDOCK:   -6.43 KCAL/MOL
REMARK 924 INTRA-LIGAND FREE ENERGY PREDICTED BY IDOCK:   -1.07 KCAL/MOL
REMARK 927      BINDING AFFINITY PREDICTED BY RF-SCORE:    0.00 PKD
ROOT
HETATM    1  C   UNL     1      -9.627   9.594  70.356  1.00  0.00    -0.234 C  
HETATM    2  N   UNL     1     -10.378   8.349  70.486  1.00  0.00    -0.196 N  
HETATM    3  O   UNL     1     -12.381   9.425  70.835  1.00  0.00    -0.274 OA 
HETATM    4  C   UNL     1     -11.750   8.375  70.751  1.00  0.00    -0.202 C  
ENDROOT
BRANCH   2   5
HETATM    5  C   UNL     1      -9.631   7.142  70.309  1.00  0.00    -0.169 A  
HETATM    6  I   UNL     1     -10.091   7.841  67.328  1.00  0.00    -0.385 I  
HETATM    7  C   UNL     1      -9.047   6.503  71.432  1.00  0.00    -0.148 A  
HETATM    8  C   UNL     1      -8.363   5.280  71.275  1.00  0.00    -0.123 A  
HETATM    9  C   UNL     1      -9.478   6.590  69.011  1.00  0.00    -0.130 A  
HETATM   10  I   UNL     1      -9.207   7.483  73.360  1.00  0.00    -0.345 I  
HETATM   11  C   UNL     1      -8.861   5.325  68.831  1.00  0.00    -0.102 A  
HETATM   12  I   UNL     1      -7.815   2.560  69.851  1.00  0.00    -0.059 I  
HETATM   13  C   UNL     1      -8.357   4.662  69.986  1.00  0.00    -0.067 A  
BRANCH   8  14
HETATM   14  C   UNL     1      -7.510   4.713  72.366  1.00  0.00    -0.084 C  
HETATM   15  H   UNL     1      -5.687   4.746  73.101  1.00  0.00     0.000 HD 
HETATM   16  O   UNL     1      -6.228   5.107  72.408  1.00  0.00    -0.028 OA 
BRANCH  14  17
HETATM   17  N   UNL     1      -7.979   3.878  73.216  1.00  0.00    -0.086 NA 
HETATM   18  H   UNL     1      -7.752   2.885  73.154  1.00  0.00     0.000 HD 
BRANCH  17  19
HETATM   19  C   UNL     1      -8.852   4.386  74.286  1.00  0.00    -0.101 C  
BRANCH  19  20
HETATM   20  C   UNL     1     -10.195   3.647  74.238  1.00  0.00    -0.182 C  
HETATM   21  H   UNL     1     -12.022   4.022  73.601  1.00  0.00     0.000 HD 
HETATM   22  O   UNL     1     -11.190   4.480  73.631  1.00  0.00    -0.302 OA 
BRANCH  20  23
HETATM   23  C   UNL     1     -10.070   2.316  73.477  1.00  0.00    -0.102 C  
HETATM   24  O   UNL     1     -10.351   2.475  72.087  1.00  0.00    -0.139 OA 
HETATM   25  H   UNL     1     -10.273   1.653  71.617  1.00  0.00     0.000 HD 
ENDBRANCH  20  23
ENDBRANCH  19  20
ENDBRANCH  17  19
ENDBRANCH  14  17
ENDBRANCH   8  14
BRANCH  11  26
HETATM   26  C   UNL     1      -8.759   4.742  67.451  1.00  0.00    -0.103 C  
HETATM   27  O   UNL     1      -7.615   4.996  66.782  1.00  0.00    -0.086 OA 
HETATM   28  H   UNL     1      -7.549   4.627  65.908  1.00  0.00     0.000 HD 
BRANCH  26  29
HETATM   29  N   UNL     1      -9.713   4.094  66.894  1.00  0.00    -0.212 NA 
HETATM   30  H   UNL     1     -10.673   4.204  67.220  1.00  0.00     0.000 HD 
BRANCH  29  31
HETATM   31  C   UNL     1      -9.405   3.188  65.776  1.00  0.00    -0.105 C  
BRANCH  31  32
HETATM   32  C   UNL     1     -10.231   3.514  64.509  1.00  0.00    -0.135 C  
HETATM   33  O   UNL     1     -11.416   4.270  64.807  1.00  0.00    -0.995 OA 
HETATM   34  H   UNL     1     -11.924   4.469  64.029  1.00  0.00     0.000 HD 
BRANCH  32  35
HETATM   35  C   UNL     1      -9.385   4.331  63.518  1.00  0.00    -0.131 C  
HETATM   36  O   UNL     1      -8.866   5.527  64.101  1.00  0.00    -0.343 OA 
HETATM   37  H   UNL     1      -8.344   6.031  63.488  1.00  0.00     0.000 HD 
ENDBRANCH  32  35
ENDBRANCH  31  32
ENDBRANCH  29  31
ENDBRANCH  26  29
ENDBRANCH  11  26
ENDBRANCH   2   5
BRANCH   4  38
HETATM   38  C   UNL     1     -12.472   7.033  70.968  1.00  0.00    -0.326 C  
HETATM   39  O   UNL     1     -12.805   6.835  72.329  1.00  0.00    -0.539 OA 
HETATM   40  H   UNL     1     -13.251   6.007  72.463  1.00  0.00     0.000 HD 
ENDBRANCH   4  38
TORSDOF 12
ENDMDL
MODEL      106
REMARK 921   NORMALIZED FREE ENERGY PREDICTED BY IDOCK:   -3.79 KCAL/MOL
REMARK 922        TOTAL FREE ENERGY PREDICTED BY IDOCK:   -7.48 KCAL/MOL
REMARK 923 INTER-LIGAND FREE ENERGY PREDICTED BY IDOCK:   -6.95 KCAL/MOL
REMARK 924 INTRA-LIGAND FREE ENERGY PREDICTED BY IDOCK:   -0.53 KCAL/MOL
REMARK 927      BINDING AFFINITY PREDICTED BY RF-SCORE:    0.00 PKD
ROOT
HETATM    1  C   UNL     1     -12.032  12.672  67.801  1.00  0.00    -0.243 C  
HETATM    2  N   UNL     1     -11.096  13.366  66.920  1.00  0.00    -0.287 N  
HETATM    3  O   UNL     1     -12.763  14.455  65.768  1.00  0.00    -0.396 OA 
HETATM    4  C   UNL     1     -11.567  14.219  65.918  1.00  0.00    -0.358 C  
ENDROOT
BRANCH   2   5
HETATM    5  C   UNL     1      -9.707  13.128  67.166  1.00  0.00    -0.235 A  
HETATM    6  I   UNL     1     -10.140  11.047  64.915  1.00  0.00    -0.399 I  
HETATM    7  C   UNL     1      -8.992  13.975  68.052  1.00  0.00    -0.182 A  
HETATM    8  C   UNL     1      -7.639  13.709  68.348  1.00  0.00    -0.132 A  
HETATM    9  C   UNL     1      -9.052  12.046  66.525  1.00  0.00    -0.202 A  
HETATM   10  I   UNL     1     -10.029  15.689  68.882  1.00  0.00    -0.261 I  
HETATM   11  C   UNL     1      -7.715  11.709  66.860  1.00  0.00    -0.147 A  
HETATM   12  I   UNL     1      -5.187  11.815  68.697  1.00  0.00    -0.045 I  
HETATM   13  C   UNL     1      -7.044  12.524  67.815  1.00  0.00    -0.126 A  
BRANCH   8  14
HETATM   14  C   UNL     1      -6.779  14.712  69.051  1.00  0.00    -0.103 C  
HETATM   15  H   UNL     1      -5.812  15.034  70.732  1.00  0.00     0.000 HD 
HETATM   16  O   UNL     1      -6.358  14.397  70.286  1.00  0.00    -0.168 OA 
BRANCH  14  17
HETATM   17  N   UNL     1      -6.469  15.827  68.505  1.00  0.00    -0.105 NA 
HETATM   18  H   UNL     1      -6.350  15.899  67.495  1.00  0.00     0.000 HD 
BRANCH  17  19
HETATM   19  C   UNL     1      -6.288  17.003  69.371  1.00  0.00    -0.236 C  
BRANCH  19  20
HETATM   20  C   UNL     1      -6.205  18.265  68.503  1.00  0.00    -0.202 C  
HETATM   21  H   UNL     1      -6.589  18.753  66.634  1.00  0.00     0.000 HD 
HETATM   22  O   UNL     1      -6.641  17.971  67.171  1.00  0.00    -0.174 OA 
BRANCH  20  23
HETATM   23  C   UNL     1      -7.041  19.408  69.104  1.00  0.00    -0.349 C  
HETATM   24  O   UNL     1      -8.433  19.237  68.842  1.00  0.00    -0.362 OA 
HETATM   25  H   UNL     1      -8.949  19.943  69.213  1.00  0.00     0.000 HD 
ENDBRANCH  20  23
ENDBRANCH  19  20
ENDBRANCH  17  19
ENDBRANCH  14  17
ENDBRANCH   8  14
BRANCH  11  26
HETATM   26  C   UNL     1      -7.064  10.526  66.202  1.00  0.00    -0.135 C  
HETATM   27  O   UNL     1      -6.160  10.805  65.240  1.00  0.00    -0.294 OA 
HETATM   28  H   UNL     1      -5.747  10.057  64.823  1.00  0.00     0.000 HD 
BRANCH  26  29
HETATM   29  N   UNL     1      -7.378   9.314  66.474  1.00  0.00    -0.092 NA 
HETATM   30  H   UNL     1      -8.321   8.971  66.293  1.00  0.00     0.000 HD 
BRANCH  29  31
HETATM   31  C   UNL     1      -6.359   8.423  67.052  1.00  0.00    -0.057 C  
BRANCH  31  32
HETATM   32  C   UNL     1      -6.890   7.634  68.271  1.00  0.00    -0.067 C  
HETATM   33  O   UNL     1      -6.791   8.382  69.494  1.00  0.00    -0.041 OA 
HETATM   34  H   UNL     1      -7.116   7.897  70.243  1.00  0.00     0.000 HD 
BRANCH  32  35
HETATM   35  C   UNL     1      -8.369   7.263  68.063  1.00  0.00    -0.123 C  
HETATM   36  O   UNL     1      -8.590   6.584  66.826  1.00  0.00    -0.113 OA 
HETATM   37  H   UNL     1      -9.503   6.355  66.697  1.00  0.00     0.000 HD 
ENDBRANCH  32  35
ENDBRANCH  31  32
ENDBRANCH  29  31
ENDBRANCH  26  29
ENDBRANCH  11  26
ENDBRANCH   2   5
BRANCH   4  38
HETATM   38  C   UNL     1     -10.539  14.850  64.962  1.00  0.00    -0.422 C  
HETATM   39  O   UNL     1     -10.994  16.089  64.453  1.00  0.00    -0.893 OA 
HETATM   40  H   UNL     1     -10.360  16.480  63.863  1.00  0.00     0.000 HD 
ENDBRANCH   4  38
TORSDOF 12
ENDMDL
MODEL      107
REMARK 921   NORMALIZED FREE ENERGY PREDICTED BY IDOCK:   -3.77 KCAL/MOL
REMARK 922        TOTAL FREE ENERGY PREDICTED BY IDOCK:   -7.45 KCAL/MOL
REMARK 923 INTER-LIGAND FREE ENERGY PREDICTED BY IDOCK:   -6.18 KCAL/MOL
REMARK 924 INTRA-LIGAND FREE ENERGY PREDICTED BY IDOCK:   -1.27 KCAL/MOL
REMARK 927      BINDING AFFINITY PREDICTED BY RF-SCORE:    0.00 PKD
ROOT
HETATM    1  C   UNL     1      -8.912   9.575  70.264  1.00  0.00    -0.248 C  
HETATM    2  N   UNL     1      -9.947   8.546  70.320  1.00  0.00    -0.181 N  
HETATM    3  O   UNL     1     -11.517   9.969  71.216  1.00  0.00    -0.364 OA 
HETATM    4  C   UNL     1     -11.210   8.841  70.838  1.00  0.00    -0.270 C  
ENDROOT
BRANCH   2   5
HETATM    5  C   UNL     1      -9.584   7.262  69.805  1.00  0.00    -0.162 A  
HETATM    6  I   UNL     1     -10.354   8.629  67.135  1.00  0.00    -0.237 I  
HETATM    7  C   UNL     1      -9.003   6.295  70.664  1.00  0.00    -0.144 A  
HETATM    8  C   UNL     1      -8.702   5.006  70.179  1.00  0.00    -0.130 A  
HETATM    9  C   UNL     1      -9.809   6.961  68.436  1.00  0.00    -0.143 A  
HETATM   10  I   UNL     1      -8.564   6.880  72.706  1.00  0.00    -0.143 I  
HETATM   11  C   UNL     1      -9.586   5.652  67.938  1.00  0.00    -0.133 A  
HETATM   12  I   UNL     1      -9.141   2.575  68.277  1.00  0.00    -0.247 I  
HETATM   13  C   UNL     1      -9.081   4.674  68.842  1.00  0.00    -0.119 A  
BRANCH   8  14
HETATM   14  C   UNL     1      -7.852   4.053  70.960  1.00  0.00    -0.059 C  
HETATM   15  H   UNL     1      -5.985   3.638  71.414  1.00  0.00     0.000 HD 
HETATM   16  O   UNL     1      -6.524   4.243  70.918  1.00  0.00    -0.027 OA 
BRANCH  14  17
HETATM   17  N   UNL     1      -8.367   3.091  71.630  1.00  0.00    -0.063 NA 
HETATM   18  H   UNL     1      -7.824   2.255  71.846  1.00  0.00     0.000 HD 
BRANCH  17  19
HETATM   19  C   UNL     1      -9.761   3.221  72.081  1.00  0.00    -0.159 C  
BRANCH  19  20
HETATM   20  C   UNL     1      -9.811   3.133  73.611  1.00  0.00    -0.105 C  
HETATM   21  H   UNL     1      -8.530   3.265  75.102  1.00  0.00     0.000 HD 
HETATM   22  O   UNL     1      -8.499   3.320  74.154  1.00  0.00    -0.073 OA 
BRANCH  20  23
HETATM   23  C   UNL     1     -10.788   4.167  74.195  1.00  0.00    -0.186 C  
HETATM   24  O   UNL     1     -11.622   4.734  73.185  1.00  0.00    -0.305 OA 
HETATM   25  H   UNL     1     -12.225   5.373  73.546  1.00  0.00     0.000 HD 
ENDBRANCH  20  23
ENDBRANCH  19  20
ENDBRANCH  17  19
ENDBRANCH  14  17
ENDBRANCH   8  14
BRANCH  11  26
HETATM   26  C   UNL     1      -9.881   5.349  66.497  1.00  0.00    -0.176 C  
HETATM   27  O   UNL     1     -11.128   4.910  66.225  1.00  0.00    -0.528 OA 
HETATM   28  H   UNL     1     -11.315   4.718  65.313  1.00  0.00     0.000 HD 
BRANCH  26  29
HETATM   29  N   UNL     1      -8.999   5.432  65.571  1.00  0.00    -0.183 NA 
HETATM   30  H   UNL     1      -8.859   6.307  65.066  1.00  0.00     0.000 HD 
BRANCH  29  31
HETATM   31  C   UNL     1      -8.190   4.246  65.246  1.00  0.00    -0.106 C  
BRANCH  31  32
HETATM   32  C   UNL     1      -8.854   3.358  64.167  1.00  0.00    -0.097 C  
HETATM   33  O   UNL     1      -9.886   2.519  64.708  1.00  0.00    -0.336 OA 
HETATM   34  H   UNL     1     -10.294   1.973  64.045  1.00  0.00     0.000 HD 
BRANCH  32  35
HETATM   35  C   UNL     1      -9.482   4.234  63.069  1.00  0.00    -0.123 C  
HETATM   36  O   UNL     1     -10.878   4.451  63.278  1.00  0.00    -0.415 OA 
HETATM   37  H   UNL     1     -11.266   4.991  62.600  1.00  0.00     0.000 HD 
ENDBRANCH  32  35
ENDBRANCH  31  32
ENDBRANCH  29  31
ENDBRANCH  26  29
ENDBRANCH  11  26
ENDBRANCH   2   5
BRANCH   4  38
HETATM   38  C   UNL     1     -12.230   7.694  70.957  1.00  0.00    -0.236 C  
HETATM   39  O   UNL     1     -12.463   7.343  72.308  1.00  0.00    -0.477 OA 
HETATM   40  H   UNL     1     -13.093   6.635  72.381  1.00  0.00     0.000 HD 
ENDBRANCH   4  38
TORSDOF 12
ENDMDL
MODEL      108
REMARK 921   NORMALIZED FREE ENERGY PREDICTED BY IDOCK:   -3.77 KCAL/MOL
REMARK 922        TOTAL FREE ENERGY PREDICTED BY IDOCK:   -7.45 KCAL/MOL
REMARK 923 INTER-LIGAND FREE ENERGY PREDICTED BY IDOCK:   -6.27 KCAL/MOL
REMARK 924 INTRA-LIGAND FREE ENERGY PREDICTED BY IDOCK:   -1.18 KCAL/MOL
REMARK 927      BINDING AFFINITY PREDICTED BY RF-SCORE:    0.00 PKD
ROOT
HETATM    1  C   UNL     1     -10.207   1.826  71.998  1.00  0.00    -0.145 C  
HETATM    2  N   UNL     1      -9.216   2.897  71.958  1.00  0.00    -0.092 N  
HETATM    3  O   UNL     1      -7.924   1.961  73.616  1.00  0.00    -0.041 OA 
HETATM    4  C   UNL     1      -8.122   2.882  72.829  1.00  0.00    -0.067 C  
ENDROOT
BRANCH   2   5
HETATM    5  C   UNL     1      -9.433   3.918  70.980  1.00  0.00    -0.166 A  
HETATM    6  I   UNL     1     -10.757   5.313  73.408  1.00  0.00    -0.357 I  
HETATM    7  C   UNL     1      -8.853   3.797  69.692  1.00  0.00    -0.091 A  
HETATM    8  C   UNL     1      -9.115   4.768  68.703  1.00  0.00    -0.149 A  
HETATM    9  C   UNL     1     -10.230   5.047  71.304  1.00  0.00    -0.203 A  
HETATM   10  I   UNL     1      -7.536   2.115  69.322  1.00  0.00    -0.051 I  
HETATM   11  C   UNL     1     -10.572   6.000  70.310  1.00  0.00    -0.338 A  
HETATM   12  I   UNL     1     -10.876   6.956  67.348  1.00  0.00    -0.253 I  
HETATM   13  C   UNL     1     -10.046   5.811  69.000  1.00  0.00    -0.191 A  
BRANCH   8  14
HETATM   14  C   UNL     1      -8.323   4.828  67.435  1.00  0.00    -0.105 C  
HETATM   15  H   UNL     1      -8.303   4.194  65.574  1.00  0.00     0.000 HD 
HETATM   16  O   UNL     1      -8.806   4.156  66.379  1.00  0.00    -0.113 OA 
BRANCH  14  17
HETATM   17  N   UNL     1      -7.225   5.482  67.362  1.00  0.00    -0.074 NA 
HETATM   18  H   UNL     1      -6.387   5.151  67.841  1.00  0.00     0.000 HD 
BRANCH  17  19
HETATM   19  C   UNL     1      -7.201   6.723  66.573  1.00  0.00    -0.073 C  
BRANCH  19  20
HETATM   20  C   UNL     1      -6.246   6.551  65.385  1.00  0.00    -0.034 C  
HETATM   21  H   UNL     1      -4.750   5.365  64.902  1.00  0.00     0.000 HD 
HETATM   22  O   UNL     1      -5.341   5.471  65.638  1.00  0.00    -0.012 OA 
BRANCH  20  23
HETATM   23  C   UNL     1      -7.023   6.308  64.079  1.00  0.00    -0.040 C  
HETATM   24  O   UNL     1      -8.431   6.248  64.307  1.00  0.00    -0.331 OA 
HETATM   25  H   UNL     1      -8.910   6.098  63.501  1.00  0.00     0.000 HD 
ENDBRANCH  20  23
ENDBRANCH  19  20
ENDBRANCH  17  19
ENDBRANCH  14  17
ENDBRANCH   8  14
BRANCH  11  26
HETATM   26  C   UNL     1     -11.459   7.158  70.669  1.00  0.00    -0.308 C  
HETATM   27  O   UNL     1     -12.786   6.954  70.534  1.00  0.00    -0.569 OA 
HETATM   28  H   UNL     1     -13.347   7.686  70.761  1.00  0.00     0.000 HD 
BRANCH  26  29
HETATM   29  N   UNL     1     -11.004   8.302  71.023  1.00  0.00    -0.239 NA 
HETATM   30  H   UNL     1     -10.009   8.430  71.204  1.00  0.00     0.000 HD 
BRANCH  29  31
HETATM   31  C   UNL     1     -11.939   9.430  71.164  1.00  0.00    -0.337 C  
BRANCH  31  32
HETATM   32  C   UNL     1     -11.643  10.569  70.161  1.00  0.00    -0.326 C  
HETATM   33  O   UNL     1     -12.152  10.289  68.848  1.00  0.00    -0.657 OA 
HETATM   34  H   UNL     1     -11.970  10.989  68.231  1.00  0.00     0.000 HD 
BRANCH  32  35
HETATM   35  C   UNL     1     -12.279  11.884  70.645  1.00  0.00    -0.331 C  
HETATM   36  O   UNL     1     -11.487  13.025  70.316  1.00  0.00    -0.512 OA 
HETATM   37  H   UNL     1     -11.880  13.837  70.616  1.00  0.00     0.000 HD 
ENDBRANCH  32  35
ENDBRANCH  31  32
ENDBRANCH  29  31
ENDBRANCH  26  29
ENDBRANCH  11  26
ENDBRANCH   2   5
BRANCH   4  38
HETATM   38  C   UNL     1      -7.161   4.084  72.804  1.00  0.00    -0.058 C  
HETATM   39  O   UNL     1      -5.912   3.740  72.236  1.00  0.00    -0.008 OA 
HETATM   40  H   UNL     1      -5.318   4.483  72.220  1.00  0.00     0.000 HD 
ENDBRANCH   4  38
TORSDOF 12
ENDMDL
MODEL      109
REMARK 921   NORMALIZED FREE ENERGY PREDICTED BY IDOCK:   -3.75 KCAL/MOL
REMARK 922        TOTAL FREE ENERGY PREDICTED BY IDOCK:   -7.42 KCAL/MOL
REMARK 923 INTER-LIGAND FREE ENERGY PREDICTED BY IDOCK:   -6.70 KCAL/MOL
REMARK 924 INTRA-LIGAND FREE ENERGY PREDICTED BY IDOCK:   -0.72 KCAL/MOL
REMARK 927      BINDING AFFINITY PREDICTED BY RF-SCORE:    0.00 PKD
ROOT
HETATM    1  C   UNL     1      -8.254   6.740  64.607  1.00  0.00    -0.032 C  
HETATM    2  N   UNL     1      -7.723   7.583  65.674  1.00  0.00    -0.094 N  
HETATM    3  O   UNL     1      -5.586   7.566  64.823  1.00  0.00    -0.033 OA 
HETATM    4  C   UNL     1      -6.367   7.918  65.704  1.00  0.00    -0.042 C  
ENDROOT
BRANCH   2   5
HETATM    5  C   UNL     1      -8.670   8.039  66.645  1.00  0.00    -0.140 A  
HETATM    6  I   UNL     1      -8.965  10.341  64.596  1.00  0.00    -0.314 I  
HETATM    7  C   UNL     1      -9.007   7.210  67.746  1.00  0.00    -0.122 A  
HETATM    8  C   UNL     1      -9.891   7.678  68.740  1.00  0.00    -0.165 A  
HETATM    9  C   UNL     1      -9.268   9.318  66.502  1.00  0.00    -0.161 A  
HETATM   10  I   UNL     1      -8.158   5.216  67.817  1.00  0.00    -0.097 I  
HETATM   11  C   UNL     1     -10.101   9.845  67.522  1.00  0.00    -0.244 A  
HETATM   12  I   UNL     1     -11.239   9.922  70.434  1.00  0.00    -0.426 I  
HETATM   13  C   UNL     1     -10.357   9.027  68.659  1.00  0.00    -0.209 A  
BRANCH   8  14
HETATM   14  C   UNL     1     -10.480   6.756  69.762  1.00  0.00    -0.210 C  
HETATM   15  H   UNL     1     -11.989   5.538  70.080  1.00  0.00     0.000 HD 
HETATM   16  O   UNL     1     -11.616   6.123  69.431  1.00  0.00    -0.372 OA 
BRANCH  14  17
HETATM   17  N   UNL     1      -9.931   6.587  70.906  1.00  0.00    -0.184 NA 
HETATM   18  H   UNL     1      -8.926   6.712  71.027  1.00  0.00     0.000 HD 
BRANCH  17  19
HETATM   19  C   UNL     1     -10.786   6.208  72.042  1.00  0.00    -0.233 C  
BRANCH  19  20
HETATM   20  C   UNL     1      -9.930   5.521  73.113  1.00  0.00    -0.173 C  
HETATM   21  H   UNL     1      -8.089   4.839  73.266  1.00  0.00     0.000 HD 
HETATM   22  O   UNL     1      -8.618   5.264  72.601  1.00  0.00    -0.117 OA 
BRANCH  20  23
HETATM   23  C   UNL     1      -9.852   6.374  74.391  1.00  0.00    -0.319 C  
HETATM   24  O   UNL     1      -8.975   7.488  74.229  1.00  0.00    -0.318 OA 
HETATM   25  H   UNL     1      -8.927   8.014  75.018  1.00  0.00     0.000 HD 
ENDBRANCH  20  23
ENDBRANCH  19  20
ENDBRANCH  17  19
ENDBRANCH  14  17
ENDBRANCH   8  14
BRANCH  11  26
HETATM   26  C   UNL     1     -10.679  11.222  67.367  1.00  0.00    -0.242 C  
HETATM   27  O   UNL     1     -11.943  11.287  66.899  1.00  0.00    -0.327 OA 
HETATM   28  H   UNL     1     -12.309  12.159  66.800  1.00  0.00     0.000 HD 
BRANCH  26  29
HETATM   29  N   UNL     1     -10.009  12.290  67.597  1.00  0.00    -0.195 NA 
HETATM   30  H   UNL     1      -9.041  12.236  67.910  1.00  0.00     0.000 HD 
BRANCH  29  31
HETATM   31  C   UNL     1     -10.658  13.596  67.400  1.00  0.00    -0.259 C  
BRANCH  31  32
HETATM   32  C   UNL     1      -9.653  14.695  66.981  1.00  0.00    -0.240 C  
HETATM   33  O   UNL     1      -8.330  14.177  66.771  1.00  0.00    -0.407 OA 
HETATM   34  H   UNL     1      -7.713  14.852  66.513  1.00  0.00     0.000 HD 
BRANCH  32  35
HETATM   35  C   UNL     1     -10.112  15.365  65.674  1.00  0.00    -0.376 C  
HETATM   36  O   UNL     1      -9.824  14.569  64.524  1.00  0.00    -0.548 OA 
HETATM   37  H   UNL     1     -10.108  14.983  63.717  1.00  0.00     0.000 HD 
ENDBRANCH  32  35
ENDBRANCH  31  32
ENDBRANCH  29  31
ENDBRANCH  26  29
ENDBRANCH  11  26
ENDBRANCH   2   5
BRANCH   4  38
HETATM   38  C   UNL     1      -5.847   8.732  66.903  1.00  0.00    -0.052 C  
HETATM   39  O   UNL     1      -5.677  10.097  66.570  1.00  0.00    -0.054 OA 
HETATM   40  H   UNL     1      -5.356  10.599  67.311  1.00  0.00     0.000 HD 
ENDBRANCH   4  38
TORSDOF 12
ENDMDL
MODEL      110
REMARK 921   NORMALIZED FREE ENERGY PREDICTED BY IDOCK:   -3.75 KCAL/MOL
REMARK 922        TOTAL FREE ENERGY PREDICTED BY IDOCK:   -7.42 KCAL/MOL
REMARK 923 INTER-LIGAND FREE ENERGY PREDICTED BY IDOCK:   -6.42 KCAL/MOL
REMARK 924 INTRA-LIGAND FREE ENERGY PREDICTED BY IDOCK:   -0.99 KCAL/MOL
REMARK 927      BINDING AFFINITY PREDICTED BY RF-SCORE:    0.00 PKD
ROOT
HETATM    1  C   UNL     1     -12.425   9.233  72.370  1.00  0.00    -0.237 C  
HETATM    2  N   UNL     1     -11.663   8.396  71.447  1.00  0.00    -0.277 N  
HETATM    3  O   UNL     1     -13.405   6.932  71.108  1.00  0.00    -0.254 OA 
HETATM    4  C   UNL     1     -12.240   7.251  70.890  1.00  0.00    -0.270 C  
ENDROOT
BRANCH   2   5
HETATM    5  C   UNL     1     -10.333   8.833  71.155  1.00  0.00    -0.246 A  
HETATM    6  I   UNL     1     -11.880  10.825  69.357  1.00  0.00    -0.225 I  
HETATM    7  C   UNL     1      -9.238   8.296  71.879  1.00  0.00    -0.208 A  
HETATM    8  C   UNL     1      -7.920   8.675  71.553  1.00  0.00    -0.178 A  
HETATM    9  C   UNL     1     -10.115   9.801  70.140  1.00  0.00    -0.265 A  
HETATM   10  I   UNL     1      -9.666   6.928  73.505  1.00  0.00    -0.361 I  
HETATM   11  C   UNL     1      -8.799  10.145  69.740  1.00  0.00    -0.152 A  
HETATM   12  I   UNL     1      -5.713   9.661  69.582  1.00  0.00    -0.035 I  
HETATM   13  C   UNL     1      -7.714   9.529  70.425  1.00  0.00    -0.163 A  
BRANCH   8  14
HETATM   14  C   UNL     1      -6.767   8.350  72.450  1.00  0.00    -0.088 C  
HETATM   15  H   UNL     1      -5.513   9.153  73.734  1.00  0.00     0.000 HD 
HETATM   16  O   UNL     1      -6.245   9.359  73.164  1.00  0.00    -0.304 OA 
BRANCH  14  17
HETATM   17  N   UNL     1      -6.290   7.164  72.524  1.00  0.00    -0.052 NA 
HETATM   18  H   UNL     1      -6.675   6.486  73.182  1.00  0.00     0.000 HD 
BRANCH  17  19
HETATM   19  C   UNL     1      -5.172   6.803  71.638  1.00  0.00    -0.027 C  
BRANCH  19  20
HETATM   20  C   UNL     1      -5.432   5.419  71.032  1.00  0.00    -0.009 C  
HETATM   21  H   UNL     1      -6.225   3.715  71.622  1.00  0.00     0.000 HD 
HETATM   22  O   UNL     1      -6.064   4.573  71.998  1.00  0.00    -0.018 OA 
BRANCH  20  23
HETATM   23  C   UNL     1      -6.293   5.523  69.761  1.00  0.00    -0.033 C  
HETATM   24  O   UNL     1      -7.682   5.630  70.073  1.00  0.00    -0.079 OA 
HETATM   25  H   UNL     1      -8.213   5.694  69.288  1.00  0.00     0.000 HD 
ENDBRANCH  20  23
ENDBRANCH  19  20
ENDBRANCH  17  19
ENDBRANCH  14  17
ENDBRANCH   8  14
BRANCH  11  26
HETATM   26  C   UNL     1      -8.599  11.135  68.628  1.00  0.00    -0.151 C  
HETATM   27  O   UNL     1      -8.621  10.635  67.376  1.00  0.00    -0.122 OA 
HETATM   28  H   UNL     1      -8.494  11.261  66.672  1.00  0.00     0.000 HD 
BRANCH  26  29
HETATM   29  N   UNL     1      -8.354  12.376  68.834  1.00  0.00    -0.344 NA 
HETATM   30  H   UNL     1      -8.531  12.794  69.747  1.00  0.00     0.000 HD 
BRANCH  29  31
HETATM   31  C   UNL     1      -7.814  13.190  67.734  1.00  0.00    -0.152 C  
BRANCH  31  32
HETATM   32  C   UNL     1      -8.911  14.007  67.011  1.00  0.00    -0.235 C  
HETATM   33  O   UNL     1      -9.585  13.244  65.998  1.00  0.00    -0.403 OA 
HETATM   34  H   UNL     1     -10.258  13.745  65.554  1.00  0.00     0.000 HD 
BRANCH  32  35
HETATM   35  C   UNL     1      -9.967  14.489  68.021  1.00  0.00    -0.222 C  
HETATM   36  O   UNL     1     -11.167  14.930  67.384  1.00  0.00    -0.318 OA 
HETATM   37  H   UNL     1     -11.819  15.228  68.008  1.00  0.00     0.000 HD 
ENDBRANCH  32  35
ENDBRANCH  31  32
ENDBRANCH  29  31
ENDBRANCH  26  29
ENDBRANCH  11  26
ENDBRANCH   2   5
BRANCH   4  38
HETATM   38  C   UNL     1     -11.359   6.358  69.997  1.00  0.00    -0.430 C  
HETATM   39  O   UNL     1     -11.556   6.639  68.625  1.00  0.00    -0.567 OA 
HETATM   40  H   UNL     1     -11.012   6.088  68.073  1.00  0.00     0.000 HD 
ENDBRANCH   4  38
TORSDOF 12
ENDMDL
MODEL      111
REMARK 921   NORMALIZED FREE ENERGY PREDICTED BY IDOCK:   -3.75 KCAL/MOL
REMARK 922        TOTAL FREE ENERGY PREDICTED BY IDOCK:   -7.42 KCAL/MOL
REMARK 923 INTER-LIGAND FREE ENERGY PREDICTED BY IDOCK:   -6.88 KCAL/MOL
REMARK 924 INTRA-LIGAND FREE ENERGY PREDICTED BY IDOCK:   -0.54 KCAL/MOL
REMARK 927      BINDING AFFINITY PREDICTED BY RF-SCORE:    0.00 PKD
ROOT
HETATM    1  C   UNL     1      -6.647   6.856  65.867  1.00  0.00    -0.051 C  
HETATM    2  N   UNL     1      -7.874   6.284  66.413  1.00  0.00    -0.102 N  
HETATM    3  O   UNL     1      -8.384   5.157  64.473  1.00  0.00    -0.127 OA 
HETATM    4  C   UNL     1      -8.686   5.465  65.623  1.00  0.00    -0.152 C  
ENDROOT
BRANCH   2   5
HETATM    5  C   UNL     1      -8.161   6.600  67.778  1.00  0.00    -0.119 A  
HETATM    6  I   UNL     1      -9.676   8.942  66.434  1.00  0.00    -0.279 I  
HETATM    7  C   UNL     1      -7.787   5.697  68.806  1.00  0.00    -0.096 A  
HETATM    8  C   UNL     1      -8.009   6.030  70.158  1.00  0.00    -0.106 A  
HETATM    9  C   UNL     1      -8.819   7.816  68.098  1.00  0.00    -0.125 A  
HETATM   10  I   UNL     1      -6.913   3.799  68.225  1.00  0.00    -0.051 I  
HETATM   11  C   UNL     1      -8.989   8.212  69.449  1.00  0.00    -0.147 A  
HETATM   12  I   UNL     1      -8.348   8.053  72.506  1.00  0.00    -0.238 I  
HETATM   13  C   UNL     1      -8.528   7.326  70.465  1.00  0.00    -0.138 A  
BRANCH   8  14
HETATM   14  C   UNL     1      -7.882   5.012  71.247  1.00  0.00    -0.101 C  
HETATM   15  H   UNL     1      -6.589   4.212  72.493  1.00  0.00     0.000 HD 
HETATM   16  O   UNL     1      -6.670   4.858  71.802  1.00  0.00    -0.040 OA 
BRANCH  14  17
HETATM   17  N   UNL     1      -8.882   4.309  71.626  1.00  0.00    -0.112 NA 
HETATM   18  H   UNL     1      -8.744   3.438  72.140  1.00  0.00     0.000 HD 
BRANCH  17  19
HETATM   19  C   UNL     1     -10.236   4.786  71.302  1.00  0.00    -0.158 C  
BRANCH  19  20
HETATM   20  C   UNL     1     -10.919   5.282  72.582  1.00  0.00    -0.260 C  
HETATM   21  H   UNL     1     -12.586   6.221  73.052  1.00  0.00     0.000 HD 
HETATM   22  O   UNL     1     -12.162   5.914  72.259  1.00  0.00    -0.245 OA 
BRANCH  20  23
HETATM   23  C   UNL     1     -11.143   4.128  73.574  1.00  0.00    -0.270 C  
HETATM   24  O   UNL     1     -10.049   3.993  74.481  1.00  0.00    -0.153 OA 
HETATM   25  H   UNL     1     -10.188   3.280  75.094  1.00  0.00     0.000 HD 
ENDBRANCH  20  23
ENDBRANCH  19  20
ENDBRANCH  17  19
ENDBRANCH  14  17
ENDBRANCH   8  14
BRANCH  11  26
HETATM   26  C   UNL     1      -9.643   9.529  69.757  1.00  0.00    -0.216 C  
HETATM   27  O   UNL     1      -8.823  10.598  69.825  1.00  0.00    -0.386 OA 
HETATM   28  H   UNL     1      -9.237  11.431  70.020  1.00  0.00     0.000 HD 
BRANCH  26  29
HETATM   29  N   UNL     1     -10.894   9.645  70.009  1.00  0.00    -0.248 NA 
HETATM   30  H   UNL     1     -11.574   9.681  69.250  1.00  0.00     0.000 HD 
BRANCH  29  31
HETATM   31  C   UNL     1     -11.337   9.725  71.410  1.00  0.00    -0.337 C  
BRANCH  31  32
HETATM   32  C   UNL     1     -12.813  10.168  71.537  1.00  0.00    -0.443 C  
HETATM   33  O   UNL     1     -13.420   9.711  72.756  1.00  0.00    -0.619 OA 
HETATM   34  H   UNL     1     -14.327   9.983  72.834  1.00  0.00     0.000 HD 
BRANCH  32  35
HETATM   35  C   UNL     1     -12.913  11.703  71.505  1.00  0.00    -0.358 C  
HETATM   36  O   UNL     1     -13.725  12.218  72.560  1.00  0.00    -0.558 OA 
HETATM   37  H   UNL     1     -13.787  13.166  72.540  1.00  0.00     0.000 HD 
ENDBRANCH  32  35
ENDBRANCH  31  32
ENDBRANCH  29  31
ENDBRANCH  26  29
ENDBRANCH  11  26
ENDBRANCH   2   5
BRANCH   4  38
HETATM   38  C   UNL     1     -10.013   4.966  66.222  1.00  0.00    -0.234 C  
HETATM   39  O   UNL     1     -10.104   3.555  66.182  1.00  0.00    -0.406 OA 
HETATM   40  H   UNL     1     -10.923   3.246  66.553  1.00  0.00     0.000 HD 
ENDBRANCH   4  38
TORSDOF 12
ENDMDL
MODEL      112
REMARK 921   NORMALIZED FREE ENERGY PREDICTED BY IDOCK:   -3.74 KCAL/MOL
REMARK 922        TOTAL FREE ENERGY PREDICTED BY IDOCK:   -7.41 KCAL/MOL
REMARK 923 INTER-LIGAND FREE ENERGY PREDICTED BY IDOCK:   -7.23 KCAL/MOL
REMARK 924 INTRA-LIGAND FREE ENERGY PREDICTED BY IDOCK:   -0.18 KCAL/MOL
REMARK 927      BINDING AFFINITY PREDICTED BY RF-SCORE:    0.00 PKD
ROOT
HETATM    1  C   UNL     1     -11.385  14.242  69.384  1.00  0.00    -0.282 C  
HETATM    2  N   UNL     1     -11.068  13.331  68.287  1.00  0.00    -0.253 N  
HETATM    3  O   UNL     1     -12.757  14.130  66.945  1.00  0.00    -0.117 OA 
HETATM    4  C   UNL     1     -11.834  13.339  67.118  1.00  0.00    -0.374 C  
ENDROOT
BRANCH   2   5
HETATM    5  C   UNL     1      -9.941  12.473  68.488  1.00  0.00    -0.165 A  
HETATM    6  I   UNL     1      -8.468  14.875  67.204  1.00  0.00    -0.204 I  
HETATM    7  C   UNL     1     -10.097  11.262  69.210  1.00  0.00     0.009 A  
HETATM    8  C   UNL     1      -9.006  10.381  69.357  1.00  0.00    -0.168 A  
HETATM    9  C   UNL     1      -8.674  12.837  67.963  1.00  0.00    -0.194 A  
HETATM   10  I   UNL     1     -12.031  10.847  70.098  1.00  0.00    -0.478 I  
HETATM   11  C   UNL     1      -7.579  11.938  68.031  1.00  0.00    -0.122 A  
HETATM   12  I   UNL     1      -6.311   9.108  68.439  1.00  0.00    -0.054 I  
HETATM   13  C   UNL     1      -7.782  10.691  68.687  1.00  0.00    -0.110 A  
BRANCH   8  14
HETATM   14  C   UNL     1      -9.046   9.239  70.325  1.00  0.00    -0.237 C  
HETATM   15  H   UNL     1      -8.166   8.521  71.929  1.00  0.00     0.000 HD 
HETATM   16  O   UNL     1      -8.141   9.246  71.316  1.00  0.00    -0.320 OA 
BRANCH  14  17
HETATM   17  N   UNL     1      -9.898   8.291  70.206  1.00  0.00    -0.182 NA 
HETATM   18  H   UNL     1     -10.456   8.193  69.358  1.00  0.00     0.000 HD 
BRANCH  17  19
HETATM   19  C   UNL     1     -10.051   7.346  71.323  1.00  0.00    -0.188 C  
BRANCH  19  20
HETATM   20  C   UNL     1     -11.195   6.373  71.011  1.00  0.00    -0.313 C  
HETATM   21  H   UNL     1     -13.147   6.477  70.768  1.00  0.00     0.000 HD 
HETATM   22  O   UNL     1     -12.439   7.080  70.962  1.00  0.00    -0.376 OA 
BRANCH  20  23
HETATM   23  C   UNL     1     -10.945   5.630  69.687  1.00  0.00    -0.222 C  
HETATM   24  O   UNL     1     -11.445   6.362  68.569  1.00  0.00    -0.547 OA 
HETATM   25  H   UNL     1     -11.291   5.903  67.752  1.00  0.00     0.000 HD 
ENDBRANCH  20  23
ENDBRANCH  19  20
ENDBRANCH  17  19
ENDBRANCH  14  17
ENDBRANCH   8  14
BRANCH  11  26
HETATM   26  C   UNL     1      -6.263  12.330  67.422  1.00  0.00    -0.153 C  
HETATM   27  O   UNL     1      -6.104  12.040  66.114  1.00  0.00    -0.414 OA 
HETATM   28  H   UNL     1      -5.272  12.288  65.728  1.00  0.00     0.000 HD 
BRANCH  26  29
HETATM   29  N   UNL     1      -5.306  12.848  68.099  1.00  0.00    -0.077 NA 
HETATM   30  H   UNL     1      -4.503  12.285  68.374  1.00  0.00     0.000 HD 
BRANCH  29  31
HETATM   31  C   UNL     1      -5.384  14.269  68.472  1.00  0.00    -0.099 C  
BRANCH  31  32
HETATM   32  C   UNL     1      -5.159  14.493  69.986  1.00  0.00    -0.093 C  
HETATM   33  O   UNL     1      -5.679  15.754  70.436  1.00  0.00    -0.158 OA 
HETATM   34  H   UNL     1      -5.540  15.892  71.366  1.00  0.00     0.000 HD 
BRANCH  32  35
HETATM   35  C   UNL     1      -5.847  13.381  70.797  1.00  0.00    -0.148 C  
HETATM   36  O   UNL     1      -6.057  13.751  72.160  1.00  0.00    -0.524 OA 
HETATM   37  H   UNL     1      -6.482  13.065  72.660  1.00  0.00     0.000 HD 
ENDBRANCH  32  35
ENDBRANCH  31  32
ENDBRANCH  29  31
ENDBRANCH  26  29
ENDBRANCH  11  26
ENDBRANCH   2   5
BRANCH   4  38
HETATM   38  C   UNL     1     -11.511  12.295  66.034  1.00  0.00    -0.381 C  
HETATM   39  O   UNL     1     -10.743  12.854  64.985  1.00  0.00    -0.286 OA 
HETATM   40  H   UNL     1     -10.544  12.209  64.316  1.00  0.00     0.000 HD 
ENDBRANCH   4  38
TORSDOF 12
ENDMDL
MODEL      113
REMARK 921   NORMALIZED FREE ENERGY PREDICTED BY IDOCK:   -3.74 KCAL/MOL
REMARK 922        TOTAL FREE ENERGY PREDICTED BY IDOCK:   -7.41 KCAL/MOL
REMARK 923 INTER-LIGAND FREE ENERGY PREDICTED BY IDOCK:   -6.02 KCAL/MOL
REMARK 924 INTRA-LIGAND FREE ENERGY PREDICTED BY IDOCK:   -1.39 KCAL/MOL
REMARK 927      BINDING AFFINITY PREDICTED BY RF-SCORE:    0.00 PKD
ROOT
HETATM    1  C   UNL     1     -12.197  15.004  67.312  1.00  0.00     0.296 C  
HETATM    2  N   UNL     1     -11.445  15.092  68.560  1.00  0.00    -0.305 N  
HETATM    3  O   UNL     1     -13.332  15.374  69.846  1.00  0.00     0.207 OA 
HETATM    4  C   UNL     1     -12.108  15.304  69.772  1.00  0.00    -0.328 C  
ENDROOT
BRANCH   2   5
HETATM    5  C   UNL     1     -10.027  14.934  68.453  1.00  0.00    -0.222 A  
HETATM    6  I   UNL     1     -10.847  11.960  68.176  1.00  0.00    -0.339 I  
HETATM    7  C   UNL     1      -9.193  16.078  68.375  1.00  0.00    -0.196 A  
HETATM    8  C   UNL     1      -7.791  15.930  68.333  1.00  0.00    -0.145 A  
HETATM    9  C   UNL     1      -9.463  13.632  68.426  1.00  0.00    -0.190 A  
HETATM   10  I   UNL     1     -10.141  18.025  68.281  1.00  0.00    -0.405 I  
HETATM   11  C   UNL     1      -8.056  13.453  68.460  1.00  0.00    -0.105 A  
HETATM   12  I   UNL     1      -5.129  14.434  68.965  1.00  0.00    -0.089 I  
HETATM   13  C   UNL     1      -7.238  14.619  68.467  1.00  0.00    -0.118 A  
BRANCH   8  14
HETATM   14  C   UNL     1      -6.893  17.075  67.982  1.00  0.00    -0.160 C  
HETATM   15  H   UNL     1      -5.866  18.553  68.773  1.00  0.00     0.000 HD 
HETATM   16  O   UNL     1      -6.436  17.827  68.996  1.00  0.00    -0.213 OA 
BRANCH  14  17
HETATM   17  N   UNL     1      -6.583  17.335  66.768  1.00  0.00    -0.190 NA 
HETATM   18  H   UNL     1      -7.148  16.978  65.996  1.00  0.00     0.000 HD 
BRANCH  17  19
HETATM   19  C   UNL     1      -5.394  18.162  66.511  1.00  0.00    -0.150 C  
BRANCH  19  20
HETATM   20  C   UNL     1      -5.822  19.474  65.843  1.00  0.00    -0.165 C  
HETATM   21  H   UNL     1      -7.336  20.107  64.753  1.00  0.00     0.000 HD 
HETATM   22  O   UNL     1      -7.071  19.293  65.167  1.00  0.00    -0.433 OA 
BRANCH  20  23
HETATM   23  C   UNL     1      -5.927  20.612  66.873  1.00  0.00    -0.200 C  
HETATM   24  O   UNL     1      -7.088  20.477  67.692  1.00  0.00    -0.294 OA 
HETATM   25  H   UNL     1      -7.153  21.180  68.328  1.00  0.00     0.000 HD 
ENDBRANCH  20  23
ENDBRANCH  19  20
ENDBRANCH  17  19
ENDBRANCH  14  17
ENDBRANCH   8  14
BRANCH  11  26
HETATM   26  C   UNL     1      -7.488  12.063  68.482  1.00  0.00    -0.117 C  
HETATM   27  O   UNL     1      -6.985  11.608  67.316  1.00  0.00    -0.110 OA 
HETATM   28  H   UNL     1      -6.625  10.728  67.329  1.00  0.00     0.000 HD 
BRANCH  26  29
HETATM   29  N   UNL     1      -7.525  11.310  69.518  1.00  0.00    -0.353 NA 
HETATM   30  H   UNL     1      -8.020  11.609  70.358  1.00  0.00     0.000 HD 
BRANCH  29  31
HETATM   31  C   UNL     1      -6.845  10.006  69.478  1.00  0.00    -0.071 C  
BRANCH  31  32
HETATM   32  C   UNL     1      -7.725   8.865  70.039  1.00  0.00    -0.078 C  
HETATM   33  O   UNL     1      -8.174   9.126  71.378  1.00  0.00    -0.316 OA 
HETATM   34  H   UNL     1      -8.715   8.425  71.723  1.00  0.00     0.000 HD 
BRANCH  32  35
HETATM   35  C   UNL     1      -8.968   8.667  69.154  1.00  0.00    -0.142 C  
HETATM   36  O   UNL     1      -8.695   8.902  67.772  1.00  0.00    -0.125 OA 
HETATM   37  H   UNL     1      -9.462   8.781  67.226  1.00  0.00     0.000 HD 
ENDBRANCH  32  35
ENDBRANCH  31  32
ENDBRANCH  29  31
ENDBRANCH  26  29
ENDBRANCH  11  26
ENDBRANCH   2   5
BRANCH   4  38
HETATM   38  C   UNL     1     -11.257  15.481  71.043  1.00  0.00    -0.373 C  
HETATM   39  O   UNL     1     -11.880  16.349  71.970  1.00  0.00    -0.585 OA 
HETATM   40  H   UNL     1     -11.355  16.458  72.754  1.00  0.00     0.000 HD 
ENDBRANCH   4  38
TORSDOF 12
ENDMDL
MODEL      114
REMARK 921   NORMALIZED FREE ENERGY PREDICTED BY IDOCK:   -3.74 KCAL/MOL
REMARK 922        TOTAL FREE ENERGY PREDICTED BY IDOCK:   -7.40 KCAL/MOL
REMARK 923 INTER-LIGAND FREE ENERGY PREDICTED BY IDOCK:   -6.45 KCAL/MOL
REMARK 924 INTRA-LIGAND FREE ENERGY PREDICTED BY IDOCK:   -0.94 KCAL/MOL
REMARK 927      BINDING AFFINITY PREDICTED BY RF-SCORE:    0.00 PKD
ROOT
HETATM    1  C   UNL     1     -10.906   9.134  69.539  1.00  0.00    -0.180 C  
HETATM    2  N   UNL     1      -9.474   8.862  69.456  1.00  0.00    -0.157 N  
HETATM    3  O   UNL     1      -9.148   9.114  71.720  1.00  0.00    -0.346 OA 
HETATM    4  C   UNL     1      -8.679   8.902  70.605  1.00  0.00    -0.197 C  
ENDROOT
BRANCH   2   5
HETATM    5  C   UNL     1      -8.969   8.545  68.156  1.00  0.00    -0.142 A  
HETATM    6  I   UNL     1      -8.409  11.590  68.138  1.00  0.00    -0.163 I  
HETATM    7  C   UNL     1      -8.872   7.189  67.748  1.00  0.00    -0.124 A  
HETATM    8  C   UNL     1      -8.436   6.872  66.445  1.00  0.00    -0.130 A  
HETATM    9  C   UNL     1      -8.569   9.587  67.280  1.00  0.00    -0.128 A  
HETATM   10  I   UNL     1      -9.372   5.653  69.193  1.00  0.00    -0.189 I  
HETATM   11  C   UNL     1      -8.197   9.303  65.941  1.00  0.00    -0.116 A  
HETATM   12  I   UNL     1      -8.070   7.474  63.408  1.00  0.00     0.224 I  
HETATM   13  C   UNL     1      -8.188   7.940  65.529  1.00  0.00    -0.140 A  
BRANCH   8  14
HETATM   14  C   UNL     1      -8.063   5.474  66.063  1.00  0.00    -0.108 C  
HETATM   15  H   UNL     1      -6.542   4.232  65.975  1.00  0.00     0.000 HD 
HETATM   16  O   UNL     1      -6.778   5.119  66.218  1.00  0.00    -0.054 OA 
BRANCH  14  17
HETATM   17  N   UNL     1      -8.929   4.654  65.597  1.00  0.00    -0.133 NA 
HETATM   18  H   UNL     1      -9.694   4.982  65.006  1.00  0.00     0.000 HD 
BRANCH  17  19
HETATM   19  C   UNL     1      -8.794   3.228  65.932  1.00  0.00    -0.137 C  
BRANCH  19  20
HETATM   20  C   UNL     1      -9.113   2.383  64.693  1.00  0.00    -0.127 C  
HETATM   21  H   UNL     1     -10.420   2.424  63.220  1.00  0.00     0.000 HD 
HETATM   22  O   UNL     1     -10.222   2.949  63.987  1.00  0.00    -0.160 OA 
BRANCH  20  23
HETATM   23  C   UNL     1      -7.888   2.268  63.770  1.00  0.00    -0.068 C  
HETATM   24  O   UNL     1      -7.669   3.471  63.034  1.00  0.00    -0.064 OA 
HETATM   25  H   UNL     1      -6.912   3.400  62.464  1.00  0.00     0.000 HD 
ENDBRANCH  20  23
ENDBRANCH  19  20
ENDBRANCH  17  19
ENDBRANCH  14  17
ENDBRANCH   8  14
BRANCH  11  26
HETATM   26  C   UNL     1      -7.826  10.432  65.022  1.00  0.00    -0.109 C  
HETATM   27  O   UNL     1      -6.508  10.597  64.785  1.00  0.00    -0.343 OA 
HETATM   28  H   UNL     1      -6.273  11.311  64.204  1.00  0.00     0.000 HD 
BRANCH  26  29
HETATM   29  N   UNL     1      -8.687  11.244  64.531  1.00  0.00    -0.365 NA 
HETATM   30  H   UNL     1      -8.434  12.214  64.342  1.00  0.00     0.000 HD 
BRANCH  29  31
HETATM   31  C   UNL     1     -10.046  10.758  64.243  1.00  0.00    -0.361 C  
BRANCH  31  32
HETATM   32  C   UNL     1     -11.001  11.899  63.819  1.00  0.00    -0.425 C  
HETATM   33  O   UNL     1     -11.978  11.466  62.859  1.00  0.00    -0.898 OA 
HETATM   34  H   UNL     1     -12.565  12.167  62.599  1.00  0.00     0.000 HD 
BRANCH  32  35
HETATM   35  C   UNL     1     -11.752  12.447  65.045  1.00  0.00    -0.371 C  
HETATM   36  O   UNL     1     -13.149  12.609  64.800  1.00  0.00    -0.852 OA 
HETATM   37  H   UNL     1     -13.613  12.948  65.557  1.00  0.00     0.000 HD 
ENDBRANCH  32  35
ENDBRANCH  31  32
ENDBRANCH  29  31
ENDBRANCH  26  29
ENDBRANCH  11  26
ENDBRANCH   2   5
BRANCH   4  38
HETATM   38  C   UNL     1      -7.162   8.698  70.443  1.00  0.00    -0.045 C  
HETATM   39  O   UNL     1      -6.692   7.629  71.242  1.00  0.00    -0.048 OA 
HETATM   40  H   UNL     1      -5.755   7.503  71.142  1.00  0.00     0.000 HD 
ENDBRANCH   4  38
TORSDOF 12
ENDMDL
MODEL      115
REMARK 921   NORMALIZED FREE ENERGY PREDICTED BY IDOCK:   -3.73 KCAL/MOL
REMARK 922        TOTAL FREE ENERGY PREDICTED BY IDOCK:   -7.39 KCAL/MOL
REMARK 923 INTER-LIGAND FREE ENERGY PREDICTED BY IDOCK:   -6.13 KCAL/MOL
REMARK 924 INTRA-LIGAND FREE ENERGY PREDICTED BY IDOCK:   -1.27 KCAL/MOL
REMARK 927      BINDING AFFINITY PREDICTED BY RF-SCORE:    0.00 PKD
ROOT
HETATM    1  C   UNL     1      -8.716   7.102  65.295  1.00  0.00     0.096 C  
HETATM    2  N   UNL     1      -8.066   8.168  66.053  1.00  0.00    -0.106 N  
HETATM    3  O   UNL     1      -6.309   8.343  64.578  1.00  0.00    -0.064 OA 
HETATM    4  C   UNL     1      -6.850   8.703  65.620  1.00  0.00    -0.071 C  
ENDROOT
BRANCH   2   5
HETATM    5  C   UNL     1      -8.756   8.618  67.222  1.00  0.00    -0.129 A  
HETATM    6  I   UNL     1      -7.053   6.384  68.523  1.00  0.00    -0.089 I  
HETATM    7  C   UNL     1      -9.577   9.773  67.156  1.00  0.00    -0.169 A  
HETATM    8  C   UNL     1     -10.310  10.186  68.288  1.00  0.00    -0.215 A  
HETATM    9  C   UNL     1      -8.617   7.907  68.442  1.00  0.00    -0.128 A  
HETATM   10  I   UNL     1      -9.627  10.882  65.294  1.00  0.00    -0.338 I  
HETATM   11  C   UNL     1      -9.398   8.254  69.574  1.00  0.00    -0.158 A  
HETATM   12  I   UNL     1     -11.808   9.672  70.974  1.00  0.00    -0.470 I  
HETATM   13  C   UNL     1     -10.279   9.366  69.458  1.00  0.00    -0.209 A  
BRANCH   8  14
HETATM   14  C   UNL     1     -10.967  11.529  68.348  1.00  0.00    -0.221 C  
HETATM   15  H   UNL     1     -12.631  12.475  67.897  1.00  0.00     0.000 HD 
HETATM   16  O   UNL     1     -12.214  11.623  67.859  1.00  0.00    -0.560 OA 
BRANCH  14  17
HETATM   17  N   UNL     1     -10.364  12.549  68.833  1.00  0.00    -0.420 NA 
HETATM   18  H   UNL     1     -10.078  12.570  69.812  1.00  0.00     0.000 HD 
BRANCH  17  19
HETATM   19  C   UNL     1     -10.092  13.689  67.944  1.00  0.00    -0.244 C  
BRANCH  19  20
HETATM   20  C   UNL     1     -10.749  14.949  68.519  1.00  0.00    -0.245 C  
HETATM   21  H   UNL     1     -12.557  15.509  69.065  1.00  0.00     0.000 HD 
HETATM   22  O   UNL     1     -12.151  14.728  68.708  1.00  0.00    -0.272 OA 
BRANCH  20  23
HETATM   23  C   UNL     1     -10.086  15.364  69.844  1.00  0.00    -0.240 C  
HETATM   24  O   UNL     1     -10.817  14.885  70.972  1.00  0.00    -0.545 OA 
HETATM   25  H   UNL     1     -10.408  15.142  71.790  1.00  0.00     0.000 HD 
ENDBRANCH  20  23
ENDBRANCH  19  20
ENDBRANCH  17  19
ENDBRANCH  14  17
ENDBRANCH   8  14
BRANCH  11  26
HETATM   26  C   UNL     1      -9.267   7.451  70.837  1.00  0.00    -0.154 C  
HETATM   27  O   UNL     1     -10.051   6.357  70.930  1.00  0.00    -0.184 OA 
HETATM   28  H   UNL     1      -9.968   5.849  71.729  1.00  0.00     0.000 HD 
BRANCH  26  29
HETATM   29  N   UNL     1      -8.511   7.800  71.811  1.00  0.00    -0.108 NA 
HETATM   30  H   UNL     1      -8.215   8.770  71.915  1.00  0.00     0.000 HD 
BRANCH  29  31
HETATM   31  C   UNL     1      -8.075   6.780  72.779  1.00  0.00    -0.106 C  
BRANCH  31  32
HETATM   32  C   UNL     1      -6.535   6.698  72.894  1.00  0.00    -0.066 C  
HETATM   33  O   UNL     1      -5.989   5.589  72.162  1.00  0.00    -0.028 OA 
HETATM   34  H   UNL     1      -5.043   5.538  72.233  1.00  0.00     0.000 HD 
BRANCH  32  35
HETATM   35  C   UNL     1      -5.891   7.986  72.353  1.00  0.00    -0.043 C  
HETATM   36  O   UNL     1      -6.170   9.121  73.174  1.00  0.00    -0.302 OA 
HETATM   37  H   UNL     1      -5.772   9.916  72.840  1.00  0.00     0.000 HD 
ENDBRANCH  32  35
ENDBRANCH  31  32
ENDBRANCH  29  31
ENDBRANCH  26  29
ENDBRANCH  11  26
ENDBRANCH   2   5
BRANCH   4  38
HETATM   38  C   UNL     1      -6.167   9.759  66.508  1.00  0.00    -0.068 C  
HETATM   39  O   UNL     1      -6.005  10.987  65.825  1.00  0.00    -0.271 OA 
HETATM   40  H   UNL     1      -5.583  11.639  66.373  1.00  0.00     0.000 HD 
ENDBRANCH   4  38
TORSDOF 12
ENDMDL
MODEL      116
REMARK 921   NORMALIZED FREE ENERGY PREDICTED BY IDOCK:   -3.71 KCAL/MOL
REMARK 922        TOTAL FREE ENERGY PREDICTED BY IDOCK:   -7.36 KCAL/MOL
REMARK 923 INTER-LIGAND FREE ENERGY PREDICTED BY IDOCK:   -6.48 KCAL/MOL
REMARK 924 INTRA-LIGAND FREE ENERGY PREDICTED BY IDOCK:   -0.87 KCAL/MOL
REMARK 927      BINDING AFFINITY PREDICTED BY RF-SCORE:    0.00 PKD
ROOT
HETATM    1  C   UNL     1      -5.667  16.110  67.195  1.00  0.00     0.008 C  
HETATM    2  N   UNL     1      -6.406  15.412  68.242  1.00  0.00    -0.110 N  
HETATM    3  O   UNL     1      -5.170  16.349  69.942  1.00  0.00    -0.133 OA 
HETATM    4  C   UNL     1      -6.060  15.581  69.586  1.00  0.00    -0.150 C  
ENDROOT
BRANCH   2   5
HETATM    5  C   UNL     1      -7.486  14.583  67.803  1.00  0.00    -0.169 A  
HETATM    6  I   UNL     1      -5.292  12.408  68.018  1.00  0.00    -0.103 I  
HETATM    7  C   UNL     1      -8.794  15.122  67.700  1.00  0.00    -0.173 A  
HETATM    8  C   UNL     1      -9.850  14.329  67.208  1.00  0.00    -0.244 A  
HETATM    9  C   UNL     1      -7.243  13.224  67.471  1.00  0.00    -0.150 A  
HETATM   10  I   UNL     1      -9.107  17.164  68.359  1.00  0.00    -0.256 I  
HETATM   11  C   UNL     1      -8.268  12.425  66.903  1.00  0.00    -0.089 A  
HETATM   12  I   UNL     1     -11.021  12.015  65.476  1.00  0.00    -0.332 I  
HETATM   13  C   UNL     1      -9.553  13.015  66.731  1.00  0.00    -0.248 A  
BRANCH   8  14
HETATM   14  C   UNL     1     -11.278  14.760  67.333  1.00  0.00    -0.339 C  
HETATM   15  H   UNL     1     -12.686  15.784  66.420  1.00  0.00     0.000 HD 
HETATM   16  O   UNL     1     -11.780  15.511  66.340  1.00  0.00     0.074 OA 
BRANCH  14  17
HETATM   17  N   UNL     1     -11.987  14.439  68.349  1.00  0.00    -0.502 NA 
HETATM   18  H   UNL     1     -12.560  13.594  68.341  1.00  0.00     0.000 HD 
BRANCH  17  19
HETATM   19  C   UNL     1     -11.957  15.316  69.529  1.00  0.00    -0.330 C  
BRANCH  19  20
HETATM   20  C   UNL     1     -12.780  14.681  70.656  1.00  0.00    -0.357 C  
HETATM   21  H   UNL     1     -12.835  12.952  71.600  1.00  0.00     0.000 HD 
HETATM   22  O   UNL     1     -12.324  13.346  70.902  1.00  0.00    -0.366 OA 
BRANCH  20  23
HETATM   23  C   UNL     1     -12.703  15.522  71.942  1.00  0.00    -0.417 C  
HETATM   24  O   UNL     1     -11.596  16.422  71.917  1.00  0.00    -0.481 OA 
HETATM   25  H   UNL     1     -11.549  16.941  72.711  1.00  0.00     0.000 HD 
ENDBRANCH  20  23
ENDBRANCH  19  20
ENDBRANCH  17  19
ENDBRANCH  14  17
ENDBRANCH   8  14
BRANCH  11  26
HETATM   26  C   UNL     1      -7.969  11.006  66.514  1.00  0.00    -0.158 C  
HETATM   27  O   UNL     1      -8.154  10.075  67.474  1.00  0.00    -0.109 OA 
HETATM   28  H   UNL     1      -7.965   9.177  67.228  1.00  0.00     0.000 HD 
BRANCH  26  29
HETATM   29  N   UNL     1      -7.501  10.679  65.367  1.00  0.00    -0.316 NA 
HETATM   30  H   UNL     1      -7.486  11.355  64.603  1.00  0.00     0.000 HD 
BRANCH  29  31
HETATM   31  C   UNL     1      -6.984   9.317  65.167  1.00  0.00    -0.085 C  
BRANCH  31  32
HETATM   32  C   UNL     1      -8.016   8.389  64.483  1.00  0.00    -0.146 C  
HETATM   33  O   UNL     1      -9.251   8.312  65.212  1.00  0.00    -0.405 OA 
HETATM   34  H   UNL     1      -9.885   7.743  64.792  1.00  0.00     0.000 HD 
BRANCH  32  35
HETATM   35  C   UNL     1      -8.333   8.900  63.067  1.00  0.00    -0.190 C  
HETATM   36  O   UNL     1      -9.095  10.107  63.081  1.00  0.00    -0.229 OA 
HETATM   37  H   UNL     1      -9.292  10.422  62.206  1.00  0.00     0.000 HD 
ENDBRANCH  32  35
ENDBRANCH  31  32
ENDBRANCH  29  31
ENDBRANCH  26  29
ENDBRANCH  11  26
ENDBRANCH   2   5
BRANCH   4  38
HETATM   38  C   UNL     1      -6.815  14.749  70.639  1.00  0.00     0.344 C  
HETATM   39  O   UNL     1      -5.926  13.992  71.438  1.00  0.00    -0.321 OA 
HETATM   40  H   UNL     1      -6.392  13.478  72.088  1.00  0.00     0.000 HD 
ENDBRANCH   4  38
TORSDOF 12
ENDMDL
MODEL      117
REMARK 921   NORMALIZED FREE ENERGY PREDICTED BY IDOCK:   -3.71 KCAL/MOL
REMARK 922        TOTAL FREE ENERGY PREDICTED BY IDOCK:   -7.36 KCAL/MOL
REMARK 923 INTER-LIGAND FREE ENERGY PREDICTED BY IDOCK:   -6.27 KCAL/MOL
REMARK 924 INTRA-LIGAND FREE ENERGY PREDICTED BY IDOCK:   -1.09 KCAL/MOL
REMARK 927      BINDING AFFINITY PREDICTED BY RF-SCORE:    0.00 PKD
ROOT
HETATM    1  C   UNL     1      -9.028   8.222  72.368  1.00  0.00    -0.228 C  
HETATM    2  N   UNL     1      -9.918   7.818  71.283  1.00  0.00    -0.175 N  
HETATM    3  O   UNL     1     -11.381   6.737  72.691  1.00  0.00    -0.259 OA 
HETATM    4  C   UNL     1     -11.057   7.054  71.550  1.00  0.00    -0.243 C  
ENDROOT
BRANCH   2   5
HETATM    5  C   UNL     1      -9.554   8.264  69.973  1.00  0.00    -0.168 A  
HETATM    6  I   UNL     1      -8.195   5.482  69.907  1.00  0.00    -0.108 I  
HETATM    7  C   UNL     1     -10.090   9.476  69.466  1.00  0.00    -0.206 A  
HETATM    8  C   UNL     1      -9.687   9.954  68.202  1.00  0.00    -0.161 A  
HETATM    9  C   UNL     1      -8.659   7.493  69.187  1.00  0.00    -0.136 A  
HETATM   10  I   UNL     1     -11.557  10.523  70.671  1.00  0.00    -0.236 I  
HETATM   11  C   UNL     1      -8.178   7.984  67.947  1.00  0.00    -0.129 A  
HETATM   12  I   UNL     1      -7.654  10.251  65.857  1.00  0.00    -0.130 I  
HETATM   13  C   UNL     1      -8.666   9.244  67.497  1.00  0.00    -0.115 A  
BRANCH   8  14
HETATM   14  C   UNL     1     -10.415  11.068  67.518  1.00  0.00    -0.209 C  
HETATM   15  H   UNL     1     -12.047  11.473  66.500  1.00  0.00     0.000 HD 
HETATM   16  O   UNL     1     -11.585  10.766  66.934  1.00  0.00    -0.255 OA 
BRANCH  14  17
HETATM   17  N   UNL     1      -9.938  12.255  67.478  1.00  0.00    -0.197 NA 
HETATM   18  H   UNL     1      -9.225  12.554  68.144  1.00  0.00     0.000 HD 
BRANCH  17  19
HETATM   19  C   UNL     1     -10.443  13.178  66.450  1.00  0.00    -0.282 C  
BRANCH  19  20
HETATM   20  C   UNL     1     -10.629  14.571  67.065  1.00  0.00    -0.278 C  
HETATM   21  H   UNL     1     -10.571  16.438  66.442  1.00  0.00     0.000 HD 
HETATM   22  O   UNL     1     -10.456  15.576  66.060  1.00  0.00    -0.292 OA 
BRANCH  20  23
HETATM   23  C   UNL     1     -12.010  14.704  67.729  1.00  0.00    -0.268 C  
HETATM   24  O   UNL     1     -12.180  13.761  68.786  1.00  0.00    -0.400 OA 
HETATM   25  H   UNL     1     -13.034  13.843  69.196  1.00  0.00     0.000 HD 
ENDBRANCH  20  23
ENDBRANCH  19  20
ENDBRANCH  17  19
ENDBRANCH  14  17
ENDBRANCH   8  14
BRANCH  11  26
HETATM   26  C   UNL     1      -7.192   7.169  67.161  1.00  0.00    -0.085 C  
HETATM   27  O   UNL     1      -5.904   7.251  67.556  1.00  0.00    -0.027 OA 
HETATM   28  H   UNL     1      -5.280   6.736  67.058  1.00  0.00     0.000 HD 
BRANCH  26  29
HETATM   29  N   UNL     1      -7.518   6.479  66.131  1.00  0.00    -0.080 NA 
HETATM   30  H   UNL     1      -6.826   6.258  65.416  1.00  0.00     0.000 HD 
BRANCH  29  31
HETATM   31  C   UNL     1      -8.906   6.011  65.995  1.00  0.00    -0.153 C  
BRANCH  31  32
HETATM   32  C   UNL     1      -9.007   4.467  65.966  1.00  0.00    -0.122 C  
HETATM   33  O   UNL     1     -10.298   3.995  66.383  1.00  0.00    -0.368 OA 
HETATM   34  H   UNL     1     -10.360   3.047  66.366  1.00  0.00     0.000 HD 
BRANCH  32  35
HETATM   35  C   UNL     1      -8.748   3.943  64.543  1.00  0.00    -0.120 C  
HETATM   36  O   UNL     1      -7.484   4.366  64.029  1.00  0.00    -0.061 OA 
HETATM   37  H   UNL     1      -7.324   4.042  63.151  1.00  0.00     0.000 HD 
ENDBRANCH  32  35
ENDBRANCH  31  32
ENDBRANCH  29  31
ENDBRANCH  26  29
ENDBRANCH  11  26
ENDBRANCH   2   5
BRANCH   4  38
HETATM   38  C   UNL     1     -11.907   6.580  70.356  1.00  0.00    -0.313 C  
HETATM   39  O   UNL     1     -13.258   6.977  70.489  1.00  0.00    -0.461 OA 
HETATM   40  H   UNL     1     -13.783   6.684  69.753  1.00  0.00     0.000 HD 
ENDBRANCH   4  38
TORSDOF 12
ENDMDL
MODEL      118
REMARK 921   NORMALIZED FREE ENERGY PREDICTED BY IDOCK:   -3.67 KCAL/MOL
REMARK 922        TOTAL FREE ENERGY PREDICTED BY IDOCK:   -7.28 KCAL/MOL
REMARK 923 INTER-LIGAND FREE ENERGY PREDICTED BY IDOCK:   -6.30 KCAL/MOL
REMARK 924 INTRA-LIGAND FREE ENERGY PREDICTED BY IDOCK:   -0.98 KCAL/MOL
REMARK 927      BINDING AFFINITY PREDICTED BY RF-SCORE:    0.00 PKD
ROOT
HETATM    1  C   UNL     1      -6.201  11.083  66.784  1.00  0.00    -0.110 C  
HETATM    2  N   UNL     1      -7.156   9.979  66.831  1.00  0.00    -0.089 N  
HETATM    3  O   UNL     1      -6.348   9.005  64.910  1.00  0.00    -0.065 OA 
HETATM    4  C   UNL     1      -7.162   9.005  65.830  1.00  0.00    -0.089 C  
ENDROOT
BRANCH   2   5
HETATM    5  C   UNL     1      -8.044   9.964  67.953  1.00  0.00    -0.109 A  
HETATM    6  I   UNL     1      -5.626   8.535  69.258  1.00  0.00    -0.035 I  
HETATM    7  C   UNL     1      -9.277  10.662  67.887  1.00  0.00    -0.148 A  
HETATM    8  C   UNL     1     -10.184  10.599  68.965  1.00  0.00    -0.231 A  
HETATM    9  C   UNL     1      -7.686   9.251  69.127  1.00  0.00    -0.078 A  
HETATM   10  I   UNL     1      -9.686  11.842  66.114  1.00  0.00    -0.264 I  
HETATM   11  C   UNL     1      -8.608   9.108  70.195  1.00  0.00    -0.195 A  
HETATM   12  I   UNL     1     -11.476   9.210  71.439  1.00  0.00    -0.487 I  
HETATM   13  C   UNL     1      -9.874   9.748  70.070  1.00  0.00    -0.251 A  
BRANCH   8  14
HETATM   14  C   UNL     1     -11.359  11.522  69.054  1.00  0.00    -0.276 C  
HETATM   15  H   UNL     1     -13.255  11.689  68.560  1.00  0.00     0.000 HD 
HETATM   16  O   UNL     1     -12.509  11.103  68.503  1.00  0.00    -0.452 OA 
BRANCH  14  17
HETATM   17  N   UNL     1     -11.270  12.667  69.619  1.00  0.00    -0.478 NA 
HETATM   18  H   UNL     1     -10.760  12.779  70.496  1.00  0.00     0.000 HD 
BRANCH  17  19
HETATM   19  C   UNL     1     -11.920  13.818  68.974  1.00  0.00    -0.360 C  
BRANCH  19  20
HETATM   20  C   UNL     1     -10.916  14.972  68.864  1.00  0.00    -0.252 C  
HETATM   21  H   UNL     1      -8.957  15.174  68.787  1.00  0.00     0.000 HD 
HETATM   22  O   UNL     1      -9.579  14.459  68.855  1.00  0.00    -0.198 OA 
BRANCH  20  23
HETATM   23  C   UNL     1     -11.177  15.817  67.605  1.00  0.00    -0.246 C  
HETATM   24  O   UNL     1     -10.042  15.837  66.740  1.00  0.00    -0.257 OA 
HETATM   25  H   UNL     1     -10.203  16.359  65.962  1.00  0.00     0.000 HD 
ENDBRANCH  20  23
ENDBRANCH  19  20
ENDBRANCH  17  19
ENDBRANCH  14  17
ENDBRANCH   8  14
BRANCH  11  26
HETATM   26  C   UNL     1      -8.221   8.305  71.403  1.00  0.00    -0.131 C  
HETATM   27  O   UNL     1      -7.406   8.916  72.288  1.00  0.00    -0.328 OA 
HETATM   28  H   UNL     1      -7.161   8.408  73.052  1.00  0.00     0.000 HD 
BRANCH  26  29
HETATM   29  N   UNL     1      -8.577   7.086  71.575  1.00  0.00    -0.117 NA 
HETATM   30  H   UNL     1      -8.712   6.714  72.515  1.00  0.00     0.000 HD 
BRANCH  29  31
HETATM   31  C   UNL     1      -8.789   6.230  70.397  1.00  0.00    -0.147 C  
BRANCH  31  32
HETATM   32  C   UNL     1      -9.851   5.134  70.649  1.00  0.00    -0.205 C  
HETATM   33  O   UNL     1      -9.978   4.230  69.540  1.00  0.00    -0.200 OA 
HETATM   34  H   UNL     1     -10.631   3.556  69.694  1.00  0.00     0.000 HD 
BRANCH  32  35
HETATM   35  C   UNL     1      -9.479   4.308  71.892  1.00  0.00    -0.142 C  
HETATM   36  O   UNL     1      -9.806   4.979  73.109  1.00  0.00    -0.149 OA 
HETATM   37  H   UNL     1      -9.576   4.469  73.877  1.00  0.00     0.000 HD 
ENDBRANCH  32  35
ENDBRANCH  31  32
ENDBRANCH  29  31
ENDBRANCH  26  29
ENDBRANCH  11  26
ENDBRANCH   2   5
BRANCH   4  38
HETATM   38  C   UNL     1      -8.251   7.918  65.883  1.00  0.00    -0.126 C  
HETATM   39  O   UNL     1      -7.704   6.646  66.175  1.00  0.00    -0.090 OA 
HETATM   40  H   UNL     1      -8.376   5.975  66.208  1.00  0.00     0.000 HD 
ENDBRANCH   4  38
TORSDOF 12
ENDMDL
MODEL      119
REMARK 921   NORMALIZED FREE ENERGY PREDICTED BY IDOCK:   -3.66 KCAL/MOL
REMARK 922        TOTAL FREE ENERGY PREDICTED BY IDOCK:   -7.27 KCAL/MOL
REMARK 923 INTER-LIGAND FREE ENERGY PREDICTED BY IDOCK:   -7.62 KCAL/MOL
REMARK 924 INTRA-LIGAND FREE ENERGY PREDICTED BY IDOCK:    0.35 KCAL/MOL
REMARK 927      BINDING AFFINITY PREDICTED BY RF-SCORE:    0.00 PKD
ROOT
HETATM    1  C   UNL     1      -9.023  14.097  66.339  1.00  0.00    -0.037 C  
HETATM    2  N   UNL     1      -9.743  12.834  66.204  1.00  0.00    -0.260 N  
HETATM    3  O   UNL     1      -9.845  12.972  63.909  1.00  0.00    -0.220 OA 
HETATM    4  C   UNL     1     -10.131  12.373  64.943  1.00  0.00    -0.236 C  
ENDROOT
BRANCH   2   5
HETATM    5  C   UNL     1      -9.997  12.122  67.418  1.00  0.00    -0.199 A  
HETATM    6  I   UNL     1      -7.384  10.688  66.580  1.00  0.00    -0.144 I  
HETATM    7  C   UNL     1     -11.052  12.535  68.271  1.00  0.00    -0.257 A  
HETATM    8  C   UNL     1     -11.349  11.800  69.437  1.00  0.00    -0.337 A  
HETATM    9  C   UNL     1      -9.194  11.004  67.762  1.00  0.00    -0.155 A  
HETATM   10  I   UNL     1     -12.142  14.334  67.745  1.00  0.00     0.117 I  
HETATM   11  C   UNL     1      -9.514  10.202  68.887  1.00  0.00    -0.183 A  
HETATM   12  I   UNL     1     -11.441   9.183  71.130  1.00  0.00    -0.467 I  
HETATM   13  C   UNL     1     -10.631  10.589  69.682  1.00  0.00    -0.242 A  
BRANCH   8  14
HETATM   14  C   UNL     1     -12.260  12.342  70.494  1.00  0.00    -0.300 C  
HETATM   15  H   UNL     1     -13.896  11.933  71.504  1.00  0.00     0.000 HD 
HETATM   16  O   UNL     1     -13.318  11.589  70.834  1.00  0.00     0.108 OA 
BRANCH  14  17
HETATM   17  N   UNL     1     -12.048  13.479  71.043  1.00  0.00    -0.460 NA 
HETATM   18  H   UNL     1     -11.133  13.709  71.432  1.00  0.00     0.000 HD 
BRANCH  17  19
HETATM   19  C   UNL     1     -13.154  14.446  71.098  1.00  0.00    -0.352 C  
BRANCH  19  20
HETATM   20  C   UNL     1     -13.133  15.166  72.452  1.00  0.00    -0.375 C  
HETATM   21  H   UNL     1     -12.999  14.656  74.350  1.00  0.00     0.000 HD 
HETATM   22  O   UNL     1     -13.013  14.210  73.511  1.00  0.00    -0.468 OA 
BRANCH  20  23
HETATM   23  C   UNL     1     -11.988  16.190  72.518  1.00  0.00    -0.561 C  
HETATM   24  O   UNL     1     -11.531  16.555  71.216  1.00  0.00    -0.554 OA 
HETATM   25  H   UNL     1     -10.824  17.188  71.257  1.00  0.00     0.000 HD 
ENDBRANCH  20  23
ENDBRANCH  19  20
ENDBRANCH  17  19
ENDBRANCH  14  17
ENDBRANCH   8  14
BRANCH  11  26
HETATM   26  C   UNL     1      -8.676   8.996  69.199  1.00  0.00    -0.135 C  
HETATM   27  O   UNL     1      -7.564   9.217  69.930  1.00  0.00    -0.073 OA 
HETATM   28  H   UNL     1      -7.033   8.454  70.127  1.00  0.00     0.000 HD 
BRANCH  26  29
HETATM   29  N   UNL     1      -8.944   7.825  68.752  1.00  0.00    -0.141 NA 
HETATM   30  H   UNL     1      -9.615   7.228  69.235  1.00  0.00     0.000 HD 
BRANCH  29  31
HETATM   31  C   UNL     1      -8.271   7.354  67.532  1.00  0.00    -0.113 C  
BRANCH  31  32
HETATM   32  C   UNL     1      -9.273   6.940  66.428  1.00  0.00    -0.152 C  
HETATM   33  O   UNL     1      -8.784   7.228  65.109  1.00  0.00    -0.348 OA 
HETATM   34  H   UNL     1      -9.400   6.975  64.431  1.00  0.00     0.000 HD 
BRANCH  32  35
HETATM   35  C   UNL     1      -9.558   5.430  66.508  1.00  0.00    -0.156 C  
HETATM   36  O   UNL     1     -10.445   4.989  65.480  1.00  0.00    -0.443 OA 
HETATM   37  H   UNL     1     -10.622   4.057  65.529  1.00  0.00     0.000 HD 
ENDBRANCH  32  35
ENDBRANCH  31  32
ENDBRANCH  29  31
ENDBRANCH  26  29
ENDBRANCH  11  26
ENDBRANCH   2   5
BRANCH   4  38
HETATM   38  C   UNL     1     -10.967  11.082  64.869  1.00  0.00    -0.060 C  
HETATM   39  O   UNL     1     -10.186   9.979  64.450  1.00  0.00    -0.416 OA 
HETATM   40  H   UNL     1     -10.703   9.182  64.404  1.00  0.00     0.000 HD 
ENDBRANCH   4  38
TORSDOF 12
ENDMDL
MODEL      120
REMARK 921   NORMALIZED FREE ENERGY PREDICTED BY IDOCK:   -3.64 KCAL/MOL
REMARK 922        TOTAL FREE ENERGY PREDICTED BY IDOCK:   -7.23 KCAL/MOL
REMARK 923 INTER-LIGAND FREE ENERGY PREDICTED BY IDOCK:   -5.16 KCAL/MOL
REMARK 924 INTRA-LIGAND FREE ENERGY PREDICTED BY IDOCK:   -2.07 KCAL/MOL
REMARK 927      BINDING AFFINITY PREDICTED BY RF-SCORE:    0.00 PKD
ROOT
HETATM    1  C   UNL     1     -12.342   9.751  72.076  1.00  0.00    -0.256 C  
HETATM    2  N   UNL     1     -11.646   8.665  71.392  1.00  0.00    -0.277 N  
HETATM    3  O   UNL     1     -13.561   7.422  71.108  1.00  0.00    -0.307 OA 
HETATM    4  C   UNL     1     -12.345   7.531  70.970  1.00  0.00    -0.235 C  
ENDROOT
BRANCH   2   5
HETATM    5  C   UNL     1     -10.244   8.854  71.178  1.00  0.00    -0.266 A  
HETATM    6  I   UNL     1     -10.088   6.888  73.566  1.00  0.00    -0.417 I  
HETATM    7  C   UNL     1      -9.794   9.590  70.053  1.00  0.00    -0.233 A  
HETATM    8  C   UNL     1      -8.417   9.834  69.871  1.00  0.00    -0.217 A  
HETATM    9  C   UNL     1      -9.310   8.304  72.094  1.00  0.00    -0.234 A  
HETATM   10  I   UNL     1     -11.276  10.277  68.627  1.00  0.00    -0.100 I  
HETATM   11  C   UNL     1      -7.927   8.594  71.979  1.00  0.00    -0.115 A  
HETATM   12  I   UNL     1      -5.504  10.252  70.901  1.00  0.00    -0.043 I  
HETATM   13  C   UNL     1      -7.508   9.407  70.887  1.00  0.00    -0.072 A  
BRANCH   8  14
HETATM   14  C   UNL     1      -7.879  10.363  68.578  1.00  0.00    -0.107 C  
HETATM   15  H   UNL     1      -7.241  12.007  67.709  1.00  0.00     0.000 HD 
HETATM   16  O   UNL     1      -7.582  11.671  68.529  1.00  0.00    -0.114 OA 
BRANCH  14  17
HETATM   17  N   UNL     1      -7.721   9.606  67.558  1.00  0.00    -0.095 NA 
HETATM   18  H   UNL     1      -8.489   9.437  66.908  1.00  0.00     0.000 HD 
BRANCH  17  19
HETATM   19  C   UNL     1      -6.405   8.984  67.347  1.00  0.00    -0.060 C  
BRANCH  19  20
HETATM   20  C   UNL     1      -6.565   7.459  67.301  1.00  0.00    -0.061 C  
HETATM   21  H   UNL     1      -6.380   5.954  68.559  1.00  0.00     0.000 HD 
HETATM   22  O   UNL     1      -6.281   6.899  68.588  1.00  0.00    -0.025 OA 
BRANCH  20  23
HETATM   23  C   UNL     1      -7.979   7.064  66.842  1.00  0.00    -0.115 C  
HETATM   24  O   UNL     1      -8.878   6.945  67.944  1.00  0.00    -0.124 OA 
HETATM   25  H   UNL     1      -9.751   6.701  67.660  1.00  0.00     0.000 HD 
ENDBRANCH  20  23
ENDBRANCH  19  20
ENDBRANCH  17  19
ENDBRANCH  14  17
ENDBRANCH   8  14
BRANCH  11  26
HETATM   26  C   UNL     1      -6.967   8.040  72.993  1.00  0.00    -0.097 C  
HETATM   27  O   UNL     1      -6.851   8.735  74.143  1.00  0.00    -0.310 OA 
HETATM   28  H   UNL     1      -6.244   8.385  74.785  1.00  0.00     0.000 HD 
BRANCH  26  29
HETATM   29  N   UNL     1      -6.242   7.007  72.776  1.00  0.00    -0.052 NA 
HETATM   30  H   UNL     1      -5.610   6.977  71.976  1.00  0.00     0.000 HD 
BRANCH  29  31
HETATM   31  C   UNL     1      -6.333   5.863  73.697  1.00  0.00    -0.068 C  
BRANCH  31  32
HETATM   32  C   UNL     1      -6.520   4.520  72.953  1.00  0.00    -0.041 C  
HETATM   33  O   UNL     1      -7.848   3.993  73.101  1.00  0.00    -0.081 OA 
HETATM   34  H   UNL     1      -7.963   3.168  72.644  1.00  0.00     0.000 HD 
BRANCH  32  35
HETATM   35  C   UNL     1      -6.248   4.703  71.449  1.00  0.00    -0.018 C  
HETATM   36  O   UNL     1      -7.377   5.231  70.752  1.00  0.00    -0.069 OA 
HETATM   37  H   UNL     1      -7.209   5.343  69.824  1.00  0.00     0.000 HD 
ENDBRANCH  32  35
ENDBRANCH  31  32
ENDBRANCH  29  31
ENDBRANCH  26  29
ENDBRANCH  11  26
ENDBRANCH   2   5
BRANCH   4  38
HETATM   38  C   UNL     1     -11.544   6.379  70.337  1.00  0.00    -0.373 C  
HETATM   39  O   UNL     1     -11.650   6.384  68.926  1.00  0.00    -0.576 OA 
HETATM   40  H   UNL     1     -11.155   5.673  68.536  1.00  0.00     0.000 HD 
ENDBRANCH   4  38
TORSDOF 12
ENDMDL
MODEL      121
REMARK 921   NORMALIZED FREE ENERGY PREDICTED BY IDOCK:   -3.61 KCAL/MOL
REMARK 922        TOTAL FREE ENERGY PREDICTED BY IDOCK:   -7.19 KCAL/MOL
REMARK 923 INTER-LIGAND FREE ENERGY PREDICTED BY IDOCK:   -6.57 KCAL/MOL
REMARK 924 INTRA-LIGAND FREE ENERGY PREDICTED BY IDOCK:   -0.61 KCAL/MOL
REMARK 927      BINDING AFFINITY PREDICTED BY RF-SCORE:    0.00 PKD
ROOT
HETATM    1  C   UNL     1     -11.877  14.835  67.136  1.00  0.00    -0.286 C  
HETATM    2  N   UNL     1     -11.215  14.768  68.435  1.00  0.00    -0.271 N  
HETATM    3  O   UNL     1     -13.007  15.673  69.558  1.00  0.00     0.192 OA 
HETATM    4  C   UNL     1     -11.859  15.237  69.583  1.00  0.00    -0.339 C  
ENDROOT
BRANCH   2   5
HETATM    5  C   UNL     1      -9.907  14.187  68.445  1.00  0.00    -0.231 A  
HETATM    6  I   UNL     1      -9.087  17.173  68.495  1.00  0.00    -0.213 I  
HETATM    7  C   UNL     1      -9.759  12.783  68.580  1.00  0.00    -0.126 A  
HETATM    8  C   UNL     1      -8.477  12.198  68.526  1.00  0.00    -0.083 A  
HETATM    9  C   UNL     1      -8.764  15.019  68.320  1.00  0.00    -0.166 A  
HETATM   10  I   UNL     1     -11.545  11.598  68.907  1.00  0.00    -0.422 I  
HETATM   11  C   UNL     1      -7.470  14.454  68.188  1.00  0.00    -0.128 A  
HETATM   12  I   UNL     1      -5.500  12.096  67.607  1.00  0.00    -0.117 I  
HETATM   13  C   UNL     1      -7.355  13.036  68.241  1.00  0.00    -0.116 A  
BRANCH   8  14
HETATM   14  C   UNL     1      -8.249  10.774  68.928  1.00  0.00    -0.149 C  
HETATM   15  H   UNL     1      -8.118   8.950  68.207  1.00  0.00     0.000 HD 
HETATM   16  O   UNL     1      -8.263   9.854  67.952  1.00  0.00    -0.112 OA 
BRANCH  14  17
HETATM   17  N   UNL     1      -8.060  10.446  70.151  1.00  0.00    -0.387 NA 
HETATM   18  H   UNL     1      -7.386  10.948  70.729  1.00  0.00     0.000 HD 
BRANCH  17  19
HETATM   19  C   UNL     1      -8.841   9.327  70.703  1.00  0.00    -0.237 C  
BRANCH  19  20
HETATM   20  C   UNL     1      -7.924   8.441  71.555  1.00  0.00    -0.130 C  
HETATM   21  H   UNL     1      -6.175   8.615  72.445  1.00  0.00     0.000 HD 
HETATM   22  O   UNL     1      -6.743   9.165  71.917  1.00  0.00    -0.268 OA 
BRANCH  20  23
HETATM   23  C   UNL     1      -8.654   7.937  72.813  1.00  0.00    -0.170 C  
HETATM   24  O   UNL     1     -10.059   7.821  72.596  1.00  0.00    -0.214 OA 
HETATM   25  H   UNL     1     -10.510   7.510  73.373  1.00  0.00     0.000 HD 
ENDBRANCH  20  23
ENDBRANCH  19  20
ENDBRANCH  17  19
ENDBRANCH  14  17
ENDBRANCH   8  14
BRANCH  11  26
HETATM   26  C   UNL     1      -6.284  15.358  68.005  1.00  0.00    -0.141 C  
HETATM   27  O   UNL     1      -6.129  15.893  66.777  1.00  0.00    -0.234 OA 
HETATM   28  H   UNL     1      -5.379  16.465  66.660  1.00  0.00     0.000 HD 
BRANCH  26  29
HETATM   29  N   UNL     1      -5.420  15.571  68.927  1.00  0.00    -0.098 NA 
HETATM   30  H   UNL     1      -4.525  15.083  68.920  1.00  0.00     0.000 HD 
BRANCH  29  31
HETATM   31  C   UNL     1      -5.736  16.531  69.996  1.00  0.00    -0.206 C  
BRANCH  31  32
HETATM   32  C   UNL     1      -5.196  17.949  69.694  1.00  0.00    -0.191 C  
HETATM   33  O   UNL     1      -5.536  18.394  68.371  1.00  0.00    -0.169 OA 
HETATM   34  H   UNL     1      -5.204  19.265  68.185  1.00  0.00     0.000 HD 
BRANCH  32  35
HETATM   35  C   UNL     1      -5.771  18.963  70.697  1.00  0.00    -0.141 C  
HETATM   36  O   UNL     1      -5.211  18.815  72.002  1.00  0.00    -0.744 OA 
HETATM   37  H   UNL     1      -5.567  19.441  72.622  1.00  0.00     0.000 HD 
ENDBRANCH  32  35
ENDBRANCH  31  32
ENDBRANCH  29  31
ENDBRANCH  26  29
ENDBRANCH  11  26
ENDBRANCH   2   5
BRANCH   4  38
HETATM   38  C   UNL     1     -11.078  15.226  70.909  1.00  0.00    -0.301 C  
HETATM   39  O   UNL     1     -11.747  14.472  71.902  1.00  0.00    -0.373 OA 
HETATM   40  H   UNL     1     -11.264  14.465  72.720  1.00  0.00     0.000 HD 
ENDBRANCH   4  38
TORSDOF 12
ENDMDL
MODEL      122
REMARK 921   NORMALIZED FREE ENERGY PREDICTED BY IDOCK:   -3.61 KCAL/MOL
REMARK 922        TOTAL FREE ENERGY PREDICTED BY IDOCK:   -7.18 KCAL/MOL
REMARK 923 INTER-LIGAND FREE ENERGY PREDICTED BY IDOCK:   -6.21 KCAL/MOL
REMARK 924 INTRA-LIGAND FREE ENERGY PREDICTED BY IDOCK:   -0.96 KCAL/MOL
REMARK 927      BINDING AFFINITY PREDICTED BY RF-SCORE:    0.00 PKD
ROOT
HETATM    1  C   UNL     1      -8.887   8.767  71.168  1.00  0.00    -0.219 C  
HETATM    2  N   UNL     1      -9.610   8.917  69.909  1.00  0.00    -0.172 N  
HETATM    3  O   UNL     1     -11.151  10.374  70.800  1.00  0.00    -0.304 OA 
HETATM    4  C   UNL     1     -10.747   9.727  69.838  1.00  0.00    -0.268 C  
ENDROOT
BRANCH   2   5
HETATM    5  C   UNL     1      -9.073   8.210  68.787  1.00  0.00    -0.144 A  
HETATM    6  I   UNL     1     -11.135   6.097  69.720  1.00  0.00    -0.255 I  
HETATM    7  C   UNL     1      -8.158   8.857  67.917  1.00  0.00    -0.106 A  
HETATM    8  C   UNL     1      -7.576   8.147  66.847  1.00  0.00    -0.095 A  
HETATM    9  C   UNL     1      -9.456   6.864  68.551  1.00  0.00    -0.133 A  
HETATM   10  I   UNL     1      -7.731  10.954  68.265  1.00  0.00    -0.132 I  
HETATM   11  C   UNL     1      -8.832   6.103  67.530  1.00  0.00    -0.106 A  
HETATM   12  I   UNL     1      -6.556   5.547  65.458  1.00  0.00    -0.042 I  
HETATM   13  C   UNL     1      -7.854   6.750  66.722  1.00  0.00    -0.107 A  
BRANCH   8  14
HETATM   14  C   UNL     1      -6.826   8.847  65.757  1.00  0.00    -0.072 C  
HETATM   15  H   UNL     1      -5.080   9.638  65.323  1.00  0.00     0.000 HD 
HETATM   16  O   UNL     1      -5.555   9.193  66.014  1.00  0.00    -0.044 OA 
BRANCH  14  17
HETATM   17  N   UNL     1      -7.376   9.117  64.633  1.00  0.00    -0.097 NA 
HETATM   18  H   UNL     1      -7.404   8.424  63.885  1.00  0.00     0.000 HD 
BRANCH  17  19
HETATM   19  C   UNL     1      -7.967  10.451  64.446  1.00  0.00    -0.085 C  
BRANCH  19  20
HETATM   20  C   UNL     1      -9.432  10.302  64.018  1.00  0.00    -0.300 C  
HETATM   21  H   UNL     1     -11.179  10.108  64.907  1.00  0.00     0.000 HD 
HETATM   22  O   UNL     1     -10.271  10.200  65.173  1.00  0.00    -0.306 OA 
BRANCH  20  23
HETATM   23  C   UNL     1      -9.873  11.481  63.133  1.00  0.00    -0.390 C  
HETATM   24  O   UNL     1     -11.289  11.505  62.955  1.00  0.00    -0.807 OA 
HETATM   25  H   UNL     1     -11.561  12.234  62.409  1.00  0.00     0.000 HD 
ENDBRANCH  20  23
ENDBRANCH  19  20
ENDBRANCH  17  19
ENDBRANCH  14  17
ENDBRANCH   8  14
BRANCH  11  26
HETATM   26  C   UNL     1      -9.222   4.666  67.336  1.00  0.00    -0.131 C  
HETATM   27  O   UNL     1      -8.512   3.758  68.037  1.00  0.00    -0.090 OA 
HETATM   28  H   UNL     1      -8.758   2.848  67.915  1.00  0.00     0.000 HD 
BRANCH  26  29
HETATM   29  N   UNL     1     -10.128   4.293  66.510  1.00  0.00    -0.346 NA 
HETATM   30  H   UNL     1     -11.083   4.639  66.599  1.00  0.00     0.000 HD 
BRANCH  29  31
HETATM   31  C   UNL     1      -9.771   3.358  65.432  1.00  0.00    -0.053 C  
BRANCH  31  32
HETATM   32  C   UNL     1     -10.458   3.714  64.092  1.00  0.00    -0.247 C  
HETATM   33  O   UNL     1      -9.739   4.719  63.359  1.00  0.00    -0.354 OA 
HETATM   34  H   UNL     1     -10.161   4.938  62.536  1.00  0.00     0.000 HD 
BRANCH  32  35
HETATM   35  C   UNL     1     -10.566   2.464  63.201  1.00  0.00    -0.193 C  
HETATM   36  O   UNL     1      -9.409   1.632  63.286  1.00  0.00    -0.090 OA 
HETATM   37  H   UNL     1      -9.477   0.861  62.736  1.00  0.00     0.000 HD 
ENDBRANCH  32  35
ENDBRANCH  31  32
ENDBRANCH  29  31
ENDBRANCH  26  29
ENDBRANCH  11  26
ENDBRANCH   2   5
BRANCH   4  38
HETATM   38  C   UNL     1     -11.521   9.774  68.508  1.00  0.00     0.213 C  
HETATM   39  O   UNL     1     -12.062  11.059  68.266  1.00  0.00    -0.737 OA 
HETATM   40  H   UNL     1     -12.540  11.088  67.445  1.00  0.00     0.000 HD 
ENDBRANCH   4  38
TORSDOF 12
ENDMDL
MODEL      123
REMARK 921   NORMALIZED FREE ENERGY PREDICTED BY IDOCK:   -3.58 KCAL/MOL
REMARK 922        TOTAL FREE ENERGY PREDICTED BY IDOCK:   -7.13 KCAL/MOL
REMARK 923 INTER-LIGAND FREE ENERGY PREDICTED BY IDOCK:   -6.83 KCAL/MOL
REMARK 924 INTRA-LIGAND FREE ENERGY PREDICTED BY IDOCK:   -0.30 KCAL/MOL
REMARK 927      BINDING AFFINITY PREDICTED BY RF-SCORE:    0.00 PKD
ROOT
HETATM    1  C   UNL     1      -8.231   9.788  69.778  1.00  0.00    -0.173 C  
HETATM    2  N   UNL     1      -7.435  10.341  68.687  1.00  0.00    -0.082 N  
HETATM    3  O   UNL     1      -5.692  10.936  70.066  1.00  0.00    -0.057 OA 
HETATM    4  C   UNL     1      -6.186  10.915  68.942  1.00  0.00    -0.041 C  
ENDROOT
BRANCH   2   5
HETATM    5  C   UNL     1      -8.003  10.236  67.378  1.00  0.00    -0.107 A  
HETATM    6  I   UNL     1      -6.603   7.477  67.494  1.00  0.00    -0.067 I  
HETATM    7  C   UNL     1      -8.894  11.238  66.914  1.00  0.00    -0.165 A  
HETATM    8  C   UNL     1      -9.409  11.175  65.603  1.00  0.00    -0.243 A  
HETATM    9  C   UNL     1      -7.673   9.132  66.551  1.00  0.00    -0.096 A  
HETATM   10  I   UNL     1      -9.456  12.817  68.289  1.00  0.00    -0.059 I  
HETATM   11  C   UNL     1      -8.115   9.080  65.204  1.00  0.00    -0.130 A  
HETATM   12  I   UNL     1      -9.276  10.358  62.596  1.00  0.00    -0.308 I  
HETATM   13  C   UNL     1      -8.940  10.142  64.734  1.00  0.00    -0.203 A  
BRANCH   8  14
HETATM   14  C   UNL     1     -10.545  12.045  65.164  1.00  0.00    -0.288 C  
HETATM   15  H   UNL     1     -12.505  12.188  65.199  1.00  0.00     0.000 HD 
HETATM   16  O   UNL     1     -11.784  11.636  65.477  1.00  0.00    -0.230 OA 
BRANCH  14  17
HETATM   17  N   UNL     1     -10.346  13.127  64.509  1.00  0.00    -0.504 NA 
HETATM   18  H   UNL     1     -10.544  13.176  63.510  1.00  0.00     0.000 HD 
BRANCH  17  19
HETATM   19  C   UNL     1      -9.824  14.297  65.233  1.00  0.00    -0.169 C  
BRANCH  19  20
HETATM   20  C   UNL     1     -10.968  15.283  65.495  1.00  0.00    -0.359 C  
HETATM   21  H   UNL     1     -12.625  15.315  66.562  1.00  0.00     0.000 HD 
HETATM   22  O   UNL     1     -11.916  14.704  66.399  1.00  0.00    -0.356 OA 
BRANCH  20  23
HETATM   23  C   UNL     1     -10.436  16.614  66.054  1.00  0.00    -0.298 C  
HETATM   24  O   UNL     1     -10.720  16.753  67.445  1.00  0.00    -0.314 OA 
HETATM   25  H   UNL     1     -10.391  17.575  67.790  1.00  0.00     0.000 HD 
ENDBRANCH  20  23
ENDBRANCH  19  20
ENDBRANCH  17  19
ENDBRANCH  14  17
ENDBRANCH   8  14
BRANCH  11  26
HETATM   26  C   UNL     1      -7.708   7.924  64.336  1.00  0.00    -0.123 C  
HETATM   27  O   UNL     1      -6.483   8.004  63.776  1.00  0.00    -0.065 OA 
HETATM   28  H   UNL     1      -6.224   7.273  63.227  1.00  0.00     0.000 HD 
BRANCH  26  29
HETATM   29  N   UNL     1      -8.485   6.940  64.074  1.00  0.00    -0.333 NA 
HETATM   30  H   UNL     1      -9.315   7.075  63.497  1.00  0.00     0.000 HD 
BRANCH  29  31
HETATM   31  C   UNL     1      -8.162   5.610  64.617  1.00  0.00    -0.129 C  
BRANCH  31  32
HETATM   32  C   UNL     1      -9.271   5.071  65.551  1.00  0.00    -0.151 C  
HETATM   33  O   UNL     1     -10.145   6.109  66.020  1.00  0.00    -0.399 OA 
HETATM   34  H   UNL     1     -10.826   5.778  66.594  1.00  0.00     0.000 HD 
BRANCH  32  35
HETATM   35  C   UNL     1     -10.128   4.028  64.813  1.00  0.00    -0.213 C  
HETATM   36  O   UNL     1     -11.515   4.366  64.810  1.00  0.00    -1.011 OA 
HETATM   37  H   UNL     1     -12.044   3.722  64.355  1.00  0.00     0.000 HD 
ENDBRANCH  32  35
ENDBRANCH  31  32
ENDBRANCH  29  31
ENDBRANCH  26  29
ENDBRANCH  11  26
ENDBRANCH   2   5
BRANCH   4  38
HETATM   38  C   UNL     1      -5.433  11.564  67.766  1.00  0.00    -0.049 C  
HETATM   39  O   UNL     1      -5.506  12.976  67.818  1.00  0.00    -0.111 OA 
HETATM   40  H   UNL     1      -5.041  13.377  67.092  1.00  0.00     0.000 HD 
ENDBRANCH   4  38
TORSDOF 12
ENDMDL
MODEL      124
REMARK 921   NORMALIZED FREE ENERGY PREDICTED BY IDOCK:   -3.58 KCAL/MOL
REMARK 922        TOTAL FREE ENERGY PREDICTED BY IDOCK:   -7.13 KCAL/MOL
REMARK 923 INTER-LIGAND FREE ENERGY PREDICTED BY IDOCK:   -6.36 KCAL/MOL
REMARK 924 INTRA-LIGAND FREE ENERGY PREDICTED BY IDOCK:   -0.77 KCAL/MOL
REMARK 927      BINDING AFFINITY PREDICTED BY RF-SCORE:    0.00 PKD
ROOT
HETATM    1  C   UNL     1     -10.520   6.782  66.665  1.00  0.00    -0.143 C  
HETATM    2  N   UNL     1      -9.081   7.003  66.562  1.00  0.00    -0.153 N  
HETATM    3  O   UNL     1      -8.802   5.388  64.948  1.00  0.00    -0.136 OA 
HETATM    4  C   UNL     1      -8.308   6.233  65.688  1.00  0.00    -0.147 C  
ENDROOT
BRANCH   2   5
HETATM    5  C   UNL     1      -8.544   8.044  67.383  1.00  0.00    -0.125 A  
HETATM    6  I   UNL     1      -9.181   9.726  64.862  1.00  0.00    -0.247 I  
HETATM    7  C   UNL     1      -8.232   7.782  68.742  1.00  0.00    -0.128 A  
HETATM    8  C   UNL     1      -7.644   8.785  69.539  1.00  0.00    -0.080 A  
HETATM    9  C   UNL     1      -8.325   9.334  66.834  1.00  0.00    -0.123 A  
HETATM   10  I   UNL     1      -8.726   5.828  69.541  1.00  0.00    -0.123 I  
HETATM   11  C   UNL     1      -7.668  10.339  67.589  1.00  0.00    -0.090 A  
HETATM   12  I   UNL     1      -5.900  11.334  69.969  1.00  0.00    -0.148 I  
HETATM   13  C   UNL     1      -7.287  10.025  68.924  1.00  0.00    -0.080 A  
BRANCH   8  14
HETATM   14  C   UNL     1      -7.548   8.647  71.027  1.00  0.00    -0.100 C  
HETATM   15  H   UNL     1      -6.362   8.016  72.462  1.00  0.00     0.000 HD 
HETATM   16  O   UNL     1      -6.423   8.104  71.519  1.00  0.00    -0.039 OA 
BRANCH  14  17
HETATM   17  N   UNL     1      -8.500   9.019  71.796  1.00  0.00    -0.350 NA 
HETATM   18  H   UNL     1      -8.328   9.222  72.781  1.00  0.00     0.000 HD 
BRANCH  17  19
HETATM   19  C   UNL     1      -9.851   9.146  71.226  1.00  0.00    -0.293 C  
BRANCH  19  20
HETATM   20  C   UNL     1     -10.885   8.695  72.265  1.00  0.00    -0.322 C  
HETATM   21  H   UNL     1     -12.822   8.339  72.307  1.00  0.00     0.000 HD 
HETATM   22  O   UNL     1     -12.181   8.619  71.663  1.00  0.00    -0.300 OA 
BRANCH  20  23
HETATM   23  C   UNL     1     -10.497   7.340  72.882  1.00  0.00    -0.282 C  
HETATM   24  O   UNL     1     -11.580   6.412  72.840  1.00  0.00    -0.475 OA 
HETATM   25  H   UNL     1     -11.341   5.575  73.220  1.00  0.00     0.000 HD 
ENDBRANCH  20  23
ENDBRANCH  19  20
ENDBRANCH  17  19
ENDBRANCH  14  17
ENDBRANCH   8  14
BRANCH  11  26
HETATM   26  C   UNL     1      -7.404  11.679  66.964  1.00  0.00    -0.143 C  
HETATM   27  O   UNL     1      -6.188  11.844  66.402  1.00  0.00    -0.454 OA 
HETATM   28  H   UNL     1      -6.021  12.692  66.007  1.00  0.00     0.000 HD 
BRANCH  26  29
HETATM   29  N   UNL     1      -8.243  12.647  67.007  1.00  0.00    -0.326 NA 
HETATM   30  H   UNL     1      -9.213  12.503  66.729  1.00  0.00     0.000 HD 
BRANCH  29  31
HETATM   31  C   UNL     1      -7.786  13.969  67.463  1.00  0.00    -0.182 C  
BRANCH  31  32
HETATM   32  C   UNL     1      -8.773  15.097  67.082  1.00  0.00    -0.216 C  
HETATM   33  O   UNL     1      -9.427  14.853  65.826  1.00  0.00    -0.439 OA 
HETATM   34  H   UNL     1     -10.033  15.546  65.592  1.00  0.00     0.000 HD 
BRANCH  32  35
HETATM   35  C   UNL     1      -9.860  15.241  68.161  1.00  0.00    -0.217 C  
HETATM   36  O   UNL     1      -9.845  14.161  69.095  1.00  0.00    -0.415 OA 
HETATM   37  H   UNL     1     -10.517  14.249  69.762  1.00  0.00     0.000 HD 
ENDBRANCH  32  35
ENDBRANCH  31  32
ENDBRANCH  29  31
ENDBRANCH  26  29
ENDBRANCH  11  26
ENDBRANCH   2   5
BRANCH   4  38
HETATM   38  C   UNL     1      -6.783   6.448  65.689  1.00  0.00    -0.048 C  
HETATM   39  O   UNL     1      -6.323   6.921  64.438  1.00  0.00    -0.035 OA 
HETATM   40  H   UNL     1      -5.382   7.053  64.439  1.00  0.00     0.000 HD 
ENDBRANCH   4  38
TORSDOF 12
ENDMDL
MODEL      125
REMARK 921   NORMALIZED FREE ENERGY PREDICTED BY IDOCK:   -3.58 KCAL/MOL
REMARK 922        TOTAL FREE ENERGY PREDICTED BY IDOCK:   -7.12 KCAL/MOL
REMARK 923 INTER-LIGAND FREE ENERGY PREDICTED BY IDOCK:   -6.24 KCAL/MOL
REMARK 924 INTRA-LIGAND FREE ENERGY PREDICTED BY IDOCK:   -0.88 KCAL/MOL
REMARK 927      BINDING AFFINITY PREDICTED BY RF-SCORE:    0.00 PKD
ROOT
HETATM    1  C   UNL     1     -10.908   5.843  66.864  1.00  0.00    -0.296 C  
HETATM    2  N   UNL     1      -9.451   5.903  66.914  1.00  0.00    -0.130 N  
HETATM    3  O   UNL     1      -9.190   4.708  64.965  1.00  0.00    -0.153 OA 
HETATM    4  C   UNL     1      -8.683   5.280  65.926  1.00  0.00    -0.138 C  
ENDROOT
BRANCH   2   5
HETATM    5  C   UNL     1      -8.889   6.639  68.004  1.00  0.00    -0.115 A  
HETATM    6  I   UNL     1      -9.463   9.009  66.095  1.00  0.00    -0.301 I  
HETATM    7  C   UNL     1      -8.592   5.978  69.223  1.00  0.00    -0.118 A  
HETATM    8  C   UNL     1      -7.980   6.683  70.280  1.00  0.00    -0.115 A  
HETATM    9  C   UNL     1      -8.630   8.027  67.861  1.00  0.00    -0.129 A  
HETATM   10  I   UNL     1      -9.146   3.890  69.410  1.00  0.00    -0.243 I  
HETATM   11  C   UNL     1      -7.948   8.744  68.877  1.00  0.00    -0.105 A  
HETATM   12  I   UNL     1      -6.166   8.939  71.439  1.00  0.00    -0.046 I  
HETATM   13  C   UNL     1      -7.584   8.038  70.058  1.00  0.00    -0.082 A  
BRANCH   8  14
HETATM   14  C   UNL     1      -7.896   6.108  71.660  1.00  0.00    -0.102 C  
HETATM   15  H   UNL     1      -6.880   4.836  72.762  1.00  0.00     0.000 HD 
HETATM   16  O   UNL     1      -6.933   5.200  71.886  1.00  0.00    -0.061 OA 
BRANCH  14  17
HETATM   17  N   UNL     1      -8.713   6.457  72.581  1.00  0.00    -0.126 NA 
HETATM   18  H   UNL     1      -8.372   6.803  73.478  1.00  0.00     0.000 HD 
BRANCH  17  19
HETATM   19  C   UNL     1     -10.155   6.347  72.315  1.00  0.00    -0.176 C  
BRANCH  19  20
HETATM   20  C   UNL     1     -10.841   7.669  72.680  1.00  0.00    -0.340 C  
HETATM   21  H   UNL     1     -10.425   9.590  72.551  1.00  0.00     0.000 HD 
HETATM   22  O   UNL     1      -9.999   8.771  72.325  1.00  0.00    -0.308 OA 
BRANCH  20  23
HETATM   23  C   UNL     1     -12.210   7.793  71.989  1.00  0.00    -0.305 C  
HETATM   24  O   UNL     1     -13.031   6.652  72.238  1.00  0.00    -0.548 OA 
HETATM   25  H   UNL     1     -13.877   6.729  71.812  1.00  0.00     0.000 HD 
ENDBRANCH  20  23
ENDBRANCH  19  20
ENDBRANCH  17  19
ENDBRANCH  14  17
ENDBRANCH   8  14
BRANCH  11  26
HETATM   26  C   UNL     1      -7.643  10.201  68.676  1.00  0.00    -0.086 C  
HETATM   27  O   UNL     1      -6.446  10.486  68.123  1.00  0.00    -0.061 OA 
HETATM   28  H   UNL     1      -6.252  11.408  67.995  1.00  0.00     0.000 HD 
BRANCH  26  29
HETATM   29  N   UNL     1      -8.428  11.139  69.058  1.00  0.00    -0.345 NA 
HETATM   30  H   UNL     1      -8.752  11.180  70.024  1.00  0.00     0.000 HD 
BRANCH  29  31
HETATM   31  C   UNL     1      -8.855  12.156  68.085  1.00  0.00    -0.187 C  
BRANCH  31  32
HETATM   32  C   UNL     1     -10.373  12.445  68.163  1.00  0.00    -0.226 C  
HETATM   33  O   UNL     1     -10.685  13.481  69.107  1.00  0.00    -0.389 OA 
HETATM   34  H   UNL     1     -11.617  13.659  69.155  1.00  0.00     0.000 HD 
BRANCH  32  35
HETATM   35  C   UNL     1     -10.902  12.883  66.786  1.00  0.00    -0.267 C  
HETATM   36  O   UNL     1     -12.041  12.126  66.375  1.00  0.00    -0.630 OA 
HETATM   37  H   UNL     1     -12.367  12.396  65.525  1.00  0.00     0.000 HD 
ENDBRANCH  32  35
ENDBRANCH  31  32
ENDBRANCH  29  31
ENDBRANCH  26  29
ENDBRANCH  11  26
ENDBRANCH   2   5
BRANCH   4  38
HETATM   38  C   UNL     1      -7.151   5.299  66.080  1.00  0.00    -0.072 C  
HETATM   39  O   UNL     1      -6.566   6.357  65.345  1.00  0.00    -0.041 OA 
HETATM   40  H   UNL     1      -5.621   6.368  65.440  1.00  0.00     0.000 HD 
ENDBRANCH   4  38
TORSDOF 12
ENDMDL
MODEL      126
REMARK 921   NORMALIZED FREE ENERGY PREDICTED BY IDOCK:   -3.57 KCAL/MOL
REMARK 922        TOTAL FREE ENERGY PREDICTED BY IDOCK:   -7.11 KCAL/MOL
REMARK 923 INTER-LIGAND FREE ENERGY PREDICTED BY IDOCK:   -6.06 KCAL/MOL
REMARK 924 INTRA-LIGAND FREE ENERGY PREDICTED BY IDOCK:   -1.05 KCAL/MOL
REMARK 927      BINDING AFFINITY PREDICTED BY RF-SCORE:    0.00 PKD
ROOT
HETATM    1  C   UNL     1     -12.407  13.160  67.521  1.00  0.00     0.072 C  
HETATM    2  N   UNL     1     -11.303  13.156  66.564  1.00  0.00    -0.303 N  
HETATM    3  O   UNL     1     -12.696  13.273  64.737  1.00  0.00    -0.641 OA 
HETATM    4  C   UNL     1     -11.558  13.190  65.191  1.00  0.00    -0.318 C  
ENDROOT
BRANCH   2   5
HETATM    5  C   UNL     1      -9.987  13.134  67.123  1.00  0.00    -0.236 A  
HETATM    6  I   UNL     1     -10.507  16.182  67.289  1.00  0.00    -0.243 I  
HETATM    7  C   UNL     1      -9.358  11.893  67.399  1.00  0.00    -0.176 A  
HETATM    8  C   UNL     1      -8.037  11.862  67.890  1.00  0.00    -0.147 A  
HETATM    9  C   UNL     1      -9.316  14.354  67.399  1.00  0.00    -0.199 A  
HETATM   10  I   UNL     1     -10.503  10.079  67.081  1.00  0.00    -0.235 I  
HETATM   11  C   UNL     1      -7.962  14.354  67.822  1.00  0.00    -0.166 A  
HETATM   12  I   UNL     1      -5.161  13.021  68.217  1.00  0.00    -0.100 I  
HETATM   13  C   UNL     1      -7.324  13.095  68.011  1.00  0.00    -0.125 A  
BRANCH   8  14
HETATM   14  C   UNL     1      -7.436  10.608  68.444  1.00  0.00    -0.093 C  
HETATM   15  H   UNL     1      -7.145   9.625  70.121  1.00  0.00     0.000 HD 
HETATM   16  O   UNL     1      -7.527  10.420  69.770  1.00  0.00    -0.150 OA 
BRANCH  14  17
HETATM   17  N   UNL     1      -6.849   9.757  67.689  1.00  0.00    -0.084 NA 
HETATM   18  H   UNL     1      -6.893   9.842  66.674  1.00  0.00     0.000 HD 
BRANCH  17  19
HETATM   19  C   UNL     1      -6.111   8.653  68.322  1.00  0.00    -0.050 C  
BRANCH  19  20
HETATM   20  C   UNL     1      -6.511   7.329  67.660  1.00  0.00    -0.052 C  
HETATM   21  H   UNL     1      -5.592   5.722  66.985  1.00  0.00     0.000 HD 
HETATM   22  O   UNL     1      -5.344   6.543  67.395  1.00  0.00    -0.007 OA 
BRANCH  20  23
HETATM   23  C   UNL     1      -7.500   6.546  68.541  1.00  0.00    -0.088 C  
HETATM   24  O   UNL     1      -8.196   7.404  69.444  1.00  0.00    -0.127 OA 
HETATM   25  H   UNL     1      -8.806   6.920  69.987  1.00  0.00     0.000 HD 
ENDBRANCH  20  23
ENDBRANCH  19  20
ENDBRANCH  17  19
ENDBRANCH  14  17
ENDBRANCH   8  14
BRANCH  11  26
HETATM   26  C   UNL     1      -7.261  15.662  68.057  1.00  0.00    -0.129 C  
HETATM   27  O   UNL     1      -7.172  16.065  69.342  1.00  0.00    -0.214 OA 
HETATM   28  H   UNL     1      -6.729  16.893  69.491  1.00  0.00     0.000 HD 
BRANCH  26  29
HETATM   29  N   UNL     1      -6.824  16.401  67.106  1.00  0.00    -0.186 NA 
HETATM   30  H   UNL     1      -6.990  16.144  66.133  1.00  0.00     0.000 HD 
BRANCH  29  31
HETATM   31  C   UNL     1      -6.081  17.627  67.437  1.00  0.00    -0.147 C  
BRANCH  31  32
HETATM   32  C   UNL     1      -7.008  18.857  67.583  1.00  0.00    -0.206 C  
HETATM   33  O   UNL     1      -6.278  20.063  67.855  1.00  0.00    -0.215 OA 
HETATM   34  H   UNL     1      -6.847  20.819  67.945  1.00  0.00     0.000 HD 
BRANCH  32  35
HETATM   35  C   UNL     1      -7.813  19.072  66.289  1.00  0.00    -0.287 C  
HETATM   36  O   UNL     1      -8.543  20.299  66.301  1.00  0.00    -0.521 OA 
HETATM   37  H   UNL     1      -9.040  20.432  65.503  1.00  0.00     0.000 HD 
ENDBRANCH  32  35
ENDBRANCH  31  32
ENDBRANCH  29  31
ENDBRANCH  26  29
ENDBRANCH  11  26
ENDBRANCH   2   5
BRANCH   4  38
HETATM   38  C   UNL     1     -10.360  13.091  64.229  1.00  0.00    -0.362 C  
HETATM   39  O   UNL     1     -10.177  11.769  63.759  1.00  0.00    -0.324 OA 
HETATM   40  H   UNL     1      -9.437  11.708  63.165  1.00  0.00     0.000 HD 
ENDBRANCH   4  38
TORSDOF 12
ENDMDL
MODEL      127
REMARK 921   NORMALIZED FREE ENERGY PREDICTED BY IDOCK:   -3.56 KCAL/MOL
REMARK 922        TOTAL FREE ENERGY PREDICTED BY IDOCK:   -7.10 KCAL/MOL
REMARK 923 INTER-LIGAND FREE ENERGY PREDICTED BY IDOCK:   -6.18 KCAL/MOL
REMARK 924 INTRA-LIGAND FREE ENERGY PREDICTED BY IDOCK:   -0.92 KCAL/MOL
REMARK 927      BINDING AFFINITY PREDICTED BY RF-SCORE:    0.00 PKD
ROOT
HETATM    1  C   UNL     1      -7.902  10.466  69.609  1.00  0.00    -0.129 C  
HETATM    2  N   UNL     1      -7.816  10.946  68.233  1.00  0.00    -0.112 N  
HETATM    3  O   UNL     1      -6.867   8.998  67.460  1.00  0.00    -0.075 OA 
HETATM    4  C   UNL     1      -7.258  10.140  67.237  1.00  0.00    -0.089 C  
ENDROOT
BRANCH   2   5
HETATM    5  C   UNL     1      -8.346  12.252  67.989  1.00  0.00    -0.165 A  
HETATM    6  I   UNL     1     -10.932  10.611  67.529  1.00  0.00    -0.226 I  
HETATM    7  C   UNL     1      -7.542  13.396  68.229  1.00  0.00    -0.135 A  
HETATM    8  C   UNL     1      -8.035  14.682  67.930  1.00  0.00    -0.149 A  
HETATM    9  C   UNL     1      -9.673  12.397  67.506  1.00  0.00    -0.191 A  
HETATM   10  I   UNL     1      -5.579  13.096  69.097  1.00  0.00    -0.088 I  
HETATM   11  C   UNL     1     -10.169  13.670  67.127  1.00  0.00    -0.244 A  
HETATM   12  I   UNL     1      -9.827  16.677  66.337  1.00  0.00    -0.339 I  
HETATM   13  C   UNL     1      -9.312  14.795  67.298  1.00  0.00    -0.206 A  
BRANCH   8  14
HETATM   14  C   UNL     1      -7.342  15.918  68.411  1.00  0.00    -0.125 C  
HETATM   15  H   UNL     1      -7.233  17.155  69.935  1.00  0.00     0.000 HD 
HETATM   16  O   UNL     1      -7.673  16.371  69.630  1.00  0.00    -0.048 OA 
BRANCH  14  17
HETATM   17  N   UNL     1      -6.478  16.526  67.687  1.00  0.00    -0.134 NA 
HETATM   18  H   UNL     1      -6.123  16.101  66.830  1.00  0.00     0.000 HD 
BRANCH  17  19
HETATM   19  C   UNL     1      -6.011  17.852  68.121  1.00  0.00    -0.170 C  
BRANCH  19  20
HETATM   20  C   UNL     1      -6.500  18.913  67.126  1.00  0.00    -0.191 C  
HETATM   21  H   UNL     1      -6.015  20.758  66.636  1.00  0.00     0.000 HD 
HETATM   22  O   UNL     1      -5.711  20.101  67.252  1.00  0.00    -0.164 OA 
BRANCH  20  23
HETATM   23  C   UNL     1      -6.452  18.384  65.683  1.00  0.00    -0.279 C  
HETATM   24  O   UNL     1      -5.149  17.914  65.337  1.00  0.00    -0.168 OA 
HETATM   25  H   UNL     1      -5.119  17.587  64.445  1.00  0.00     0.000 HD 
ENDBRANCH  20  23
ENDBRANCH  19  20
ENDBRANCH  17  19
ENDBRANCH  14  17
ENDBRANCH   8  14
BRANCH  11  26
HETATM   26  C   UNL     1     -11.559  13.786  66.571  1.00  0.00    -0.365 C  
HETATM   27  O   UNL     1     -11.671  13.714  65.228  1.00  0.00    -0.317 OA 
HETATM   28  H   UNL     1     -12.550  13.788  64.876  1.00  0.00     0.000 HD 
BRANCH  26  29
HETATM   29  N   UNL     1     -12.588  14.007  67.303  1.00  0.00    -0.411 NA 
HETATM   30  H   UNL     1     -13.471  13.535  67.110  1.00  0.00     0.000 HD 
BRANCH  29  31
HETATM   31  C   UNL     1     -12.477  14.951  68.426  1.00  0.00     0.318 C  
BRANCH  31  32
HETATM   32  C   UNL     1     -12.387  14.232  69.793  1.00  0.00    -0.292 C  
HETATM   33  O   UNL     1     -11.053  14.233  70.325  1.00  0.00    -0.471 OA 
HETATM   34  H   UNL     1     -10.998  13.791  71.165  1.00  0.00     0.000 HD 
BRANCH  32  35
HETATM   35  C   UNL     1     -13.306  14.920  70.817  1.00  0.00    -0.293 C  
HETATM   36  O   UNL     1     -12.578  15.706  71.760  1.00  0.00    -0.381 OA 
HETATM   37  H   UNL     1     -13.145  16.131  72.393  1.00  0.00     0.000 HD 
ENDBRANCH  32  35
ENDBRANCH  31  32
ENDBRANCH  29  31
ENDBRANCH  26  29
ENDBRANCH  11  26
ENDBRANCH   2   5
BRANCH   4  38
HETATM   38  C   UNL     1      -7.110  10.734  65.824  1.00  0.00    -0.053 C  
HETATM   39  O   UNL     1      -5.855  11.365  65.653  1.00  0.00    -0.483 OA 
HETATM   40  H   UNL     1      -5.764  11.731  64.781  1.00  0.00     0.000 HD 
ENDBRANCH   4  38
TORSDOF 12
ENDMDL
MODEL      128
REMARK 921   NORMALIZED FREE ENERGY PREDICTED BY IDOCK:   -3.53 KCAL/MOL
REMARK 922        TOTAL FREE ENERGY PREDICTED BY IDOCK:   -7.05 KCAL/MOL
REMARK 923 INTER-LIGAND FREE ENERGY PREDICTED BY IDOCK:   -6.61 KCAL/MOL
REMARK 924 INTRA-LIGAND FREE ENERGY PREDICTED BY IDOCK:   -0.44 KCAL/MOL
REMARK 927      BINDING AFFINITY PREDICTED BY RF-SCORE:    0.00 PKD
ROOT
HETATM    1  C   UNL     1     -11.526   6.356  69.729  1.00  0.00    -0.399 C  
HETATM    2  N   UNL     1     -10.078   6.166  69.716  1.00  0.00    -0.172 N  
HETATM    3  O   UNL     1     -10.175   4.230  70.955  1.00  0.00    -0.140 OA 
HETATM    4  C   UNL     1      -9.501   5.082  70.383  1.00  0.00    -0.169 C  
ENDROOT
BRANCH   2   5
HETATM    5  C   UNL     1      -9.324   7.133  68.980  1.00  0.00    -0.140 A  
HETATM    6  I   UNL     1     -10.153   5.303  66.624  1.00  0.00    -0.329 I  
HETATM    7  C   UNL     1      -8.843   8.298  69.630  1.00  0.00    -0.139 A  
HETATM    8  C   UNL     1      -8.045   9.224  68.927  1.00  0.00    -0.103 A  
HETATM    9  C   UNL     1      -9.060   6.922  67.601  1.00  0.00    -0.118 A  
HETATM   10  I   UNL     1      -9.407   8.615  71.700  1.00  0.00    -0.283 I  
HETATM   11  C   UNL     1      -8.200   7.796  66.888  1.00  0.00    -0.116 A  
HETATM   12  I   UNL     1      -6.009  10.020  66.703  1.00  0.00    -0.064 I  
HETATM   13  C   UNL     1      -7.660   8.913  67.586  1.00  0.00    -0.093 A  
BRANCH   8  14
HETATM   14  C   UNL     1      -7.744  10.581  69.483  1.00  0.00    -0.136 C  
HETATM   15  H   UNL     1      -6.532  11.535  70.701  1.00  0.00     0.000 HD 
HETATM   16  O   UNL     1      -6.723  10.674  70.348  1.00  0.00    -0.263 OA 
BRANCH  14  17
HETATM   17  N   UNL     1      -8.438  11.606  69.158  1.00  0.00    -0.358 NA 
HETATM   18  H   UNL     1      -8.151  12.543  69.440  1.00  0.00     0.000 HD 
BRANCH  17  19
HETATM   19  C   UNL     1      -9.662  11.400  68.367  1.00  0.00    -0.203 C  
BRANCH  19  20
HETATM   20  C   UNL     1     -10.119  12.742  67.781  1.00  0.00    -0.224 C  
HETATM   21  H   UNL     1      -9.402  14.086  66.531  1.00  0.00     0.000 HD 
HETATM   22  O   UNL     1      -9.119  13.254  66.894  1.00  0.00    -0.231 OA 
BRANCH  20  23
HETATM   23  C   UNL     1     -11.465  12.598  67.050  1.00  0.00    -0.346 C  
HETATM   24  O   UNL     1     -12.024  11.297  67.227  1.00  0.00    -0.529 OA 
HETATM   25  H   UNL     1     -12.855  11.208  66.775  1.00  0.00     0.000 HD 
ENDBRANCH  20  23
ENDBRANCH  19  20
ENDBRANCH  17  19
ENDBRANCH  14  17
ENDBRANCH   8  14
BRANCH  11  26
HETATM   26  C   UNL     1      -7.898   7.519  65.443  1.00  0.00    -0.117 C  
HETATM   27  O   UNL     1      -6.800   6.773  65.198  1.00  0.00    -0.048 OA 
HETATM   28  H   UNL     1      -6.609   6.598  64.284  1.00  0.00     0.000 HD 
BRANCH  26  29
HETATM   29  N   UNL     1      -8.588   8.005  64.479  1.00  0.00    -0.389 NA 
HETATM   30  H   UNL     1      -9.565   8.262  64.621  1.00  0.00     0.000 HD 
BRANCH  29  31
HETATM   31  C   UNL     1      -7.953   8.186  63.165  1.00  0.00    -0.151 C  
BRANCH  31  32
HETATM   32  C   UNL     1      -8.557   9.373  62.377  1.00  0.00    -0.213 C  
HETATM   33  O   UNL     1      -9.793   9.834  62.944  1.00  0.00    -0.497 OA 
HETATM   34  H   UNL     1     -10.164  10.563  62.461  1.00  0.00     0.000 HD 
BRANCH  32  35
HETATM   35  C   UNL     1      -7.573  10.556  62.360  1.00  0.00    -0.146 C  
HETATM   36  O   UNL     1      -6.901  10.723  63.609  1.00  0.00    -0.349 OA 
HETATM   37  H   UNL     1      -6.294  11.454  63.598  1.00  0.00     0.000 HD 
ENDBRANCH  32  35
ENDBRANCH  31  32
ENDBRANCH  29  31
ENDBRANCH  26  29
ENDBRANCH  11  26
ENDBRANCH   2   5
BRANCH   4  38
HETATM   38  C   UNL     1      -7.964   4.985  70.412  1.00  0.00    -0.084 C  
HETATM   39  O   UNL     1      -7.510   4.262  71.541  1.00  0.00    -0.056 OA 
HETATM   40  H   UNL     1      -6.562   4.202  71.559  1.00  0.00     0.000 HD 
ENDBRANCH   4  38
TORSDOF 12
ENDMDL
MODEL      129
REMARK 921   NORMALIZED FREE ENERGY PREDICTED BY IDOCK:   -3.52 KCAL/MOL
REMARK 922        TOTAL FREE ENERGY PREDICTED BY IDOCK:   -7.02 KCAL/MOL
REMARK 923 INTER-LIGAND FREE ENERGY PREDICTED BY IDOCK:   -6.00 KCAL/MOL
REMARK 924 INTRA-LIGAND FREE ENERGY PREDICTED BY IDOCK:   -1.02 KCAL/MOL
REMARK 927      BINDING AFFINITY PREDICTED BY RF-SCORE:    0.00 PKD
ROOT
HETATM    1  C   UNL     1      -9.051   9.168  70.816  1.00  0.00    -0.255 C  
HETATM    2  N   UNL     1     -10.055   8.114  70.702  1.00  0.00    -0.193 N  
HETATM    3  O   UNL     1     -11.644   9.300  71.869  1.00  0.00    -0.372 OA 
HETATM    4  C   UNL     1     -11.314   8.270  71.287  1.00  0.00    -0.267 C  
ENDROOT
BRANCH   2   5
HETATM    5  C   UNL     1      -9.669   6.956  69.955  1.00  0.00    -0.167 A  
HETATM    6  I   UNL     1     -10.454   8.791  67.588  1.00  0.00    -0.143 I  
HETATM    7  C   UNL     1      -9.073   5.854  70.620  1.00  0.00    -0.149 A  
HETATM    8  C   UNL     1      -8.748   4.685  69.901  1.00  0.00    -0.116 A  
HETATM    9  C   UNL     1      -9.884   6.916  68.553  1.00  0.00    -0.144 A  
HETATM   10  I   UNL     1      -8.651   6.049  72.738  1.00  0.00    -0.120 I  
HETATM   11  C   UNL     1      -9.637   5.729  67.817  1.00  0.00    -0.121 A  
HETATM   12  I   UNL     1      -9.140   2.651  67.570  1.00  0.00    -0.146 I  
HETATM   13  C   UNL     1      -9.118   4.606  68.523  1.00  0.00    -0.120 A  
BRANCH   8  14
HETATM   14  C   UNL     1      -7.884   3.616  70.494  1.00  0.00    -0.047 C  
HETATM   15  H   UNL     1      -6.018   3.015  70.631  1.00  0.00     0.000 HD 
HETATM   16  O   UNL     1      -6.566   3.694  70.255  1.00  0.00    -0.031 OA 
BRANCH  14  17
HETATM   17  N   UNL     1      -8.381   2.661  71.187  1.00  0.00    -0.057 NA 
HETATM   18  H   UNL     1      -9.274   2.239  70.930  1.00  0.00     0.000 HD 
BRANCH  17  19
HETATM   19  C   UNL     1      -7.634   2.188  72.362  1.00  0.00    -0.044 C  
BRANCH  19  20
HETATM   20  C   UNL     1      -8.622   1.787  73.464  1.00  0.00    -0.054 C  
HETATM   21  H   UNL     1      -9.153   2.462  75.237  1.00  0.00     0.000 HD 
HETATM   22  O   UNL     1      -8.540   2.711  74.555  1.00  0.00    -0.069 OA 
BRANCH  20  23
HETATM   23  C   UNL     1     -10.060   1.719  72.922  1.00  0.00    -0.111 C  
HETATM   24  O   UNL     1     -10.706   2.990  72.982  1.00  0.00    -0.163 OA 
HETATM   25  H   UNL     1     -11.594   2.948  72.647  1.00  0.00     0.000 HD 
ENDBRANCH  20  23
ENDBRANCH  19  20
ENDBRANCH  17  19
ENDBRANCH  14  17
ENDBRANCH   8  14
BRANCH  11  26
HETATM   26  C   UNL     1      -9.922   5.700  66.343  1.00  0.00    -0.152 C  
HETATM   27  O   UNL     1     -11.218   5.566  65.991  1.00  0.00    -0.771 OA 
HETATM   28  H   UNL     1     -11.399   5.547  65.059  1.00  0.00     0.000 HD 
BRANCH  26  29
HETATM   29  N   UNL     1      -9.002   5.731  65.453  1.00  0.00    -0.321 NA 
HETATM   30  H   UNL     1      -8.996   5.054  64.690  1.00  0.00     0.000 HD 
BRANCH  29  31
HETATM   31  C   UNL     1      -7.953   6.759  65.544  1.00  0.00    -0.119 C  
BRANCH  31  32
HETATM   32  C   UNL     1      -7.582   7.348  64.163  1.00  0.00    -0.109 C  
HETATM   33  O   UNL     1      -8.262   6.685  63.085  1.00  0.00    -0.281 OA 
HETATM   34  H   UNL     1      -8.034   7.046  62.236  1.00  0.00     0.000 HD 
BRANCH  32  35
HETATM   35  C   UNL     1      -7.947   8.841  64.105  1.00  0.00    -0.154 C  
HETATM   36  O   UNL     1      -9.306   9.056  63.724  1.00  0.00    -0.293 OA 
HETATM   37  H   UNL     1      -9.531   9.978  63.688  1.00  0.00     0.000 HD 
ENDBRANCH  32  35
ENDBRANCH  31  32
ENDBRANCH  29  31
ENDBRANCH  26  29
ENDBRANCH  11  26
ENDBRANCH   2   5
BRANCH   4  38
HETATM   38  C   UNL     1     -12.299   7.088  71.214  1.00  0.00    -0.383 C  
HETATM   39  O   UNL     1     -13.304   7.186  72.204  1.00  0.00    -0.525 OA 
HETATM   40  H   UNL     1     -13.912   6.456  72.159  1.00  0.00     0.000 HD 
ENDBRANCH   4  38
TORSDOF 12
ENDMDL
MODEL      130
REMARK 921   NORMALIZED FREE ENERGY PREDICTED BY IDOCK:   -3.51 KCAL/MOL
REMARK 922        TOTAL FREE ENERGY PREDICTED BY IDOCK:   -7.01 KCAL/MOL
REMARK 923 INTER-LIGAND FREE ENERGY PREDICTED BY IDOCK:   -6.10 KCAL/MOL
REMARK 924 INTRA-LIGAND FREE ENERGY PREDICTED BY IDOCK:   -0.91 KCAL/MOL
REMARK 927      BINDING AFFINITY PREDICTED BY RF-SCORE:    0.00 PKD
ROOT
HETATM    1  C   UNL     1      -6.259  11.378  66.933  1.00  0.00    -0.135 C  
HETATM    2  N   UNL     1      -7.293  10.428  66.532  1.00  0.00    -0.112 N  
HETATM    3  O   UNL     1      -6.572  10.342  64.349  1.00  0.00    -0.127 OA 
HETATM    4  C   UNL     1      -7.378   9.991  65.207  1.00  0.00    -0.137 C  
ENDROOT
BRANCH   2   5
HETATM    5  C   UNL     1      -8.171   9.981  67.569  1.00  0.00    -0.114 A  
HETATM    6  I   UNL     1      -5.796   8.072  68.121  1.00  0.00    -0.043 I  
HETATM    7  C   UNL     1      -9.379  10.680  67.821  1.00  0.00    -0.146 A  
HETATM    8  C   UNL     1     -10.279  10.208  68.799  1.00  0.00    -0.200 A  
HETATM    9  C   UNL     1      -7.830   8.839  68.340  1.00  0.00    -0.104 A  
HETATM   10  I   UNL     1      -9.759  12.494  66.696  1.00  0.00    -0.258 I  
HETATM   11  C   UNL     1      -8.748   8.298  69.276  1.00  0.00    -0.139 A  
HETATM   12  I   UNL     1     -11.600   7.965  70.516  1.00  0.00     0.092 I  
HETATM   13  C   UNL     1      -9.991   8.970  69.452  1.00  0.00    -0.191 A  
BRANCH   8  14
HETATM   14  C   UNL     1     -11.420  11.047  69.284  1.00  0.00    -0.300 C  
HETATM   15  H   UNL     1     -13.290  11.515  68.897  1.00  0.00     0.000 HD 
HETATM   16  O   UNL     1     -12.566  10.982  68.589  1.00  0.00    -0.304 OA 
BRANCH  14  17
HETATM   17  N   UNL     1     -11.304  11.805  70.309  1.00  0.00    -0.463 NA 
HETATM   18  H   UNL     1     -10.431  11.844  70.835  1.00  0.00     0.000 HD 
BRANCH  17  19
HETATM   19  C   UNL     1     -12.463  12.618  70.712  1.00  0.00    -0.270 C  
BRANCH  19  20
HETATM   20  C   UNL     1     -12.009  14.062  70.958  1.00  0.00    -0.233 C  
HETATM   21  H   UNL     1     -10.972  15.429  69.989  1.00  0.00     0.000 HD 
HETATM   22  O   UNL     1     -11.253  14.534  69.837  1.00  0.00    -0.248 OA 
BRANCH  20  23
HETATM   23  C   UNL     1     -13.211  14.983  71.224  1.00  0.00    -0.432 C  
HETATM   24  O   UNL     1     -14.137  14.392  72.134  1.00  0.00    -0.460 OA 
HETATM   25  H   UNL     1     -14.880  14.962  72.298  1.00  0.00     0.000 HD 
ENDBRANCH  20  23
ENDBRANCH  19  20
ENDBRANCH  17  19
ENDBRANCH  14  17
ENDBRANCH   8  14
BRANCH  11  26
HETATM   26  C   UNL     1      -8.380   7.059  70.041  1.00  0.00    -0.138 C  
HETATM   27  O   UNL     1      -8.774   5.887  69.499  1.00  0.00    -0.115 OA 
HETATM   28  H   UNL     1      -8.542   5.103  69.982  1.00  0.00     0.000 HD 
BRANCH  26  29
HETATM   29  N   UNL     1      -7.786   7.088  71.176  1.00  0.00    -0.098 NA 
HETATM   30  H   UNL     1      -7.185   6.318  71.465  1.00  0.00     0.000 HD 
BRANCH  29  31
HETATM   31  C   UNL     1      -7.984   8.251  72.056  1.00  0.00    -0.134 C  
BRANCH  31  32
HETATM   32  C   UNL     1      -7.699   7.921  73.540  1.00  0.00    -0.157 C  
HETATM   33  O   UNL     1      -8.430   8.770  74.439  1.00  0.00    -0.307 OA 
HETATM   34  H   UNL     1      -8.255   8.567  75.351  1.00  0.00     0.000 HD 
BRANCH  32  35
HETATM   35  C   UNL     1      -8.087   6.463  73.845  1.00  0.00    -0.107 C  
HETATM   36  O   UNL     1      -9.388   6.133  73.360  1.00  0.00    -0.135 OA 
HETATM   37  H   UNL     1      -9.627   5.233  73.548  1.00  0.00     0.000 HD 
ENDBRANCH  32  35
ENDBRANCH  31  32
ENDBRANCH  29  31
ENDBRANCH  26  29
ENDBRANCH  11  26
ENDBRANCH   2   5
BRANCH   4  38
HETATM   38  C   UNL     1      -8.544   9.062  64.824  1.00  0.00    -0.175 C  
HETATM   39  O   UNL     1      -9.401   9.667  63.875  1.00  0.00    -0.404 OA 
HETATM   40  H   UNL     1     -10.121   9.093  63.638  1.00  0.00     0.000 HD 
ENDBRANCH   4  38
TORSDOF 12
ENDMDL
MODEL      131
REMARK 921   NORMALIZED FREE ENERGY PREDICTED BY IDOCK:   -3.51 KCAL/MOL
REMARK 922        TOTAL FREE ENERGY PREDICTED BY IDOCK:   -7.00 KCAL/MOL
REMARK 923 INTER-LIGAND FREE ENERGY PREDICTED BY IDOCK:   -6.42 KCAL/MOL
REMARK 924 INTRA-LIGAND FREE ENERGY PREDICTED BY IDOCK:   -0.58 KCAL/MOL
REMARK 927      BINDING AFFINITY PREDICTED BY RF-SCORE:    0.00 PKD
ROOT
HETATM    1  C   UNL     1      -9.537  13.940  65.756  1.00  0.00    -0.085 C  
HETATM    2  N   UNL     1     -10.309  12.758  65.384  1.00  0.00    -0.290 N  
HETATM    3  O   UNL     1     -11.754  13.945  64.044  1.00  0.00    -0.370 OA 
HETATM    4  C   UNL     1     -11.417  12.873  64.540  1.00  0.00    -0.344 C  
ENDROOT
BRANCH   2   5
HETATM    5  C   UNL     1      -9.848  11.513  65.918  1.00  0.00    -0.231 A  
HETATM    6  I   UNL     1     -11.699  12.361  68.252  1.00  0.00    -0.207 I  
HETATM    7  C   UNL     1      -9.058  10.651  65.117  1.00  0.00    -0.201 A  
HETATM    8  C   UNL     1      -8.547   9.453  65.657  1.00  0.00    -0.159 A  
HETATM    9  C   UNL     1     -10.184  11.148  67.248  1.00  0.00    -0.193 A  
HETATM   10  I   UNL     1      -8.707  11.216  63.053  1.00  0.00     0.119 I  
HETATM   11  C   UNL     1      -9.625   9.988  67.842  1.00  0.00    -0.163 A  
HETATM   12  I   UNL     1      -7.537   7.665  68.004  1.00  0.00    -0.115 I  
HETATM   13  C   UNL     1      -8.765   9.181  67.043  1.00  0.00    -0.123 A  
BRANCH   8  14
HETATM   14  C   UNL     1      -7.945   8.395  64.786  1.00  0.00    -0.138 C  
HETATM   15  H   UNL     1      -6.270   7.867  63.902  1.00  0.00     0.000 HD 
HETATM   16  O   UNL     1      -6.653   8.539  64.454  1.00  0.00    -0.066 OA 
BRANCH  14  17
HETATM   17  N   UNL     1      -8.634   7.402  64.365  1.00  0.00    -0.344 NA 
HETATM   18  H   UNL     1      -9.644   7.481  64.243  1.00  0.00     0.000 HD 
BRANCH  17  19
HETATM   19  C   UNL     1      -7.935   6.143  64.063  1.00  0.00    -0.110 C  
BRANCH  19  20
HETATM   20  C   UNL     1      -8.475   5.031  64.971  1.00  0.00    -0.146 C  
HETATM   21  H   UNL     1      -9.888   4.843  66.330  1.00  0.00     0.000 HD 
HETATM   22  O   UNL     1      -9.554   5.532  65.767  1.00  0.00    -0.121 OA 
BRANCH  20  23
HETATM   23  C   UNL     1      -8.931   3.815  64.147  1.00  0.00    -0.123 C  
HETATM   24  O   UNL     1      -8.318   3.790  62.859  1.00  0.00    -0.079 OA 
HETATM   25  H   UNL     1      -8.600   3.039  62.350  1.00  0.00     0.000 HD 
ENDBRANCH  20  23
ENDBRANCH  19  20
ENDBRANCH  17  19
ENDBRANCH  14  17
ENDBRANCH   8  14
BRANCH  11  26
HETATM   26  C   UNL     1      -9.958   9.654  69.268  1.00  0.00    -0.191 C  
HETATM   27  O   UNL     1      -9.042  10.012  70.191  1.00  0.00    -0.361 OA 
HETATM   28  H   UNL     1      -9.252   9.800  71.094  1.00  0.00     0.000 HD 
BRANCH  26  29
HETATM   29  N   UNL     1     -11.012   9.009  69.606  1.00  0.00    -0.377 NA 
HETATM   30  H   UNL     1     -11.879   9.505  69.810  1.00  0.00     0.000 HD 
BRANCH  29  31
HETATM   31  C   UNL     1     -10.955   7.541  69.695  1.00  0.00    -0.153 C  
BRANCH  31  32
HETATM   32  C   UNL     1     -10.659   7.049  71.132  1.00  0.00    -0.217 C  
HETATM   33  O   UNL     1     -11.830   6.535  71.786  1.00  0.00    -0.310 OA 
HETATM   34  H   UNL     1     -11.649   6.234  72.669  1.00  0.00     0.000 HD 
BRANCH  32  35
HETATM   35  C   UNL     1      -9.603   5.932  71.105  1.00  0.00    -0.169 C  
HETATM   36  O   UNL     1     -10.188   4.630  71.053  1.00  0.00    -0.202 OA 
HETATM   37  H   UNL     1      -9.535   3.940  71.036  1.00  0.00     0.000 HD 
ENDBRANCH  32  35
ENDBRANCH  31  32
ENDBRANCH  29  31
ENDBRANCH  26  29
ENDBRANCH  11  26
ENDBRANCH   2   5
BRANCH   4  38
HETATM   38  C   UNL     1     -12.247  11.608  64.257  1.00  0.00    -0.003 C  
HETATM   39  O   UNL     1     -12.502  11.450  62.875  1.00  0.00    -0.949 OA 
HETATM   40  H   UNL     1     -13.014  10.669  62.700  1.00  0.00     0.000 HD 
ENDBRANCH   4  38
TORSDOF 12
ENDMDL
MODEL      132
REMARK 921   NORMALIZED FREE ENERGY PREDICTED BY IDOCK:   -3.48 KCAL/MOL
REMARK 922        TOTAL FREE ENERGY PREDICTED BY IDOCK:   -6.96 KCAL/MOL
REMARK 923 INTER-LIGAND FREE ENERGY PREDICTED BY IDOCK:   -6.13 KCAL/MOL
REMARK 924 INTRA-LIGAND FREE ENERGY PREDICTED BY IDOCK:   -0.84 KCAL/MOL
REMARK 927      BINDING AFFINITY PREDICTED BY RF-SCORE:    0.00 PKD
ROOT
HETATM    1  C   UNL     1      -9.882   8.328  72.926  1.00  0.00    -0.233 C  
HETATM    2  N   UNL     1     -10.800   7.744  71.953  1.00  0.00    -0.227 N  
HETATM    3  O   UNL     1     -12.665   8.645  72.955  1.00  0.00    -0.289 OA 
HETATM    4  C   UNL     1     -12.178   7.943  72.073  1.00  0.00    -0.317 C  
ENDROOT
BRANCH   2   5
HETATM    5  C   UNL     1     -10.199   6.993  70.894  1.00  0.00    -0.197 A  
HETATM    6  I   UNL     1      -9.832   9.831  69.712  1.00  0.00    -0.270 I  
HETATM    7  C   UNL     1      -9.993   5.598  71.047  1.00  0.00    -0.192 A  
HETATM    8  C   UNL     1      -9.460   4.840  69.984  1.00  0.00    -0.240 A  
HETATM    9  C   UNL     1      -9.813   7.646  69.695  1.00  0.00    -0.181 A  
HETATM   10  I   UNL     1     -10.480   4.701  72.960  1.00  0.00    -0.319 I  
HETATM   11  C   UNL     1      -9.345   6.901  68.583  1.00  0.00    -0.135 A  
HETATM   12  I   UNL     1      -8.952   4.254  66.964  1.00  0.00    -0.174 I  
HETATM   13  C   UNL     1      -9.226   5.489  68.733  1.00  0.00    -0.122 A  
BRANCH   8  14
HETATM   14  C   UNL     1      -8.977   3.438  70.187  1.00  0.00    -0.106 C  
HETATM   15  H   UNL     1      -9.590   1.571  70.259  1.00  0.00     0.000 HD 
HETATM   16  O   UNL     1      -9.896   2.461  70.131  1.00  0.00     0.018 OA 
BRANCH  14  17
HETATM   17  N   UNL     1      -7.745   3.180  70.416  1.00  0.00    -0.043 NA 
HETATM   18  H   UNL     1      -7.029   3.387  69.719  1.00  0.00     0.000 HD 
BRANCH  17  19
HETATM   19  C   UNL     1      -7.385   2.578  71.709  1.00  0.00    -0.040 C  
BRANCH  19  20
HETATM   20  C   UNL     1      -5.954   2.987  72.078  1.00  0.00    -0.013 C  
HETATM   21  H   UNL     1      -4.301   3.468  71.120  1.00  0.00     0.000 HD 
HETATM   22  O   UNL     1      -5.188   3.215  70.890  1.00  0.00    -0.003 OA 
BRANCH  20  23
HETATM   23  C   UNL     1      -5.948   4.239  72.971  1.00  0.00    -0.012 C  
HETATM   24  O   UNL     1      -6.769   5.275  72.432  1.00  0.00    -0.063 OA 
HETATM   25  H   UNL     1      -6.765   6.048  72.984  1.00  0.00     0.000 HD 
ENDBRANCH  20  23
ENDBRANCH  19  20
ENDBRANCH  17  19
ENDBRANCH  14  17
ENDBRANCH   8  14
BRANCH  11  26
HETATM   26  C   UNL     1      -8.992   7.614  67.310  1.00  0.00    -0.127 C  
HETATM   27  O   UNL     1      -7.691   7.929  67.146  1.00  0.00    -0.098 OA 
HETATM   28  H   UNL     1      -7.467   8.381  66.340  1.00  0.00     0.000 HD 
BRANCH  26  29
HETATM   29  N   UNL     1      -9.867   7.973  66.445  1.00  0.00    -0.412 NA 
HETATM   30  H   UNL     1     -10.430   7.275  65.959  1.00  0.00     0.000 HD 
BRANCH  29  31
HETATM   31  C   UNL     1     -10.047   9.405  66.161  1.00  0.00    -0.254 C  
BRANCH  31  32
HETATM   32  C   UNL     1      -9.226   9.871  64.936  1.00  0.00    -0.246 C  
HETATM   33  O   UNL     1      -8.780   8.773  64.126  1.00  0.00    -0.388 OA 
HETATM   34  H   UNL     1      -8.275   9.059  63.373  1.00  0.00     0.000 HD 
BRANCH  32  35
HETATM   35  C   UNL     1     -10.073  10.800  64.050  1.00  0.00    -0.345 C  
HETATM   36  O   UNL     1     -10.876  11.700  64.814  1.00  0.00    -0.297 OA 
HETATM   37  H   UNL     1     -11.400  12.273  64.267  1.00  0.00     0.000 HD 
ENDBRANCH  32  35
ENDBRANCH  31  32
ENDBRANCH  29  31
ENDBRANCH  26  29
ENDBRANCH  11  26
ENDBRANCH   2   5
BRANCH   4  38
HETATM   38  C   UNL     1     -13.103   7.227  71.071  1.00  0.00    -0.137 C  
HETATM   39  O   UNL     1     -14.369   7.853  70.992  1.00  0.00    -0.662 OA 
HETATM   40  H   UNL     1     -14.940   7.411  70.374  1.00  0.00     0.000 HD 
ENDBRANCH   4  38
TORSDOF 12
ENDMDL
MODEL      133
REMARK 921   NORMALIZED FREE ENERGY PREDICTED BY IDOCK:   -3.47 KCAL/MOL
REMARK 922        TOTAL FREE ENERGY PREDICTED BY IDOCK:   -6.94 KCAL/MOL
REMARK 923 INTER-LIGAND FREE ENERGY PREDICTED BY IDOCK:   -6.70 KCAL/MOL
REMARK 924 INTRA-LIGAND FREE ENERGY PREDICTED BY IDOCK:   -0.24 KCAL/MOL
REMARK 927      BINDING AFFINITY PREDICTED BY RF-SCORE:    0.00 PKD
ROOT
HETATM    1  C   UNL     1      -8.355   9.588  63.293  1.00  0.00    -0.181 C  
HETATM    2  N   UNL     1      -7.746   9.354  64.599  1.00  0.00    -0.112 N  
HETATM    3  O   UNL     1      -5.792  10.434  64.042  1.00  0.00    -0.141 OA 
HETATM    4  C   UNL     1      -6.447   9.797  64.863  1.00  0.00    -0.100 C  
ENDROOT
BRANCH   2   5
HETATM    5  C   UNL     1      -8.559   8.674  65.559  1.00  0.00    -0.175 A  
HETATM    6  I   UNL     1      -9.462  11.574  66.160  1.00  0.00    -0.243 I  
HETATM    7  C   UNL     1      -8.606   7.256  65.567  1.00  0.00    -0.075 A  
HETATM    8  C   UNL     1      -9.355   6.578  66.551  1.00  0.00    -0.188 A  
HETATM    9  C   UNL     1      -9.315   9.421  66.499  1.00  0.00    -0.171 A  
HETATM   10  I   UNL     1      -7.534   6.193  64.011  1.00  0.00    -0.098 I  
HETATM   11  C   UNL     1     -10.017   8.768  67.545  1.00  0.00    -0.254 A  
HETATM   12  I   UNL     1     -10.642   6.312  69.378  1.00  0.00    -0.447 I  
HETATM   13  C   UNL     1      -9.980   7.345  67.582  1.00  0.00    -0.167 A  
BRANCH   8  14
HETATM   14  C   UNL     1      -9.651   5.115  66.440  1.00  0.00    -0.161 C  
HETATM   15  H   UNL     1     -11.006   3.840  65.805  1.00  0.00     0.000 HD 
HETATM   16  O   UNL     1     -10.818   4.768  65.876  1.00  0.00    -0.304 OA 
BRANCH  14  17
HETATM   17  N   UNL     1      -8.833   4.232  66.875  1.00  0.00    -0.113 NA 
HETATM   18  H   UNL     1      -7.825   4.389  66.838  1.00  0.00     0.000 HD 
BRANCH  17  19
HETATM   19  C   UNL     1      -9.381   2.985  67.430  1.00  0.00    -0.175 C  
BRANCH  19  20
HETATM   20  C   UNL     1      -8.285   2.255  68.217  1.00  0.00    -0.057 C  
HETATM   21  H   UNL     1      -6.483   2.668  68.897  1.00  0.00     0.000 HD 
HETATM   22  O   UNL     1      -7.162   3.121  68.409  1.00  0.00    -0.049 OA 
BRANCH  20  23
HETATM   23  C   UNL     1      -8.816   1.753  69.571  1.00  0.00    -0.074 C  
HETATM   24  O   UNL     1      -9.534   2.771  70.266  1.00  0.00    -0.145 OA 
HETATM   25  H   UNL     1      -9.862   2.461  71.102  1.00  0.00     0.000 HD 
ENDBRANCH  20  23
ENDBRANCH  19  20
ENDBRANCH  17  19
ENDBRANCH  14  17
ENDBRANCH   8  14
BRANCH  11  26
HETATM   26  C   UNL     1     -10.767   9.587  68.556  1.00  0.00    -0.182 C  
HETATM   27  O   UNL     1     -11.848  10.251  68.098  1.00  0.00    -0.737 OA 
HETATM   28  H   UNL     1     -12.323  10.770  68.738  1.00  0.00     0.000 HD 
BRANCH  26  29
HETATM   29  N   UNL     1     -10.385   9.716  69.772  1.00  0.00    -0.223 NA 
HETATM   30  H   UNL     1      -9.457   9.405  70.059  1.00  0.00     0.000 HD 
BRANCH  29  31
HETATM   31  C   UNL     1     -11.304  10.319  70.750  1.00  0.00    -0.337 C  
BRANCH  31  32
HETATM   32  C   UNL     1     -12.202   9.266  71.441  1.00  0.00    -0.349 C  
HETATM   33  O   UNL     1     -11.477   8.460  72.383  1.00  0.00    -0.367 OA 
HETATM   34  H   UNL     1     -12.029   7.813  72.808  1.00  0.00     0.000 HD 
BRANCH  32  35
HETATM   35  C   UNL     1     -13.351   9.959  72.195  1.00  0.00    -0.399 C  
HETATM   36  O   UNL     1     -13.227  11.381  72.187  1.00  0.00    -0.576 OA 
HETATM   37  H   UNL     1     -13.936  11.809  72.653  1.00  0.00     0.000 HD 
ENDBRANCH  32  35
ENDBRANCH  31  32
ENDBRANCH  29  31
ENDBRANCH  26  29
ENDBRANCH  11  26
ENDBRANCH   2   5
BRANCH   4  38
HETATM   38  C   UNL     1      -5.823   9.440  66.224  1.00  0.00    -0.058 C  
HETATM   39  O   UNL     1      -5.636  10.589  67.028  1.00  0.00    -0.041 OA 
HETATM   40  H   UNL     1      -5.251  10.369  67.869  1.00  0.00     0.000 HD 
ENDBRANCH   4  38
TORSDOF 12
ENDMDL
MODEL      134
REMARK 921   NORMALIZED FREE ENERGY PREDICTED BY IDOCK:   -3.47 KCAL/MOL
REMARK 922        TOTAL FREE ENERGY PREDICTED BY IDOCK:   -6.94 KCAL/MOL
REMARK 923 INTER-LIGAND FREE ENERGY PREDICTED BY IDOCK:   -6.02 KCAL/MOL
REMARK 924 INTRA-LIGAND FREE ENERGY PREDICTED BY IDOCK:   -0.92 KCAL/MOL
REMARK 927      BINDING AFFINITY PREDICTED BY RF-SCORE:    0.00 PKD
ROOT
HETATM    1  C   UNL     1     -11.165  14.296  69.486  1.00  0.00    -0.243 C  
HETATM    2  N   UNL     1     -11.000  13.361  68.377  1.00  0.00    -0.256 N  
HETATM    3  O   UNL     1     -12.745  14.257  67.174  1.00  0.00     0.043 OA 
HETATM    4  C   UNL     1     -11.861  13.410  67.277  1.00  0.00    -0.376 C  
ENDROOT
BRANCH   2   5
HETATM    5  C   UNL     1      -9.916  12.435  68.491  1.00  0.00    -0.170 A  
HETATM    6  I   UNL     1     -12.149  10.687  69.734  1.00  0.00    -0.152 I  
HETATM    7  C   UNL     1      -8.663  12.739  67.900  1.00  0.00    -0.185 A  
HETATM    8  C   UNL     1      -7.572  11.861  68.062  1.00  0.00    -0.122 A  
HETATM    9  C   UNL     1     -10.099  11.217  69.195  1.00  0.00    -0.112 A  
HETATM   10  I   UNL     1      -8.506  14.554  66.723  1.00  0.00     0.307 I  
HETATM   11  C   UNL     1      -9.002  10.350  69.438  1.00  0.00    -0.168 A  
HETATM   12  I   UNL     1      -5.950   9.692  69.608  1.00  0.00    -0.042 I  
HETATM   13  C   UNL     1      -7.734  10.719  68.907  1.00  0.00    -0.129 A  
BRANCH   8  14
HETATM   14  C   UNL     1      -6.325  12.001  67.245  1.00  0.00    -0.151 C  
HETATM   15  H   UNL     1      -4.557  12.860  67.229  1.00  0.00     0.000 HD 
HETATM   16  O   UNL     1      -5.348  12.772  67.748  1.00  0.00    -0.096 OA 
BRANCH  14  17
HETATM   17  N   UNL     1      -6.200  11.421  66.111  1.00  0.00    -0.361 NA 
HETATM   18  H   UNL     1      -5.360  11.552  65.547  1.00  0.00     0.000 HD 
BRANCH  17  19
HETATM   19  C   UNL     1      -7.297  10.561  65.641  1.00  0.00    -0.126 C  
BRANCH  19  20
HETATM   20  C   UNL     1      -6.800   9.696  64.475  1.00  0.00    -0.107 C  
HETATM   21  H   UNL     1      -5.598   8.154  64.238  1.00  0.00     0.000 HD 
HETATM   22  O   UNL     1      -5.906   8.689  64.960  1.00  0.00    -0.047 OA 
BRANCH  20  23
HETATM   23  C   UNL     1      -7.977   9.054  63.721  1.00  0.00    -0.147 C  
HETATM   24  O   UNL     1      -9.077   8.785  64.590  1.00  0.00    -0.429 OA 
HETATM   25  H   UNL     1      -9.803   8.389  64.123  1.00  0.00     0.000 HD 
ENDBRANCH  20  23
ENDBRANCH  19  20
ENDBRANCH  17  19
ENDBRANCH  14  17
ENDBRANCH   8  14
BRANCH  11  26
HETATM   26  C   UNL     1      -9.215   9.092  70.230  1.00  0.00    -0.218 C  
HETATM   27  O   UNL     1      -9.500   7.982  69.518  1.00  0.00    -0.159 OA 
HETATM   28  H   UNL     1      -9.635   7.186  70.019  1.00  0.00     0.000 HD 
BRANCH  26  29
HETATM   29  N   UNL     1      -9.199   9.062  71.511  1.00  0.00    -0.303 NA 
HETATM   30  H   UNL     1      -8.490   9.579  72.031  1.00  0.00     0.000 HD 
BRANCH  29  31
HETATM   31  C   UNL     1     -10.216   8.272  72.221  1.00  0.00    -0.305 C  
BRANCH  31  32
HETATM   32  C   UNL     1      -9.606   7.391  73.336  1.00  0.00    -0.249 C  
HETATM   33  O   UNL     1     -10.608   6.800  74.178  1.00  0.00    -0.454 OA 
HETATM   34  H   UNL     1     -10.233   6.259  74.864  1.00  0.00     0.000 HD 
BRANCH  32  35
HETATM   35  C   UNL     1      -8.774   6.252  72.720  1.00  0.00    -0.126 C  
HETATM   36  O   UNL     1      -9.177   5.944  71.386  1.00  0.00    -0.146 OA 
HETATM   37  H   UNL     1      -8.664   5.242  71.005  1.00  0.00     0.000 HD 
ENDBRANCH  32  35
ENDBRANCH  31  32
ENDBRANCH  29  31
ENDBRANCH  26  29
ENDBRANCH  11  26
ENDBRANCH   2   5
BRANCH   4  38
HETATM   38  C   UNL     1     -11.698  12.342  66.181  1.00  0.00    -0.376 C  
HETATM   39  O   UNL     1     -12.726  12.427  65.213  1.00  0.00    -0.617 OA 
HETATM   40  H   UNL     1     -12.625  11.767  64.536  1.00  0.00     0.000 HD 
ENDBRANCH   4  38
TORSDOF 12
ENDMDL
MODEL      135
REMARK 921   NORMALIZED FREE ENERGY PREDICTED BY IDOCK:   -3.46 KCAL/MOL
REMARK 922        TOTAL FREE ENERGY PREDICTED BY IDOCK:   -6.93 KCAL/MOL
REMARK 923 INTER-LIGAND FREE ENERGY PREDICTED BY IDOCK:   -6.53 KCAL/MOL
REMARK 924 INTRA-LIGAND FREE ENERGY PREDICTED BY IDOCK:   -0.40 KCAL/MOL
REMARK 927      BINDING AFFINITY PREDICTED BY RF-SCORE:    0.00 PKD
ROOT
HETATM    1  C   UNL     1      -6.569  13.177  70.006  1.00  0.00     0.183 C  
HETATM    2  N   UNL     1      -6.827  12.831  68.612  1.00  0.00    -0.093 N  
HETATM    3  O   UNL     1      -5.224  11.182  68.573  1.00  0.00    -0.044 OA 
HETATM    4  C   UNL     1      -6.080  11.833  67.981  1.00  0.00    -0.049 C  
ENDROOT
BRANCH   2   5
HETATM    5  C   UNL     1      -7.880  13.555  67.969  1.00  0.00    -0.147 A  
HETATM    6  I   UNL     1      -9.527  11.127  68.959  1.00  0.00     0.207 I  
HETATM    7  C   UNL     1      -7.636  14.859  67.468  1.00  0.00    -0.195 A  
HETATM    8  C   UNL     1      -8.651  15.554  66.778  1.00  0.00    -0.307 A  
HETATM    9  C   UNL     1      -9.163  12.964  67.834  1.00  0.00    -0.208 A  
HETATM   10  I   UNL     1      -5.692  15.745  67.838  1.00  0.00    -0.130 I  
HETATM   11  C   UNL     1     -10.179  13.606  67.080  1.00  0.00    -0.244 A  
HETATM   12  I   UNL     1     -11.208  15.702  65.000  1.00  0.00    -0.091 I  
HETATM   13  C   UNL     1      -9.883  14.879  66.515  1.00  0.00    -0.266 A  
BRANCH   8  14
HETATM   14  C   UNL     1      -8.533  17.014  66.473  1.00  0.00    -0.271 C  
HETATM   15  H   UNL     1      -7.471  18.315  65.450  1.00  0.00     0.000 HD 
HETATM   16  O   UNL     1      -7.546  17.388  65.644  1.00  0.00    -0.434 OA 
BRANCH  14  17
HETATM   17  N   UNL     1      -9.329  17.873  66.990  1.00  0.00    -0.261 NA 
HETATM   18  H   UNL     1      -9.971  18.409  66.405  1.00  0.00     0.000 HD 
BRANCH  17  19
HETATM   19  C   UNL     1      -9.298  18.066  68.448  1.00  0.00    -0.300 C  
BRANCH  19  20
HETATM   20  C   UNL     1      -8.637  19.413  68.767  1.00  0.00    -0.335 C  
HETATM   21  H   UNL     1      -8.911  20.883  70.049  1.00  0.00     0.000 HD 
HETATM   22  O   UNL     1      -9.321  20.049  69.851  1.00  0.00     0.298 OA 
BRANCH  20  23
HETATM   23  C   UNL     1      -7.146  19.233  69.101  1.00  0.00    -0.335 C  
HETATM   24  O   UNL     1      -6.778  19.958  70.274  1.00  0.00    -0.276 OA 
HETATM   25  H   UNL     1      -5.857  19.847  70.481  1.00  0.00     0.000 HD 
ENDBRANCH  20  23
ENDBRANCH  19  20
ENDBRANCH  17  19
ENDBRANCH  14  17
ENDBRANCH   8  14
BRANCH  11  26
HETATM   26  C   UNL     1     -11.511  12.933  66.911  1.00  0.00    -0.341 C  
HETATM   27  O   UNL     1     -12.505  13.375  67.710  1.00  0.00    -0.173 OA 
HETATM   28  H   UNL     1     -13.348  12.949  67.604  1.00  0.00     0.000 HD 
BRANCH  26  29
HETATM   29  N   UNL     1     -11.702  11.952  66.110  1.00  0.00    -0.496 NA 
HETATM   30  H   UNL     1     -12.566  11.411  66.150  1.00  0.00     0.000 HD 
BRANCH  29  31
HETATM   31  C   UNL     1     -10.657  11.614  65.131  1.00  0.00    -0.290 C  
BRANCH  31  32
HETATM   32  C   UNL     1     -10.923  12.245  63.744  1.00  0.00    -0.435 C  
HETATM   33  O   UNL     1      -9.895  11.930  62.792  1.00  0.00    -0.472 OA 
HETATM   34  H   UNL     1     -10.058  12.318  61.940  1.00  0.00     0.000 HD 
BRANCH  32  35
HETATM   35  C   UNL     1     -12.263  11.742  63.179  1.00  0.00    -0.156 C  
HETATM   36  O   UNL     1     -13.381  12.198  63.941  1.00  0.00    -0.711 OA 
HETATM   37  H   UNL     1     -14.208  11.888  63.592  1.00  0.00     0.000 HD 
ENDBRANCH  32  35
ENDBRANCH  31  32
ENDBRANCH  29  31
ENDBRANCH  26  29
ENDBRANCH  11  26
ENDBRANCH   2   5
BRANCH   4  38
HETATM   38  C   UNL     1      -6.333  11.574  66.484  1.00  0.00    -0.054 C  
HETATM   39  O   UNL     1      -7.025  10.358  66.276  1.00  0.00    -0.104 OA 
HETATM   40  H   UNL     1      -7.182  10.198  65.352  1.00  0.00     0.000 HD 
ENDBRANCH   4  38
TORSDOF 12
ENDMDL
MODEL      136
REMARK 921   NORMALIZED FREE ENERGY PREDICTED BY IDOCK:   -3.45 KCAL/MOL
REMARK 922        TOTAL FREE ENERGY PREDICTED BY IDOCK:   -6.90 KCAL/MOL
REMARK 923 INTER-LIGAND FREE ENERGY PREDICTED BY IDOCK:   -5.91 KCAL/MOL
REMARK 924 INTRA-LIGAND FREE ENERGY PREDICTED BY IDOCK:   -0.99 KCAL/MOL
REMARK 927      BINDING AFFINITY PREDICTED BY RF-SCORE:    0.00 PKD
ROOT
HETATM    1  C   UNL     1      -7.540   7.262  71.744  1.00  0.00    -0.086 C  
HETATM    2  N   UNL     1      -8.766   7.208  70.952  1.00  0.00    -0.145 N  
HETATM    3  O   UNL     1     -10.128   7.589  72.766  1.00  0.00    -0.198 OA 
HETATM    4  C   UNL     1     -10.012   7.359  71.566  1.00  0.00    -0.181 C  
ENDROOT
BRANCH   2   5
HETATM    5  C   UNL     1      -8.596   7.012  69.545  1.00  0.00    -0.134 A  
HETATM    6  I   UNL     1      -9.170   4.078  70.353  1.00  0.00    -0.251 I  
HETATM    7  C   UNL     1      -8.453   8.134  68.689  1.00  0.00    -0.127 A  
HETATM    8  C   UNL     1      -8.222   7.947  67.310  1.00  0.00    -0.122 A  
HETATM    9  C   UNL     1      -8.571   5.697  69.013  1.00  0.00    -0.105 A  
HETATM   10  I   UNL     1      -8.642  10.110  69.560  1.00  0.00    -0.029 I  
HETATM   11  C   UNL     1      -8.267   5.476  67.645  1.00  0.00    -0.101 A  
HETATM   12  I   UNL     1      -7.145   6.348  64.860  1.00  0.00    -0.071 I  
HETATM   13  C   UNL     1      -8.043   6.616  66.822  1.00  0.00    -0.113 A  
BRANCH   8  14
HETATM   14  C   UNL     1      -8.333   9.079  66.337  1.00  0.00    -0.115 C  
HETATM   15  H   UNL     1      -7.281  10.481  65.447  1.00  0.00     0.000 HD 
HETATM   16  O   UNL     1      -7.211   9.763  66.064  1.00  0.00    -0.095 OA 
BRANCH  14  17
HETATM   17  N   UNL     1      -9.451   9.390  65.797  1.00  0.00    -0.242 NA 
HETATM   18  H   UNL     1     -10.200   8.702  65.712  1.00  0.00     0.000 HD 
BRANCH  17  19
HETATM   19  C   UNL     1      -9.629  10.764  65.301  1.00  0.00    -0.229 C  
BRANCH  19  20
HETATM   20  C   UNL     1     -10.725  11.460  66.118  1.00  0.00    -0.267 C  
HETATM   21  H   UNL     1     -11.994  10.963  67.541  1.00  0.00     0.000 HD 
HETATM   22  O   UNL     1     -11.315  10.532  67.035  1.00  0.00    -0.266 OA 
BRANCH  20  23
HETATM   23  C   UNL     1     -10.165  12.679  66.871  1.00  0.00    -0.234 C  
HETATM   24  O   UNL     1      -8.848  13.010  66.433  1.00  0.00    -0.425 OA 
HETATM   25  H   UNL     1      -8.502  13.763  66.898  1.00  0.00     0.000 HD 
ENDBRANCH  20  23
ENDBRANCH  19  20
ENDBRANCH  17  19
ENDBRANCH  14  17
ENDBRANCH   8  14
BRANCH  11  26
HETATM   26  C   UNL     1      -8.198   4.070  67.121  1.00  0.00    -0.099 C  
HETATM   27  O   UNL     1      -7.021   3.431  67.288  1.00  0.00    -0.055 OA 
HETATM   28  H   UNL     1      -6.976   2.541  66.956  1.00  0.00     0.000 HD 
BRANCH  26  29
HETATM   29  N   UNL     1      -9.163   3.511  66.490  1.00  0.00    -0.164 NA 
HETATM   30  H   UNL     1     -10.079   3.414  66.928  1.00  0.00     0.000 HD 
BRANCH  29  31
HETATM   31  C   UNL     1      -8.931   3.012  65.126  1.00  0.00    -0.143 C  
BRANCH  31  32
HETATM   32  C   UNL     1     -10.067   3.407  64.153  1.00  0.00    -0.192 C  
HETATM   33  O   UNL     1     -10.843   4.514  64.638  1.00  0.00    -0.519 OA 
HETATM   34  H   UNL     1     -11.541   4.757  64.041  1.00  0.00     0.000 HD 
BRANCH  32  35
HETATM   35  C   UNL     1      -9.483   3.802  62.786  1.00  0.00    -0.110 C  
HETATM   36  O   UNL     1      -9.696   5.180  62.480  1.00  0.00    -0.345 OA 
HETATM   37  H   UNL     1      -9.336   5.423  61.635  1.00  0.00     0.000 HD 
ENDBRANCH  32  35
ENDBRANCH  31  32
ENDBRANCH  29  31
ENDBRANCH  26  29
ENDBRANCH  11  26
ENDBRANCH   2   5
BRANCH   4  38
HETATM   38  C   UNL     1     -11.272   7.200  70.695  1.00  0.00    -0.280 C  
HETATM   39  O   UNL     1     -11.717   8.445  70.192  1.00  0.00    -0.470 OA 
HETATM   40  H   UNL     1     -12.495   8.347  69.655  1.00  0.00     0.000 HD 
ENDBRANCH   4  38
TORSDOF 12
ENDMDL
MODEL      137
REMARK 921   NORMALIZED FREE ENERGY PREDICTED BY IDOCK:   -3.42 KCAL/MOL
REMARK 922        TOTAL FREE ENERGY PREDICTED BY IDOCK:   -6.86 KCAL/MOL
REMARK 923 INTER-LIGAND FREE ENERGY PREDICTED BY IDOCK:   -6.01 KCAL/MOL
REMARK 924 INTRA-LIGAND FREE ENERGY PREDICTED BY IDOCK:   -0.85 KCAL/MOL
REMARK 927      BINDING AFFINITY PREDICTED BY RF-SCORE:    0.00 PKD
ROOT
HETATM    1  C   UNL     1     -12.207  14.568  67.376  1.00  0.00    -0.130 C  
HETATM    2  N   UNL     1     -11.486  14.481  68.643  1.00  0.00    -0.277 N  
HETATM    3  O   UNL     1     -13.270  15.243  69.878  1.00  0.00     0.108 OA 
HETATM    4  C   UNL     1     -12.102  14.868  69.836  1.00  0.00    -0.332 C  
ENDROOT
BRANCH   2   5
HETATM    5  C   UNL     1     -10.151  13.971  68.572  1.00  0.00    -0.236 A  
HETATM    6  I   UNL     1      -9.489  16.995  68.578  1.00  0.00    -0.263 I  
HETATM    7  C   UNL     1      -9.922  12.576  68.693  1.00  0.00    -0.103 A  
HETATM    8  C   UNL     1      -8.617  12.060  68.561  1.00  0.00    -0.093 A  
HETATM    9  C   UNL     1      -9.064  14.862  68.379  1.00  0.00    -0.185 A  
HETATM   10  I   UNL     1     -11.619  11.299  69.126  1.00  0.00    -0.471 I  
HETATM   11  C   UNL     1      -7.752  14.366  68.168  1.00  0.00    -0.131 A  
HETATM   12  I   UNL     1      -5.699  12.115  67.462  1.00  0.00    -0.119 I  
HETATM   13  C   UNL     1      -7.560  12.956  68.210  1.00  0.00    -0.134 A  
BRANCH   8  14
HETATM   14  C   UNL     1      -8.289  10.650  68.945  1.00  0.00    -0.150 C  
HETATM   15  H   UNL     1      -7.544   9.562  70.402  1.00  0.00     0.000 HD 
HETATM   16  O   UNL     1      -7.752  10.457  70.159  1.00  0.00    -0.122 OA 
BRANCH  14  17
HETATM   17  N   UNL     1      -8.500   9.673  68.146  1.00  0.00    -0.118 NA 
HETATM   18  H   UNL     1      -8.617   9.832  67.145  1.00  0.00     0.000 HD 
BRANCH  17  19
HETATM   19  C   UNL     1      -8.571   8.315  68.706  1.00  0.00    -0.133 C  
BRANCH  19  20
HETATM   20  C   UNL     1      -8.758   7.305  67.567  1.00  0.00    -0.121 C  
HETATM   21  H   UNL     1      -9.209   5.394  67.398  1.00  0.00     0.000 HD 
HETATM   22  O   UNL     1      -9.093   6.020  68.103  1.00  0.00    -0.119 OA 
BRANCH  20  23
HETATM   23  C   UNL     1      -9.841   7.775  66.581  1.00  0.00    -0.225 C  
HETATM   24  O   UNL     1     -11.058   8.104  67.252  1.00  0.00    -0.451 OA 
HETATM   25  H   UNL     1     -11.726   8.394  66.643  1.00  0.00     0.000 HD 
ENDBRANCH  20  23
ENDBRANCH  19  20
ENDBRANCH  17  19
ENDBRANCH  14  17
ENDBRANCH   8  14
BRANCH  11  26
HETATM   26  C   UNL     1      -6.628  15.331  67.915  1.00  0.00    -0.157 C  
HETATM   27  O   UNL     1      -6.625  15.936  66.710  1.00  0.00    -0.254 OA 
HETATM   28  H   UNL     1      -5.914  16.546  66.549  1.00  0.00     0.000 HD 
BRANCH  26  29
HETATM   29  N   UNL     1      -5.681  15.534  68.754  1.00  0.00    -0.095 NA 
HETATM   30  H   UNL     1      -4.803  15.022  68.676  1.00  0.00     0.000 HD 
BRANCH  29  31
HETATM   31  C   UNL     1      -5.877  16.519  69.829  1.00  0.00    -0.196 C  
BRANCH  31  32
HETATM   32  C   UNL     1      -5.260  17.896  69.487  1.00  0.00    -0.186 C  
HETATM   33  O   UNL     1      -5.868  18.497  68.333  1.00  0.00    -0.183 OA 
HETATM   34  H   UNL     1      -5.489  19.342  68.122  1.00  0.00     0.000 HD 
BRANCH  32  35
HETATM   35  C   UNL     1      -5.431  18.864  70.670  1.00  0.00    -0.221 C  
HETATM   36  O   UNL     1      -6.173  20.031  70.316  1.00  0.00    -0.342 OA 
HETATM   37  H   UNL     1      -6.278  20.629  71.046  1.00  0.00     0.000 HD 
ENDBRANCH  32  35
ENDBRANCH  31  32
ENDBRANCH  29  31
ENDBRANCH  26  29
ENDBRANCH  11  26
ENDBRANCH   2   5
BRANCH   4  38
HETATM   38  C   UNL     1     -11.262  14.842  71.126  1.00  0.00    -0.143 C  
HETATM   39  O   UNL     1     -11.587  15.922  71.980  1.00  0.00    -0.423 OA 
HETATM   40  H   UNL     1     -11.069  15.906  72.777  1.00  0.00     0.000 HD 
ENDBRANCH   4  38
TORSDOF 12
ENDMDL
MODEL      138
REMARK 921   NORMALIZED FREE ENERGY PREDICTED BY IDOCK:   -3.42 KCAL/MOL
REMARK 922        TOTAL FREE ENERGY PREDICTED BY IDOCK:   -6.85 KCAL/MOL
REMARK 923 INTER-LIGAND FREE ENERGY PREDICTED BY IDOCK:   -6.43 KCAL/MOL
REMARK 924 INTRA-LIGAND FREE ENERGY PREDICTED BY IDOCK:   -0.43 KCAL/MOL
REMARK 927      BINDING AFFINITY PREDICTED BY RF-SCORE:    0.00 PKD
ROOT
HETATM    1  C   UNL     1      -9.818   8.811  72.099  1.00  0.00    -0.277 C  
HETATM    2  N   UNL     1     -10.904   8.554  71.158  1.00  0.00    -0.232 N  
HETATM    3  O   UNL     1     -12.449   8.176  72.819  1.00  0.00    -0.213 OA 
HETATM    4  C   UNL     1     -12.178   8.219  71.622  1.00  0.00    -0.313 C  
ENDROOT
BRANCH   2   5
HETATM    5  C   UNL     1     -10.577   8.684  69.771  1.00  0.00    -0.224 A  
HETATM    6  I   UNL     1     -10.301   5.610  70.023  1.00  0.00    -0.368 I  
HETATM    7  C   UNL     1     -10.713   9.942  69.129  1.00  0.00    -0.224 A  
HETATM    8  C   UNL     1     -10.333  10.092  67.780  1.00  0.00    -0.253 A  
HETATM    9  C   UNL     1     -10.117   7.555  69.045  1.00  0.00    -0.192 A  
HETATM   10  I   UNL     1     -11.554  11.582  70.271  1.00  0.00     0.173 I  
HETATM   11  C   UNL     1      -9.658   7.692  67.710  1.00  0.00    -0.169 A  
HETATM   12  I   UNL     1      -8.643   9.357  65.265  1.00  0.00    -0.236 I  
HETATM   13  C   UNL     1      -9.726   8.983  67.113  1.00  0.00    -0.181 A  
BRANCH   8  14
HETATM   14  C   UNL     1     -10.706  11.310  66.992  1.00  0.00    -0.260 C  
HETATM   15  H   UNL     1     -12.099  12.041  65.814  1.00  0.00     0.000 HD 
HETATM   16  O   UNL     1     -11.863  11.269  66.314  1.00  0.00    -0.142 OA 
BRANCH  14  17
HETATM   17  N   UNL     1      -9.948  12.341  66.956  1.00  0.00    -0.209 NA 
HETATM   18  H   UNL     1      -8.994  12.301  67.314  1.00  0.00     0.000 HD 
BRANCH  17  19
HETATM   19  C   UNL     1     -10.487  13.584  66.384  1.00  0.00    -0.287 C  
BRANCH  19  20
HETATM   20  C   UNL     1      -9.428  14.689  66.482  1.00  0.00    -0.297 C  
HETATM   21  H   UNL     1      -9.383  16.602  66.952  1.00  0.00     0.000 HD 
HETATM   22  O   UNL     1     -10.040  15.917  66.891  1.00  0.00    -0.253 OA 
BRANCH  20  23
HETATM   23  C   UNL     1      -8.305  14.296  67.458  1.00  0.00    -0.188 C  
HETATM   24  O   UNL     1      -7.949  15.379  68.316  1.00  0.00    -0.124 OA 
HETATM   25  H   UNL     1      -7.256  15.136  68.918  1.00  0.00     0.000 HD 
ENDBRANCH  20  23
ENDBRANCH  19  20
ENDBRANCH  17  19
ENDBRANCH  14  17
ENDBRANCH   8  14
BRANCH  11  26
HETATM   26  C   UNL     1      -9.129   6.489  66.983  1.00  0.00    -0.128 C  
HETATM   27  O   UNL     1      -7.933   6.023  67.397  1.00  0.00    -0.101 OA 
HETATM   28  H   UNL     1      -7.597   5.262  66.937  1.00  0.00     0.000 HD 
BRANCH  26  29
HETATM   29  N   UNL     1      -9.728   5.959  65.982  1.00  0.00    -0.357 NA 
HETATM   30  H   UNL     1     -10.673   6.248  65.732  1.00  0.00     0.000 HD 
BRANCH  29  31
HETATM   31  C   UNL     1      -9.032   4.927  65.197  1.00  0.00    -0.152 C  
BRANCH  31  32
HETATM   32  C   UNL     1     -10.007   3.886  64.597  1.00  0.00    -0.204 C  
HETATM   33  O   UNL     1     -11.334   4.007  65.132  1.00  0.00    -0.711 OA 
HETATM   34  H   UNL     1     -11.933   3.367  64.764  1.00  0.00     0.000 HD 
BRANCH  32  35
HETATM   35  C   UNL     1     -10.094   4.056  63.071  1.00  0.00    -0.139 C  
HETATM   36  O   UNL     1      -9.087   4.932  62.562  1.00  0.00    -0.192 OA 
HETATM   37  H   UNL     1      -9.141   5.037  61.620  1.00  0.00     0.000 HD 
ENDBRANCH  32  35
ENDBRANCH  31  32
ENDBRANCH  29  31
ENDBRANCH  26  29
ENDBRANCH  11  26
ENDBRANCH   2   5
BRANCH   4  38
HETATM   38  C   UNL     1     -13.259   7.869  70.583  1.00  0.00     0.576 C  
HETATM   39  O   UNL     1     -14.392   8.707  70.709  1.00  0.00    -0.551 OA 
HETATM   40  H   UNL     1     -15.060   8.491  70.067  1.00  0.00     0.000 HD 
ENDBRANCH   4  38
TORSDOF 12
ENDMDL
MODEL      139
REMARK 921   NORMALIZED FREE ENERGY PREDICTED BY IDOCK:   -3.41 KCAL/MOL
REMARK 922        TOTAL FREE ENERGY PREDICTED BY IDOCK:   -6.84 KCAL/MOL
REMARK 923 INTER-LIGAND FREE ENERGY PREDICTED BY IDOCK:   -6.15 KCAL/MOL
REMARK 924 INTRA-LIGAND FREE ENERGY PREDICTED BY IDOCK:   -0.69 KCAL/MOL
REMARK 927      BINDING AFFINITY PREDICTED BY RF-SCORE:    0.00 PKD
ROOT
HETATM    1  C   UNL     1      -7.064   5.919  66.244  1.00  0.00    -0.068 C  
HETATM    2  N   UNL     1      -8.460   5.669  66.594  1.00  0.00    -0.112 N  
HETATM    3  O   UNL     1      -8.902   4.549  64.634  1.00  0.00    -0.140 OA 
HETATM    4  C   UNL     1      -9.302   4.996  65.706  1.00  0.00    -0.160 C  
ENDROOT
BRANCH   2   5
HETATM    5  C   UNL     1      -8.878   6.136  67.880  1.00  0.00    -0.111 A  
HETATM    6  I   UNL     1      -7.531   3.492  68.765  1.00  0.00    -0.052 I  
HETATM    7  C   UNL     1      -9.437   7.433  68.013  1.00  0.00    -0.141 A  
HETATM    8  C   UNL     1      -9.910   7.876  69.265  1.00  0.00    -0.177 A  
HETATM    9  C   UNL     1      -8.733   5.299  69.017  1.00  0.00    -0.100 A  
HETATM   10  I   UNL     1      -9.495   8.701  66.255  1.00  0.00    -0.244 I  
HETATM   11  C   UNL     1      -9.266   5.687  70.273  1.00  0.00    -0.178 A  
HETATM   12  I   UNL     1     -11.115   7.421  72.105  1.00  0.00    -0.378 I  
HETATM   13  C   UNL     1      -9.899   6.959  70.362  1.00  0.00    -0.179 A  
BRANCH   8  14
HETATM   14  C   UNL     1     -10.253   9.312  69.510  1.00  0.00    -0.207 C  
HETATM   15  H   UNL     1      -9.638  10.926  70.448  1.00  0.00     0.000 HD 
HETATM   16  O   UNL     1      -9.420  10.015  70.293  1.00  0.00    -0.179 OA 
BRANCH  14  17
HETATM   17  N   UNL     1     -11.302   9.845  69.006  1.00  0.00    -0.458 NA 
HETATM   18  H   UNL     1     -11.847   9.356  68.295  1.00  0.00     0.000 HD 
BRANCH  17  19
HETATM   19  C   UNL     1     -11.704  11.179  69.478  1.00  0.00    -0.335 C  
BRANCH  19  20
HETATM   20  C   UNL     1     -11.278  12.231  68.446  1.00  0.00    -0.266 C  
HETATM   21  H   UNL     1      -9.596  13.064  67.851  1.00  0.00     0.000 HD 
HETATM   22  O   UNL     1      -9.859  12.412  68.490  1.00  0.00    -0.212 OA 
BRANCH  20  23
HETATM   23  C   UNL     1     -11.728  11.833  67.030  1.00  0.00    -0.167 C  
HETATM   24  O   UNL     1     -11.899  12.974  66.191  1.00  0.00    -0.370 OA 
HETATM   25  H   UNL     1     -12.176  12.728  65.316  1.00  0.00     0.000 HD 
ENDBRANCH  20  23
ENDBRANCH  19  20
ENDBRANCH  17  19
ENDBRANCH  14  17
ENDBRANCH   8  14
BRANCH  11  26
HETATM   26  C   UNL     1      -9.143   4.758  71.447  1.00  0.00    -0.135 C  
HETATM   27  O   UNL     1     -10.110   3.825  71.571  1.00  0.00    -0.157 OA 
HETATM   28  H   UNL     1     -10.032   3.237  72.313  1.00  0.00     0.000 HD 
BRANCH  26  29
HETATM   29  N   UNL     1      -8.220   4.866  72.329  1.00  0.00    -0.117 NA 
HETATM   30  H   UNL     1      -7.244   4.955  72.048  1.00  0.00     0.000 HD 
BRANCH  29  31
HETATM   31  C   UNL     1      -8.589   4.861  73.753  1.00  0.00    -0.103 C  
BRANCH  31  32
HETATM   32  C   UNL     1      -8.067   3.606  74.492  1.00  0.00    -0.081 C  
HETATM   33  O   UNL     1      -8.842   2.434  74.196  1.00  0.00    -0.072 OA 
HETATM   34  H   UNL     1      -8.521   1.663  74.651  1.00  0.00     0.000 HD 
BRANCH  32  35
HETATM   35  C   UNL     1      -6.608   3.323  74.094  1.00  0.00    -0.034 C  
HETATM   36  O   UNL     1      -6.508   2.372  73.034  1.00  0.00    -0.013 OA 
HETATM   37  H   UNL     1      -5.607   2.197  72.788  1.00  0.00     0.000 HD 
ENDBRANCH  32  35
ENDBRANCH  31  32
ENDBRANCH  29  31
ENDBRANCH  26  29
ENDBRANCH  11  26
ENDBRANCH   2   5
BRANCH   4  38
HETATM   38  C   UNL     1     -10.786   4.842  66.090  1.00  0.00    -0.184 C  
HETATM   39  O   UNL     1     -11.535   4.253  65.045  1.00  0.00    -1.020 OA 
HETATM   40  H   UNL     1     -12.451   4.159  65.281  1.00  0.00     0.000 HD 
ENDBRANCH   4  38
TORSDOF 12
ENDMDL
MODEL      140
REMARK 921   NORMALIZED FREE ENERGY PREDICTED BY IDOCK:   -3.40 KCAL/MOL
REMARK 922        TOTAL FREE ENERGY PREDICTED BY IDOCK:   -6.83 KCAL/MOL
REMARK 923 INTER-LIGAND FREE ENERGY PREDICTED BY IDOCK:   -6.21 KCAL/MOL
REMARK 924 INTRA-LIGAND FREE ENERGY PREDICTED BY IDOCK:   -0.62 KCAL/MOL
REMARK 927      BINDING AFFINITY PREDICTED BY RF-SCORE:    0.00 PKD
ROOT
HETATM    1  C   UNL     1     -10.163   1.481  71.873  1.00  0.00    -0.137 C  
HETATM    2  N   UNL     1      -9.231   2.604  71.905  1.00  0.00    -0.087 N  
HETATM    3  O   UNL     1      -7.985   1.710  73.620  1.00  0.00    -0.040 OA 
HETATM    4  C   UNL     1      -8.189   2.633  72.836  1.00  0.00    -0.070 C  
ENDROOT
BRANCH   2   5
HETATM    5  C   UNL     1      -9.448   3.629  70.930  1.00  0.00    -0.165 A  
HETATM    6  I   UNL     1     -10.823   4.991  73.347  1.00  0.00    -0.376 I  
HETATM    7  C   UNL     1      -8.849   3.523  69.649  1.00  0.00    -0.091 A  
HETATM    8  C   UNL     1      -9.110   4.496  68.663  1.00  0.00    -0.164 A  
HETATM    9  C   UNL     1     -10.264   4.745  71.250  1.00  0.00    -0.158 A  
HETATM   10  I   UNL     1      -7.505   1.860  69.288  1.00  0.00    -0.046 I  
HETATM   11  C   UNL     1     -10.604   5.699  70.257  1.00  0.00    -0.370 A  
HETATM   12  I   UNL     1     -10.879   6.670  67.297  1.00  0.00    -0.308 I  
HETATM   13  C   UNL     1     -10.058   5.526  68.954  1.00  0.00    -0.198 A  
BRANCH   8  14
HETATM   14  C   UNL     1      -8.301   4.575  67.406  1.00  0.00    -0.104 C  
HETATM   15  H   UNL     1      -6.919   5.643  66.503  1.00  0.00     0.000 HD 
HETATM   16  O   UNL     1      -7.433   5.593  67.301  1.00  0.00    -0.082 OA 
BRANCH  14  17
HETATM   17  N   UNL     1      -8.438   3.717  66.467  1.00  0.00    -0.105 NA 
HETATM   18  H   UNL     1      -8.451   2.717  66.670  1.00  0.00     0.000 HD 
BRANCH  17  19
HETATM   19  C   UNL     1      -8.578   4.207  65.087  1.00  0.00    -0.116 C  
BRANCH  19  20
HETATM   20  C   UNL     1      -9.255   3.129  64.231  1.00  0.00    -0.131 C  
HETATM   21  H   UNL     1     -10.846   2.998  63.076  1.00  0.00     0.000 HD 
HETATM   22  O   UNL     1     -10.426   3.666  63.606  1.00  0.00    -0.219 OA 
BRANCH  20  23
HETATM   23  C   UNL     1      -8.287   2.571  63.174  1.00  0.00    -0.081 C  
HETATM   24  O   UNL     1      -7.652   3.616  62.437  1.00  0.00    -0.054 OA 
HETATM   25  H   UNL     1      -7.055   3.271  61.784  1.00  0.00     0.000 HD 
ENDBRANCH  20  23
ENDBRANCH  19  20
ENDBRANCH  17  19
ENDBRANCH  14  17
ENDBRANCH   8  14
BRANCH  11  26
HETATM   26  C   UNL     1     -11.511   6.843  70.611  1.00  0.00    -0.336 C  
HETATM   27  O   UNL     1     -12.800   6.719  70.232  1.00  0.00    -0.388 OA 
HETATM   28  H   UNL     1     -13.374   7.442  70.456  1.00  0.00     0.000 HD 
BRANCH  26  29
HETATM   29  N   UNL     1     -11.095   7.913  71.180  1.00  0.00    -0.251 NA 
HETATM   30  H   UNL     1     -11.176   8.027  72.190  1.00  0.00     0.000 HD 
BRANCH  29  31
HETATM   31  C   UNL     1     -10.500   8.977  70.356  1.00  0.00    -0.213 C  
BRANCH  31  32
HETATM   32  C   UNL     1     -11.321  10.287  70.401  1.00  0.00    -0.332 C  
HETATM   33  O   UNL     1     -11.936  10.590  69.139  1.00  0.00    -0.504 OA 
HETATM   34  H   UNL     1     -12.441  11.395  69.166  1.00  0.00     0.000 HD 
BRANCH  32  35
HETATM   35  C   UNL     1     -12.434  10.181  71.457  1.00  0.00    -0.427 C  
HETATM   36  O   UNL     1     -13.619   9.576  70.941  1.00  0.00    -0.589 OA 
HETATM   37  H   UNL     1     -14.307   9.512  71.594  1.00  0.00     0.000 HD 
ENDBRANCH  32  35
ENDBRANCH  31  32
ENDBRANCH  29  31
ENDBRANCH  26  29
ENDBRANCH  11  26
ENDBRANCH   2   5
BRANCH   4  38
HETATM   38  C   UNL     1      -7.294   3.885  72.883  1.00  0.00    -0.064 C  
HETATM   39  O   UNL     1      -5.957   3.582  72.531  1.00  0.00    -0.008 OA 
HETATM   40  H   UNL     1      -5.405   4.355  72.560  1.00  0.00     0.000 HD 
ENDBRANCH   4  38
TORSDOF 12
ENDMDL
MODEL      141
REMARK 921   NORMALIZED FREE ENERGY PREDICTED BY IDOCK:   -3.39 KCAL/MOL
REMARK 922        TOTAL FREE ENERGY PREDICTED BY IDOCK:   -6.81 KCAL/MOL
REMARK 923 INTER-LIGAND FREE ENERGY PREDICTED BY IDOCK:   -5.92 KCAL/MOL
REMARK 924 INTRA-LIGAND FREE ENERGY PREDICTED BY IDOCK:   -0.89 KCAL/MOL
REMARK 927      BINDING AFFINITY PREDICTED BY RF-SCORE:    0.00 PKD
ROOT
HETATM    1  C   UNL     1      -7.151  11.300  70.026  1.00  0.00     0.321 C  
HETATM    2  N   UNL     1      -6.924  12.133  68.848  1.00  0.00    -0.102 N  
HETATM    3  O   UNL     1      -5.329  13.424  69.889  1.00  0.00    -0.084 OA 
HETATM    4  C   UNL     1      -6.007  13.187  68.893  1.00  0.00    -0.079 C  
ENDROOT
BRANCH   2   5
HETATM    5  C   UNL     1      -7.674  11.787  67.680  1.00  0.00    -0.137 A  
HETATM    6  I   UNL     1      -5.421   9.680  67.422  1.00  0.00    -0.035 I  
HETATM    7  C   UNL     1      -8.928  12.405  67.438  1.00  0.00    -0.185 A  
HETATM    8  C   UNL     1      -9.643  12.116  66.258  1.00  0.00    -0.246 A  
HETATM    9  C   UNL     1      -7.160  10.829  66.769  1.00  0.00    -0.127 A  
HETATM   10  I   UNL     1      -9.708  13.752  68.948  1.00  0.00     0.354 I  
HETATM   11  C   UNL     1      -7.819  10.575  65.539  1.00  0.00    -0.138 A  
HETATM   12  I   UNL     1      -9.848  11.272  63.263  1.00  0.00    -0.380 I  
HETATM   13  C   UNL     1      -9.034  11.270  65.280  1.00  0.00    -0.068 A  
BRANCH   8  14
HETATM   14  C   UNL     1     -11.072  12.527  66.087  1.00  0.00    -0.298 C  
HETATM   15  H   UNL     1     -12.917  11.874  66.270  1.00  0.00     0.000 HD 
HETATM   16  O   UNL     1     -12.010  11.613  66.378  1.00  0.00    -0.433 OA 
BRANCH  14  17
HETATM   17  N   UNL     1     -11.387  13.696  65.670  1.00  0.00    -0.298 NA 
HETATM   18  H   UNL     1     -12.334  14.057  65.792  1.00  0.00     0.000 HD 
BRANCH  17  19
HETATM   19  C   UNL     1     -10.351  14.506  65.010  1.00  0.00    -0.413 C  
BRANCH  19  20
HETATM   20  C   UNL     1     -10.316  15.901  65.647  1.00  0.00    -0.390 C  
HETATM   21  H   UNL     1      -8.939  17.153  66.293  1.00  0.00     0.000 HD 
HETATM   22  O   UNL     1      -8.961  16.289  65.898  1.00  0.00    -0.398 OA 
BRANCH  20  23
HETATM   23  C   UNL     1     -11.016  16.937  64.751  1.00  0.00     0.091 C  
HETATM   24  O   UNL     1     -11.749  16.314  63.697  1.00  0.00    -1.447 OA 
HETATM   25  H   UNL     1     -12.181  16.954  63.144  1.00  0.00     0.000 HD 
ENDBRANCH  20  23
ENDBRANCH  19  20
ENDBRANCH  17  19
ENDBRANCH  14  17
ENDBRANCH   8  14
BRANCH  11  26
HETATM   26  C   UNL     1      -7.224   9.592  64.571  1.00  0.00    -0.121 C  
HETATM   27  O   UNL     1      -6.117  10.000  63.916  1.00  0.00    -0.116 OA 
HETATM   28  H   UNL     1      -5.740   9.379  63.303  1.00  0.00     0.000 HD 
BRANCH  26  29
HETATM   29  N   UNL     1      -7.755   8.455  64.315  1.00  0.00    -0.127 NA 
HETATM   30  H   UNL     1      -8.190   8.278  63.410  1.00  0.00     0.000 HD 
BRANCH  29  31
HETATM   31  C   UNL     1      -7.728   7.405  65.346  1.00  0.00    -0.110 C  
BRANCH  31  32
HETATM   32  C   UNL     1      -8.929   7.501  66.316  1.00  0.00    -0.167 C  
HETATM   33  O   UNL     1      -9.840   6.401  66.170  1.00  0.00    -0.381 OA 
HETATM   34  H   UNL     1     -10.578   6.460  66.765  1.00  0.00     0.000 HD 
BRANCH  32  35
HETATM   35  C   UNL     1      -8.436   7.517  67.773  1.00  0.00    -0.118 C  
HETATM   36  O   UNL     1      -9.005   8.585  68.529  1.00  0.00    -0.139 OA 
HETATM   37  H   UNL     1      -8.701   8.595  69.429  1.00  0.00     0.000 HD 
ENDBRANCH  32  35
ENDBRANCH  31  32
ENDBRANCH  29  31
ENDBRANCH  26  29
ENDBRANCH  11  26
ENDBRANCH   2   5
BRANCH   4  38
HETATM   38  C   UNL     1      -5.877  14.087  67.651  1.00  0.00    -0.008 C  
HETATM   39  O   UNL     1      -6.677  15.249  67.764  1.00  0.00    -0.137 OA 
HETATM   40  H   UNL     1      -6.597  15.804  66.997  1.00  0.00     0.000 HD 
ENDBRANCH   4  38
TORSDOF 12
ENDMDL
MODEL      142
REMARK 921   NORMALIZED FREE ENERGY PREDICTED BY IDOCK:   -3.39 KCAL/MOL
REMARK 922        TOTAL FREE ENERGY PREDICTED BY IDOCK:   -6.81 KCAL/MOL
REMARK 923 INTER-LIGAND FREE ENERGY PREDICTED BY IDOCK:   -5.97 KCAL/MOL
REMARK 924 INTRA-LIGAND FREE ENERGY PREDICTED BY IDOCK:   -0.84 KCAL/MOL
REMARK 927      BINDING AFFINITY PREDICTED BY RF-SCORE:    0.00 PKD
ROOT
HETATM    1  C   UNL     1      -9.179   4.424  65.212  1.00  0.00    -0.155 C  
HETATM    2  N   UNL     1      -8.036   4.953  65.950  1.00  0.00    -0.107 N  
HETATM    3  O   UNL     1      -6.494   3.934  64.581  1.00  0.00    -0.039 OA 
HETATM    4  C   UNL     1      -6.733   4.626  65.566  1.00  0.00    -0.052 C  
ENDROOT
BRANCH   2   5
HETATM    5  C   UNL     1      -8.343   5.817  67.049  1.00  0.00    -0.108 A  
HETATM    6  I   UNL     1      -8.157   7.956  64.817  1.00  0.00    -0.022 I  
HETATM    7  C   UNL     1      -8.676   5.263  68.311  1.00  0.00    -0.101 A  
HETATM    8  C   UNL     1      -8.917   6.107  69.414  1.00  0.00    -0.128 A  
HETATM    9  C   UNL     1      -8.312   7.225  66.870  1.00  0.00    -0.118 A  
HETATM   10  I   UNL     1      -8.838   3.106  68.465  1.00  0.00    -0.225 I  
HETATM   11  C   UNL     1      -8.476   8.097  67.976  1.00  0.00    -0.133 A  
HETATM   12  I   UNL     1      -8.542   8.744  71.035  1.00  0.00    -0.252 I  
HETATM   13  C   UNL     1      -8.725   7.514  69.251  1.00  0.00    -0.136 A  
BRANCH   8  14
HETATM   14  C   UNL     1      -9.527   5.589  70.679  1.00  0.00    -0.165 C  
HETATM   15  H   UNL     1      -9.075   4.923  72.472  1.00  0.00     0.000 HD 
HETATM   16  O   UNL     1      -8.687   5.252  71.670  1.00  0.00    -0.131 OA 
BRANCH  14  17
HETATM   17  N   UNL     1     -10.794   5.462  70.807  1.00  0.00    -0.181 NA 
HETATM   18  H   UNL     1     -11.199   4.598  71.168  1.00  0.00     0.000 HD 
BRANCH  17  19
HETATM   19  C   UNL     1     -11.654   6.592  70.421  1.00  0.00    -0.407 C  
BRANCH  19  20
HETATM   20  C   UNL     1     -12.409   7.100  71.655  1.00  0.00    -0.362 C  
HETATM   21  H   UNL     1     -11.992   7.479  73.543  1.00  0.00     0.000 HD 
HETATM   22  O   UNL     1     -11.523   7.164  72.778  1.00  0.00    -0.266 OA 
BRANCH  20  23
HETATM   23  C   UNL     1     -13.042   8.477  71.390  1.00  0.00    -0.230 C  
HETATM   24  O   UNL     1     -14.404   8.360  70.981  1.00  0.00    -0.655 OA 
HETATM   25  H   UNL     1     -14.795   9.211  70.817  1.00  0.00     0.000 HD 
ENDBRANCH  20  23
ENDBRANCH  19  20
ENDBRANCH  17  19
ENDBRANCH  14  17
ENDBRANCH   8  14
BRANCH  11  26
HETATM   26  C   UNL     1      -8.387   9.582  67.766  1.00  0.00    -0.118 C  
HETATM   27  O   UNL     1      -7.143  10.102  67.721  1.00  0.00    -0.084 OA 
HETATM   28  H   UNL     1      -7.087  11.042  67.588  1.00  0.00     0.000 HD 
BRANCH  26  29
HETATM   29  N   UNL     1      -9.418  10.340  67.698  1.00  0.00    -0.151 NA 
HETATM   30  H   UNL     1     -10.111  10.341  68.446  1.00  0.00     0.000 HD 
BRANCH  29  31
HETATM   31  C   UNL     1      -9.587  11.212  66.524  1.00  0.00    -0.197 C  
BRANCH  31  32
HETATM   32  C   UNL     1     -10.649  12.312  66.757  1.00  0.00    -0.224 C  
HETATM   33  O   UNL     1     -11.944  11.938  66.260  1.00  0.00    -0.554 OA 
HETATM   34  H   UNL     1     -12.596  12.614  66.402  1.00  0.00     0.000 HD 
BRANCH  32  35
HETATM   35  C   UNL     1     -10.786  12.611  68.260  1.00  0.00    -0.239 C  
HETATM   36  O   UNL     1      -9.546  12.993  68.854  1.00  0.00    -0.405 OA 
HETATM   37  H   UNL     1      -9.631  13.177  69.782  1.00  0.00     0.000 HD 
ENDBRANCH  32  35
ENDBRANCH  31  32
ENDBRANCH  29  31
ENDBRANCH  26  29
ENDBRANCH  11  26
ENDBRANCH   2   5
BRANCH   4  38
HETATM   38  C   UNL     1      -5.571   5.138  66.437  1.00  0.00    -0.017 C  
HETATM   39  O   UNL     1      -5.310   4.268  67.521  1.00  0.00    -0.011 OA 
HETATM   40  H   UNL     1      -4.593   4.584  68.059  1.00  0.00     0.000 HD 
ENDBRANCH   4  38
TORSDOF 12
ENDMDL
MODEL      143
REMARK 921   NORMALIZED FREE ENERGY PREDICTED BY IDOCK:   -3.39 KCAL/MOL
REMARK 922        TOTAL FREE ENERGY PREDICTED BY IDOCK:   -6.80 KCAL/MOL
REMARK 923 INTER-LIGAND FREE ENERGY PREDICTED BY IDOCK:   -6.77 KCAL/MOL
REMARK 924 INTRA-LIGAND FREE ENERGY PREDICTED BY IDOCK:   -0.02 KCAL/MOL
REMARK 927      BINDING AFFINITY PREDICTED BY RF-SCORE:    0.00 PKD
ROOT
HETATM    1  C   UNL     1      -9.938  16.493  65.381  1.00  0.00     0.036 C  
HETATM    2  N   UNL     1     -10.027  15.938  66.728  1.00  0.00    -0.240 N  
HETATM    3  O   UNL     1     -11.158  17.760  67.561  1.00  0.00    -0.188 OA 
HETATM    4  C   UNL     1     -10.637  16.665  67.755  1.00  0.00    -0.342 C  
ENDROOT
BRANCH   2   5
HETATM    5  C   UNL     1      -9.477  14.629  66.906  1.00  0.00    -0.246 A  
HETATM    6  I   UNL     1     -12.280  13.815  65.874  1.00  0.00    -0.493 I  
HETATM    7  C   UNL     1      -8.107  14.480  67.242  1.00  0.00    -0.196 A  
HETATM    8  C   UNL     1      -7.573  13.197  67.481  1.00  0.00    -0.166 A  
HETATM    9  C   UNL     1     -10.305  13.488  66.748  1.00  0.00    -0.264 A  
HETATM   10  I   UNL     1      -6.879  16.264  67.328  1.00  0.00    -0.195 I  
HETATM   11  C   UNL     1      -9.816  12.192  67.054  1.00  0.00    -0.212 A  
HETATM   12  I   UNL     1      -7.782  10.216  68.374  1.00  0.00    -0.098 I  
HETATM   13  C   UNL     1      -8.459  12.075  67.471  1.00  0.00    -0.165 A  
BRANCH   8  14
HETATM   14  C   UNL     1      -6.096  12.967  67.570  1.00  0.00    -0.141 C  
HETATM   15  H   UNL     1      -4.619  11.971  66.739  1.00  0.00     0.000 HD 
HETATM   16  O   UNL     1      -5.556  12.117  66.683  1.00  0.00    -0.311 OA 
BRANCH  14  17
HETATM   17  N   UNL     1      -5.381  13.545  68.460  1.00  0.00    -0.081 NA 
HETATM   18  H   UNL     1      -4.757  14.313  68.212  1.00  0.00     0.000 HD 
BRANCH  17  19
HETATM   19  C   UNL     1      -5.481  13.074  69.850  1.00  0.00    -0.104 C  
BRANCH  19  20
HETATM   20  C   UNL     1      -5.218  14.247  70.803  1.00  0.00    -0.121 C  
HETATM   21  H   UNL     1      -5.839  16.106  71.004  1.00  0.00     0.000 HD 
HETATM   22  O   UNL     1      -6.002  15.379  70.414  1.00  0.00    -0.141 OA 
BRANCH  20  23
HETATM   23  C   UNL     1      -5.521  13.857  72.260  1.00  0.00    -0.171 C  
HETATM   24  O   UNL     1      -5.296  14.945  73.155  1.00  0.00    -0.122 OA 
HETATM   25  H   UNL     1      -5.483  14.704  74.055  1.00  0.00     0.000 HD 
ENDBRANCH  20  23
ENDBRANCH  19  20
ENDBRANCH  17  19
ENDBRANCH  14  17
ENDBRANCH   8  14
BRANCH  11  26
HETATM   26  C   UNL     1     -10.730  11.007  66.926  1.00  0.00    -0.274 C  
HETATM   27  O   UNL     1     -11.719  10.919  67.839  1.00  0.00    -0.582 OA 
HETATM   28  H   UNL     1     -12.298  10.169  67.759  1.00  0.00     0.000 HD 
BRANCH  26  29
HETATM   29  N   UNL     1     -10.562  10.087  66.051  1.00  0.00    -0.056 NA 
HETATM   30  H   UNL     1     -10.881   9.135  66.233  1.00  0.00     0.000 HD 
BRANCH  29  31
HETATM   31  C   UNL     1      -9.902  10.421  64.779  1.00  0.00    -0.340 C  
BRANCH  31  32
HETATM   32  C   UNL     1      -8.656   9.543  64.513  1.00  0.00    -0.187 C  
HETATM   33  O   UNL     1      -8.970   8.142  64.485  1.00  0.00    -0.348 OA 
HETATM   34  H   UNL     1      -8.204   7.602  64.322  1.00  0.00     0.000 HD 
BRANCH  32  35
HETATM   35  C   UNL     1      -8.023   9.914  63.161  1.00  0.00    -0.145 C  
HETATM   36  O   UNL     1      -8.660  11.036  62.550  1.00  0.00    -0.290 OA 
HETATM   37  H   UNL     1      -8.270  11.265  61.716  1.00  0.00     0.000 HD 
ENDBRANCH  32  35
ENDBRANCH  31  32
ENDBRANCH  29  31
ENDBRANCH  26  29
ENDBRANCH  11  26
ENDBRANCH   2   5
BRANCH   4  38
HETATM   38  C   UNL     1     -10.620  16.069  69.174  1.00  0.00    -0.260 C  
HETATM   39  O   UNL     1     -11.864  15.486  69.509  1.00  0.00    -0.334 OA 
HETATM   40  H   UNL     1     -11.854  15.118  70.385  1.00  0.00     0.000 HD 
ENDBRANCH   4  38
TORSDOF 12
ENDMDL
MODEL      144
REMARK 921   NORMALIZED FREE ENERGY PREDICTED BY IDOCK:   -3.37 KCAL/MOL
REMARK 922        TOTAL FREE ENERGY PREDICTED BY IDOCK:   -6.77 KCAL/MOL
REMARK 923 INTER-LIGAND FREE ENERGY PREDICTED BY IDOCK:   -6.43 KCAL/MOL
REMARK 924 INTRA-LIGAND FREE ENERGY PREDICTED BY IDOCK:   -0.34 KCAL/MOL
REMARK 927      BINDING AFFINITY PREDICTED BY RF-SCORE:    0.00 PKD
ROOT
HETATM    1  C   UNL     1      -6.916   7.207  66.491  1.00  0.00    -0.076 C  
HETATM    2  N   UNL     1      -8.033   6.405  66.979  1.00  0.00    -0.108 N  
HETATM    3  O   UNL     1      -8.225   5.217  65.018  1.00  0.00    -0.120 OA 
HETATM    4  C   UNL     1      -8.634   5.452  66.152  1.00  0.00    -0.126 C  
ENDROOT
BRANCH   2   5
HETATM    5  C   UNL     1      -8.440   6.648  68.329  1.00  0.00    -0.120 A  
HETATM    6  I   UNL     1     -10.484   8.478  66.893  1.00  0.00     0.077 I  
HETATM    7  C   UNL     1      -7.870   5.893  69.385  1.00  0.00    -0.094 A  
HETATM    8  C   UNL     1      -8.218   6.170  70.723  1.00  0.00    -0.125 A  
HETATM    9  C   UNL     1      -9.411   7.646  68.605  1.00  0.00    -0.151 A  
HETATM   10  I   UNL     1      -6.499   4.294  68.869  1.00  0.00    -0.043 I  
HETATM   11  C   UNL     1      -9.726   7.998  69.942  1.00  0.00    -0.180 A  
HETATM   12  I   UNL     1      -9.166   8.056  73.018  1.00  0.00    -0.282 I  
HETATM   13  C   UNL     1      -9.077   7.282  70.988  1.00  0.00    -0.153 A  
BRANCH   8  14
HETATM   14  C   UNL     1      -7.858   5.238  71.836  1.00  0.00    -0.111 C  
HETATM   15  H   UNL     1      -6.329   4.547  72.861  1.00  0.00     0.000 HD 
HETATM   16  O   UNL     1      -6.557   5.139  72.154  1.00  0.00    -0.041 OA 
BRANCH  14  17
HETATM   17  N   UNL     1      -8.748   4.554  72.451  1.00  0.00    -0.116 NA 
HETATM   18  H   UNL     1      -8.929   4.704  73.444  1.00  0.00     0.000 HD 
BRANCH  17  19
HETATM   19  C   UNL     1      -9.503   3.545  71.692  1.00  0.00    -0.147 C  
BRANCH  19  20
HETATM   20  C   UNL     1     -10.487   2.835  72.630  1.00  0.00    -0.103 C  
HETATM   21  H   UNL     1     -10.478   1.237  73.781  1.00  0.00     0.000 HD 
HETATM   22  O   UNL     1      -9.869   1.677  73.200  1.00  0.00    -0.082 OA 
BRANCH  20  23
HETATM   23  C   UNL     1     -10.980   3.783  73.737  1.00  0.00    -0.227 C  
HETATM   24  O   UNL     1     -11.623   4.936  73.195  1.00  0.00    -0.341 OA 
HETATM   25  H   UNL     1     -11.927   5.521  73.879  1.00  0.00     0.000 HD 
ENDBRANCH  20  23
ENDBRANCH  19  20
ENDBRANCH  17  19
ENDBRANCH  14  17
ENDBRANCH   8  14
BRANCH  11  26
HETATM   26  C   UNL     1     -10.720   9.093  70.204  1.00  0.00    -0.233 C  
HETATM   27  O   UNL     1     -12.009   8.710  70.320  1.00  0.00    -0.471 OA 
HETATM   28  H   UNL     1     -12.638   9.402  70.485  1.00  0.00     0.000 HD 
BRANCH  26  29
HETATM   29  N   UNL     1     -10.398  10.332  70.253  1.00  0.00    -0.437 NA 
HETATM   30  H   UNL     1     -10.078  10.749  71.126  1.00  0.00     0.000 HD 
BRANCH  29  31
HETATM   31  C   UNL     1     -10.496  11.145  69.030  1.00  0.00    -0.206 C  
BRANCH  31  32
HETATM   32  C   UNL     1     -11.564  12.258  69.148  1.00  0.00    -0.318 C  
HETATM   33  O   UNL     1     -11.483  12.966  70.395  1.00  0.00    -0.499 OA 
HETATM   34  H   UNL     1     -12.139  13.649  70.467  1.00  0.00     0.000 HD 
BRANCH  32  35
HETATM   35  C   UNL     1     -11.394  13.280  68.011  1.00  0.00    -0.291 C  
HETATM   36  O   UNL     1     -12.154  12.938  66.852  1.00  0.00    -0.388 OA 
HETATM   37  H   UNL     1     -12.049  13.569  66.150  1.00  0.00     0.000 HD 
ENDBRANCH  32  35
ENDBRANCH  31  32
ENDBRANCH  29  31
ENDBRANCH  26  29
ENDBRANCH  11  26
ENDBRANCH   2   5
BRANCH   4  38
HETATM   38  C   UNL     1      -9.867   4.701  66.688  1.00  0.00    -0.221 C  
HETATM   39  O   UNL     1     -11.031   5.015  65.948  1.00  0.00    -0.696 OA 
HETATM   40  H   UNL     1     -11.791   4.551  66.279  1.00  0.00     0.000 HD 
ENDBRANCH   4  38
TORSDOF 12
ENDMDL
MODEL      145
REMARK 921   NORMALIZED FREE ENERGY PREDICTED BY IDOCK:   -3.35 KCAL/MOL
REMARK 922        TOTAL FREE ENERGY PREDICTED BY IDOCK:   -6.74 KCAL/MOL
REMARK 923 INTER-LIGAND FREE ENERGY PREDICTED BY IDOCK:   -5.96 KCAL/MOL
REMARK 924 INTRA-LIGAND FREE ENERGY PREDICTED BY IDOCK:   -0.78 KCAL/MOL
REMARK 927      BINDING AFFINITY PREDICTED BY RF-SCORE:    0.00 PKD
ROOT
HETATM    1  C   UNL     1     -10.188   9.605  69.565  1.00  0.00    -0.218 C  
HETATM    2  N   UNL     1      -8.865   9.051  69.294  1.00  0.00    -0.137 N  
HETATM    3  O   UNL     1      -8.221   9.127  71.502  1.00  0.00    -0.334 OA 
HETATM    4  C   UNL     1      -7.945   8.875  70.332  1.00  0.00    -0.117 C  
ENDROOT
BRANCH   2   5
HETATM    5  C   UNL     1      -8.598   8.697  67.934  1.00  0.00    -0.137 A  
HETATM    6  I   UNL     1      -9.940   6.059  68.841  1.00  0.00    -0.264 I  
HETATM    7  C   UNL     1      -8.099   9.675  67.036  1.00  0.00    -0.113 A  
HETATM    8  C   UNL     1      -7.773   9.319  65.711  1.00  0.00    -0.098 A  
HETATM    9  C   UNL     1      -8.832   7.370  67.490  1.00  0.00    -0.127 A  
HETATM   10  I   UNL     1      -7.901  11.711  67.755  1.00  0.00    -0.163 I  
HETATM   11  C   UNL     1      -8.445   6.964  66.187  1.00  0.00    -0.136 A  
HETATM   12  I   UNL     1      -6.855   7.304  63.516  1.00  0.00    -0.062 I  
HETATM   13  C   UNL     1      -7.867   7.944  65.331  1.00  0.00    -0.112 A  
BRANCH   8  14
HETATM   14  C   UNL     1      -7.505  10.355  64.665  1.00  0.00    -0.037 C  
HETATM   15  H   UNL     1      -6.079  11.476  63.907  1.00  0.00     0.000 HD 
HETATM   16  O   UNL     1      -6.249  10.819  64.571  1.00  0.00     0.016 OA 
BRANCH  14  17
HETATM   17  N   UNL     1      -8.435  10.790  63.900  1.00  0.00    -0.356 NA 
HETATM   18  H   UNL     1      -8.218  11.174  62.980  1.00  0.00     0.000 HD 
BRANCH  17  19
HETATM   19  C   UNL     1      -9.824  10.724  64.380  1.00  0.00    -0.315 C  
BRANCH  19  20
HETATM   20  C   UNL     1     -10.611  11.915  63.821  1.00  0.00    -0.422 C  
HETATM   21  H   UNL     1     -12.377  12.215  63.000  1.00  0.00     0.000 HD 
HETATM   22  O   UNL     1     -11.889  11.477  63.346  1.00  0.00    -0.346 OA 
BRANCH  20  23
HETATM   23  C   UNL     1     -10.780  13.016  64.883  1.00  0.00    -0.332 C  
HETATM   24  O   UNL     1      -9.553  13.698  65.135  1.00  0.00    -0.547 OA 
HETATM   25  H   UNL     1      -9.657  14.377  65.791  1.00  0.00     0.000 HD 
ENDBRANCH  20  23
ENDBRANCH  19  20
ENDBRANCH  17  19
ENDBRANCH  14  17
ENDBRANCH   8  14
BRANCH  11  26
HETATM   26  C   UNL     1      -8.658   5.540  65.762  1.00  0.00    -0.145 C  
HETATM   27  O   UNL     1      -7.876   4.618  66.361  1.00  0.00    -0.097 OA 
HETATM   28  H   UNL     1      -8.011   3.716  66.092  1.00  0.00     0.000 HD 
BRANCH  26  29
HETATM   29  N   UNL     1      -9.482   5.202  64.841  1.00  0.00    -0.359 NA 
HETATM   30  H   UNL     1      -9.565   5.760  63.991  1.00  0.00     0.000 HD 
BRANCH  29  31
HETATM   31  C   UNL     1     -10.306   3.997  65.025  1.00  0.00    -0.160 C  
BRANCH  31  32
HETATM   32  C   UNL     1     -10.833   3.433  63.685  1.00  0.00    -0.202 C  
HETATM   33  O   UNL     1     -10.922   4.440  62.664  1.00  0.00    -0.376 OA 
HETATM   34  H   UNL     1     -11.247   4.094  61.841  1.00  0.00     0.000 HD 
BRANCH  32  35
HETATM   35  C   UNL     1      -9.902   2.321  63.172  1.00  0.00    -0.105 C  
HETATM   36  O   UNL     1      -8.576   2.790  62.927  1.00  0.00    -0.084 OA 
HETATM   37  H   UNL     1      -8.002   2.103  62.611  1.00  0.00     0.000 HD 
ENDBRANCH  32  35
ENDBRANCH  31  32
ENDBRANCH  29  31
ENDBRANCH  26  29
ENDBRANCH  11  26
ENDBRANCH   2   5
BRANCH   4  38
HETATM   38  C   UNL     1      -6.535   8.373  69.973  1.00  0.00    -0.038 C  
HETATM   39  O   UNL     1      -6.224   7.168  70.645  1.00  0.00    -0.034 OA 
HETATM   40  H   UNL     1      -5.353   6.859  70.424  1.00  0.00     0.000 HD 
ENDBRANCH   4  38
TORSDOF 12
ENDMDL
MODEL      146
REMARK 921   NORMALIZED FREE ENERGY PREDICTED BY IDOCK:   -3.35 KCAL/MOL
REMARK 922        TOTAL FREE ENERGY PREDICTED BY IDOCK:   -6.73 KCAL/MOL
REMARK 923 INTER-LIGAND FREE ENERGY PREDICTED BY IDOCK:   -5.29 KCAL/MOL
REMARK 924 INTRA-LIGAND FREE ENERGY PREDICTED BY IDOCK:   -1.44 KCAL/MOL
REMARK 927      BINDING AFFINITY PREDICTED BY RF-SCORE:    0.00 PKD
ROOT
HETATM    1  C   UNL     1      -6.263   7.669  72.133  1.00  0.00    -0.039 C  
HETATM    2  N   UNL     1      -7.693   7.545  71.867  1.00  0.00    -0.083 N  
HETATM    3  O   UNL     1      -8.296   8.478  73.881  1.00  0.00    -0.351 OA 
HETATM    4  C   UNL     1      -8.628   7.957  72.820  1.00  0.00    -0.170 C  
ENDROOT
BRANCH   2   5
HETATM    5  C   UNL     1      -8.051   7.003  70.592  1.00  0.00    -0.117 A  
HETATM    6  I   UNL     1      -7.626   9.949  69.739  1.00  0.00    -0.174 I  
HETATM    7  C   UNL     1      -8.206   5.602  70.439  1.00  0.00    -0.105 A  
HETATM    8  C   UNL     1      -8.620   5.066  69.202  1.00  0.00    -0.098 A  
HETATM    9  C   UNL     1      -8.250   7.871  69.487  1.00  0.00    -0.130 A  
HETATM   10  I   UNL     1      -7.748   4.335  72.138  1.00  0.00    -0.085 I  
HETATM   11  C   UNL     1      -8.738   7.370  68.253  1.00  0.00    -0.122 A  
HETATM   12  I   UNL     1     -10.120   5.202  66.472  1.00  0.00    -0.316 I  
HETATM   13  C   UNL     1      -8.967   5.968  68.149  1.00  0.00    -0.112 A  
BRANCH   8  14
HETATM   14  C   UNL     1      -8.537   3.599  68.916  1.00  0.00    -0.085 C  
HETATM   15  H   UNL     1      -9.526   1.912  69.113  1.00  0.00     0.000 HD 
HETATM   16  O   UNL     1      -9.579   2.843  69.294  1.00  0.00    -0.132 OA 
BRANCH  14  17
HETATM   17  N   UNL     1      -7.512   3.085  68.347  1.00  0.00    -0.049 NA 
HETATM   18  H   UNL     1      -6.570   3.395  68.587  1.00  0.00     0.000 HD 
BRANCH  17  19
HETATM   19  C   UNL     1      -7.725   2.035  67.338  1.00  0.00    -0.060 C  
BRANCH  19  20
HETATM   20  C   UNL     1      -6.848   2.322  66.114  1.00  0.00    -0.043 C  
HETATM   21  H   UNL     1      -7.124   2.863  64.240  1.00  0.00     0.000 HD 
HETATM   22  O   UNL     1      -7.668   2.686  64.999  1.00  0.00    -0.075 OA 
BRANCH  20  23
HETATM   23  C   UNL     1      -5.823   3.431  66.413  1.00  0.00    -0.023 C  
HETATM   24  O   UNL     1      -6.348   4.726  66.123  1.00  0.00    -0.034 OA 
HETATM   25  H   UNL     1      -5.715   5.410  66.307  1.00  0.00     0.000 HD 
ENDBRANCH  20  23
ENDBRANCH  19  20
ENDBRANCH  17  19
ENDBRANCH  14  17
ENDBRANCH   8  14
BRANCH  11  26
HETATM   26  C   UNL     1      -8.988   8.319  67.116  1.00  0.00    -0.138 C  
HETATM   27  O   UNL     1      -8.027   8.379  66.170  1.00  0.00    -0.095 OA 
HETATM   28  H   UNL     1      -8.185   8.979  65.451  1.00  0.00     0.000 HD 
BRANCH  26  29
HETATM   29  N   UNL     1     -10.012   9.086  67.059  1.00  0.00    -0.209 NA 
HETATM   30  H   UNL     1     -10.729   9.047  67.783  1.00  0.00     0.000 HD 
BRANCH  29  31
HETATM   31  C   UNL     1     -10.141  10.025  65.933  1.00  0.00    -0.249 C  
BRANCH  31  32
HETATM   32  C   UNL     1     -10.057  11.502  66.385  1.00  0.00    -0.216 C  
HETATM   33  O   UNL     1      -9.465  12.348  65.387  1.00  0.00    -0.440 OA 
HETATM   34  H   UNL     1      -9.414  13.255  65.665  1.00  0.00     0.000 HD 
BRANCH  32  35
HETATM   35  C   UNL     1     -11.464  12.044  66.692  1.00  0.00    -0.346 C  
HETATM   36  O   UNL     1     -12.087  11.358  67.778  1.00  0.00    -0.637 OA 
HETATM   37  H   UNL     1     -12.956  11.693  67.967  1.00  0.00     0.000 HD 
ENDBRANCH  32  35
ENDBRANCH  31  32
ENDBRANCH  29  31
ENDBRANCH  26  29
ENDBRANCH  11  26
ENDBRANCH   2   5
BRANCH   4  38
HETATM   38  C   UNL     1     -10.120   7.718  72.522  1.00  0.00    -0.242 C  
HETATM   39  O   UNL     1     -10.707   8.829  71.873  1.00  0.00    -0.313 OA 
HETATM   40  H   UNL     1     -11.627   8.681  71.689  1.00  0.00     0.000 HD 
ENDBRANCH   4  38
TORSDOF 12
ENDMDL
MODEL      147
REMARK 921   NORMALIZED FREE ENERGY PREDICTED BY IDOCK:   -3.29 KCAL/MOL
REMARK 922        TOTAL FREE ENERGY PREDICTED BY IDOCK:   -6.64 KCAL/MOL
REMARK 923 INTER-LIGAND FREE ENERGY PREDICTED BY IDOCK:   -5.93 KCAL/MOL
REMARK 924 INTRA-LIGAND FREE ENERGY PREDICTED BY IDOCK:   -0.72 KCAL/MOL
REMARK 927      BINDING AFFINITY PREDICTED BY RF-SCORE:    0.00 PKD
ROOT
HETATM    1  C   UNL     1     -12.329   9.584  72.162  1.00  0.00    -0.260 C  
HETATM    2  N   UNL     1     -11.585   8.557  71.440  1.00  0.00    -0.276 N  
HETATM    3  O   UNL     1     -13.420   7.190  71.200  1.00  0.00    -0.316 OA 
HETATM    4  C   UNL     1     -12.220   7.384  71.024  1.00  0.00    -0.282 C  
ENDROOT
BRANCH   2   5
HETATM    5  C   UNL     1     -10.206   8.843  71.184  1.00  0.00    -0.266 A  
HETATM    6  I   UNL     1      -9.845   6.969  73.623  1.00  0.00    -0.373 I  
HETATM    7  C   UNL     1      -9.840   9.576  70.026  1.00  0.00    -0.233 A  
HETATM    8  C   UNL     1      -8.491   9.916  69.801  1.00  0.00    -0.206 A  
HETATM    9  C   UNL     1      -9.212   8.392  72.091  1.00  0.00    -0.243 A  
HETATM   10  I   UNL     1     -11.404  10.106  68.620  1.00  0.00     0.124 I  
HETATM   11  C   UNL     1      -7.858   8.782  71.931  1.00  0.00    -0.066 A  
HETATM   12  I   UNL     1      -5.593  10.582  70.742  1.00  0.00    -0.025 I  
HETATM   13  C   UNL     1      -7.527   9.589  70.805  1.00  0.00    -0.076 A  
BRANCH   8  14
HETATM   14  C   UNL     1      -8.026  10.444  68.480  1.00  0.00    -0.114 C  
HETATM   15  H   UNL     1      -7.296   9.881  66.743  1.00  0.00     0.000 HD 
HETATM   16  O   UNL     1      -7.591   9.546  67.581  1.00  0.00    -0.093 OA 
BRANCH  14  17
HETATM   17  N   UNL     1      -8.030  11.697  68.221  1.00  0.00    -0.136 NA 
HETATM   18  H   UNL     1      -7.870  12.384  68.959  1.00  0.00     0.000 HD 
BRANCH  17  19
HETATM   19  C   UNL     1      -8.270  12.124  66.834  1.00  0.00    -0.134 C  
BRANCH  19  20
HETATM   20  C   UNL     1      -9.387  13.174  66.812  1.00  0.00    -0.244 C  
HETATM   21  H   UNL     1      -9.514  15.140  66.794  1.00  0.00     0.000 HD 
HETATM   22  O   UNL     1      -8.822  14.490  66.808  1.00  0.00    -0.245 OA 
BRANCH  20  23
HETATM   23  C   UNL     1     -10.308  12.979  65.595  1.00  0.00    -0.285 C  
HETATM   24  O   UNL     1     -10.239  14.088  64.699  1.00  0.00    -0.550 OA 
HETATM   25  H   UNL     1     -10.808  13.968  63.948  1.00  0.00     0.000 HD 
ENDBRANCH  20  23
ENDBRANCH  19  20
ENDBRANCH  17  19
ENDBRANCH  14  17
ENDBRANCH   8  14
BRANCH  11  26
HETATM   26  C   UNL     1      -6.835   8.332  72.935  1.00  0.00    -0.098 C  
HETATM   27  O   UNL     1      -6.654   9.139  74.001  1.00  0.00    -0.345 OA 
HETATM   28  H   UNL     1      -6.007   8.855  74.636  1.00  0.00     0.000 HD 
BRANCH  26  29
HETATM   29  N   UNL     1      -6.117   7.283  72.778  1.00  0.00    -0.054 NA 
HETATM   30  H   UNL     1      -5.560   6.917  73.550  1.00  0.00     0.000 HD 
BRANCH  29  31
HETATM   31  C   UNL     1      -6.107   6.611  71.469  1.00  0.00    -0.037 C  
BRANCH  31  32
HETATM   32  C   UNL     1      -6.217   5.074  71.595  1.00  0.00    -0.029 C  
HETATM   33  O   UNL     1      -6.716   4.663  72.878  1.00  0.00    -0.055 OA 
HETATM   34  H   UNL     1      -6.783   3.718  72.955  1.00  0.00     0.000 HD 
BRANCH  32  35
HETATM   35  C   UNL     1      -7.165   4.518  70.518  1.00  0.00    -0.048 C  
HETATM   36  O   UNL     1      -8.431   4.133  71.054  1.00  0.00    -0.080 OA 
HETATM   37  H   UNL     1      -9.017   3.789  70.390  1.00  0.00     0.000 HD 
ENDBRANCH  32  35
ENDBRANCH  31  32
ENDBRANCH  29  31
ENDBRANCH  26  29
ENDBRANCH  11  26
ENDBRANCH   2   5
BRANCH   4  38
HETATM   38  C   UNL     1     -11.364   6.297  70.348  1.00  0.00    -0.372 C  
HETATM   39  O   UNL     1     -11.550   6.284  68.946  1.00  0.00    -0.507 OA 
HETATM   40  H   UNL     1     -11.021   5.614  68.529  1.00  0.00     0.000 HD 
ENDBRANCH   4  38
TORSDOF 12
ENDMDL
MODEL      148
REMARK 921   NORMALIZED FREE ENERGY PREDICTED BY IDOCK:   -3.29 KCAL/MOL
REMARK 922        TOTAL FREE ENERGY PREDICTED BY IDOCK:   -6.63 KCAL/MOL
REMARK 923 INTER-LIGAND FREE ENERGY PREDICTED BY IDOCK:   -6.27 KCAL/MOL
REMARK 924 INTRA-LIGAND FREE ENERGY PREDICTED BY IDOCK:   -0.36 KCAL/MOL
REMARK 927      BINDING AFFINITY PREDICTED BY RF-SCORE:    0.00 PKD
ROOT
HETATM    1  C   UNL     1      -7.795   5.768  71.505  1.00  0.00    -0.112 C  
HETATM    2  N   UNL     1      -8.915   6.032  70.606  1.00  0.00    -0.145 N  
HETATM    3  O   UNL     1     -10.477   5.189  72.070  1.00  0.00    -0.211 OA 
HETATM    4  C   UNL     1     -10.217   5.680  70.975  1.00  0.00    -0.220 C  
ENDROOT
BRANCH   2   5
HETATM    5  C   UNL     1      -8.591   6.672  69.369  1.00  0.00    -0.135 A  
HETATM    6  I   UNL     1      -9.551   9.162  70.939  1.00  0.00    -0.255 I  
HETATM    7  C   UNL     1      -7.949   5.936  68.340  1.00  0.00    -0.105 A  
HETATM    8  C   UNL     1      -7.684   6.543  67.095  1.00  0.00    -0.100 A  
HETATM    9  C   UNL     1      -8.914   8.041  69.176  1.00  0.00    -0.145 A  
HETATM   10  I   UNL     1      -7.364   3.892  68.764  1.00  0.00    -0.054 I  
HETATM   11  C   UNL     1      -8.727   8.656  67.912  1.00  0.00    -0.137 A  
HETATM   12  I   UNL     1      -8.259   8.596  64.820  1.00  0.00    -0.121 I  
HETATM   13  C   UNL     1      -8.158   7.872  66.868  1.00  0.00    -0.115 A  
BRANCH   8  14
HETATM   14  C   UNL     1      -6.780   5.903  66.089  1.00  0.00    -0.060 C  
HETATM   15  H   UNL     1      -4.886   5.671  65.615  1.00  0.00     0.000 HD 
HETATM   16  O   UNL     1      -5.459   6.077  66.254  1.00  0.00    -0.009 OA 
BRANCH  14  17
HETATM   17  N   UNL     1      -7.244   5.228  65.105  1.00  0.00    -0.066 NA 
HETATM   18  H   UNL     1      -6.719   5.144  64.234  1.00  0.00     0.000 HD 
BRANCH  17  19
HETATM   19  C   UNL     1      -8.555   4.578  65.260  1.00  0.00    -0.128 C  
BRANCH  19  20
HETATM   20  C   UNL     1      -9.306   4.625  63.924  1.00  0.00     0.006 C  
HETATM   21  H   UNL     1      -8.928   4.177  62.043  1.00  0.00     0.000 HD 
HETATM   22  O   UNL     1      -8.462   4.147  62.871  1.00  0.00    -0.085 OA 
BRANCH  20  23
HETATM   23  C   UNL     1     -10.604   3.802  63.989  1.00  0.00    -0.262 C  
HETATM   24  O   UNL     1     -11.533   4.355  64.920  1.00  0.00    -1.070 OA 
HETATM   25  H   UNL     1     -12.335   3.846  64.960  1.00  0.00     0.000 HD 
ENDBRANCH  20  23
ENDBRANCH  19  20
ENDBRANCH  17  19
ENDBRANCH  14  17
ENDBRANCH   8  14
BRANCH  11  26
HETATM   26  C   UNL     1      -9.125  10.092  67.722  1.00  0.00    -0.131 C  
HETATM   27  O   UNL     1      -8.181  11.013  68.009  1.00  0.00    -0.115 OA 
HETATM   28  H   UNL     1      -8.433  11.922  67.890  1.00  0.00     0.000 HD 
BRANCH  26  29
HETATM   29  N   UNL     1     -10.305  10.450  67.374  1.00  0.00    -0.214 NA 
HETATM   30  H   UNL     1     -10.763  10.013  66.574  1.00  0.00     0.000 HD 
BRANCH  29  31
HETATM   31  C   UNL     1     -10.990  11.500  68.143  1.00  0.00    -0.228 C  
BRANCH  31  32
HETATM   32  C   UNL     1     -11.192  12.795  67.322  1.00  0.00    -0.295 C  
HETATM   33  O   UNL     1     -12.222  13.635  67.868  1.00  0.00    -0.358 OA 
HETATM   34  H   UNL     1     -12.346  14.431  67.363  1.00  0.00     0.000 HD 
BRANCH  32  35
HETATM   35  C   UNL     1      -9.888  13.610  67.283  1.00  0.00    -0.241 C  
HETATM   36  O   UNL     1      -8.970  13.122  66.304  1.00  0.00    -0.448 OA 
HETATM   37  H   UNL     1      -8.165  13.625  66.280  1.00  0.00     0.000 HD 
ENDBRANCH  32  35
ENDBRANCH  31  32
ENDBRANCH  29  31
ENDBRANCH  26  29
ENDBRANCH  11  26
ENDBRANCH   2   5
BRANCH   4  38
HETATM   38  C   UNL     1     -11.344   5.898  69.950  1.00  0.00    -0.131 C  
HETATM   39  O   UNL     1     -12.321   6.800  70.434  1.00  0.00    -0.584 OA 
HETATM   40  H   UNL     1     -13.017   6.934  69.801  1.00  0.00     0.000 HD 
ENDBRANCH   4  38
TORSDOF 12
ENDMDL
MODEL      149
REMARK 921   NORMALIZED FREE ENERGY PREDICTED BY IDOCK:   -3.29 KCAL/MOL
REMARK 922        TOTAL FREE ENERGY PREDICTED BY IDOCK:   -6.63 KCAL/MOL
REMARK 923 INTER-LIGAND FREE ENERGY PREDICTED BY IDOCK:   -6.09 KCAL/MOL
REMARK 924 INTRA-LIGAND FREE ENERGY PREDICTED BY IDOCK:   -0.55 KCAL/MOL
REMARK 927      BINDING AFFINITY PREDICTED BY RF-SCORE:    0.00 PKD
ROOT
HETATM    1  C   UNL     1      -8.630  12.954  66.657  1.00  0.00     0.019 C  
HETATM    2  N   UNL     1      -9.589  11.991  66.122  1.00  0.00    -0.237 N  
HETATM    3  O   UNL     1     -10.142  13.320  64.327  1.00  0.00    -0.338 OA 
HETATM    4  C   UNL     1     -10.313  12.283  64.963  1.00  0.00    -0.291 C  
ENDROOT
BRANCH   2   5
HETATM    5  C   UNL     1      -9.712  10.761  66.842  1.00  0.00    -0.178 A  
HETATM    6  I   UNL     1      -7.687   9.835  64.690  1.00  0.00    -0.151 I  
HETATM    7  C   UNL     1     -10.450  10.723  68.052  1.00  0.00    -0.194 A  
HETATM    8  C   UNL     1     -10.629   9.502  68.734  1.00  0.00    -0.240 A  
HETATM    9  C   UNL     1      -9.095   9.585  66.342  1.00  0.00    -0.159 A  
HETATM   10  I   UNL     1     -11.242  12.589  68.822  1.00  0.00    -0.353 I  
HETATM   11  C   UNL     1      -9.320   8.330  66.964  1.00  0.00    -0.203 A  
HETATM   12  I   UNL     1     -10.879   6.396  68.863  1.00  0.00    -0.381 I  
HETATM   13  C   UNL     1     -10.135   8.304  68.131  1.00  0.00    -0.200 A  
BRANCH   8  14
HETATM   14  C   UNL     1     -11.161   9.456  70.133  1.00  0.00    -0.242 C  
HETATM   15  H   UNL     1     -12.827   9.534  71.173  1.00  0.00     0.000 HD 
HETATM   16  O   UNL     1     -12.490   9.563  70.286  1.00  0.00     0.068 OA 
BRANCH  14  17
HETATM   17  N   UNL     1     -10.382   9.332  71.141  1.00  0.00    -0.308 NA 
HETATM   18  H   UNL     1     -10.751   9.353  72.092  1.00  0.00     0.000 HD 
BRANCH  17  19
HETATM   19  C   UNL     1      -8.942   9.159  70.895  1.00  0.00    -0.237 C  
BRANCH  19  20
HETATM   20  C   UNL     1      -8.361   8.194  71.935  1.00  0.00    -0.144 C  
HETATM   21  H   UNL     1      -6.678   8.004  72.941  1.00  0.00     0.000 HD 
HETATM   22  O   UNL     1      -7.038   8.602  72.297  1.00  0.00    -0.201 OA 
BRANCH  20  23
HETATM   23  C   UNL     1      -9.260   8.115  73.181  1.00  0.00    -0.266 C  
HETATM   24  O   UNL     1      -8.564   8.519  74.360  1.00  0.00    -0.300 OA 
HETATM   25  H   UNL     1      -9.119   8.470  75.129  1.00  0.00     0.000 HD 
ENDBRANCH  20  23
ENDBRANCH  19  20
ENDBRANCH  17  19
ENDBRANCH  14  17
ENDBRANCH   8  14
BRANCH  11  26
HETATM   26  C   UNL     1      -8.695   7.094  66.382  1.00  0.00    -0.139 C  
HETATM   27  O   UNL     1      -9.300   6.580  65.291  1.00  0.00    -0.262 OA 
HETATM   28  H   UNL     1      -8.906   5.798  64.923  1.00  0.00     0.000 HD 
BRANCH  26  29
HETATM   29  N   UNL     1      -7.687   6.506  66.910  1.00  0.00    -0.098 NA 
HETATM   30  H   UNL     1      -7.087   7.000  67.570  1.00  0.00     0.000 HD 
BRANCH  29  31
HETATM   31  C   UNL     1      -7.408   5.107  66.552  1.00  0.00    -0.086 C  
BRANCH  31  32
HETATM   32  C   UNL     1      -6.482   4.410  67.578  1.00  0.00    -0.042 C  
HETATM   33  O   UNL     1      -5.132   4.895  67.515  1.00  0.00    -0.006 OA 
HETATM   34  H   UNL     1      -4.563   4.467  68.145  1.00  0.00     0.000 HD 
BRANCH  32  35
HETATM   35  C   UNL     1      -7.003   4.640  69.007  1.00  0.00    -0.051 C  
HETATM   36  O   UNL     1      -6.615   5.911  69.529  1.00  0.00    -0.040 OA 
HETATM   37  H   UNL     1      -6.936   6.053  70.412  1.00  0.00     0.000 HD 
ENDBRANCH  32  35
ENDBRANCH  31  32
ENDBRANCH  29  31
ENDBRANCH  26  29
ENDBRANCH  11  26
ENDBRANCH   2   5
BRANCH   4  38
HETATM   38  C   UNL     1     -11.375  11.270  64.498  1.00  0.00    -0.021 C  
HETATM   39  O   UNL     1     -11.354  11.100  63.094  1.00  0.00    -0.808 OA 
HETATM   40  H   UNL     1     -12.010  10.475  62.807  1.00  0.00     0.000 HD 
ENDBRANCH   4  38
TORSDOF 12
ENDMDL
MODEL      150
REMARK 921   NORMALIZED FREE ENERGY PREDICTED BY IDOCK:   -3.28 KCAL/MOL
REMARK 922        TOTAL FREE ENERGY PREDICTED BY IDOCK:   -6.63 KCAL/MOL
REMARK 923 INTER-LIGAND FREE ENERGY PREDICTED BY IDOCK:   -6.42 KCAL/MOL
REMARK 924 INTRA-LIGAND FREE ENERGY PREDICTED BY IDOCK:   -0.20 KCAL/MOL
REMARK 927      BINDING AFFINITY PREDICTED BY RF-SCORE:    0.00 PKD
ROOT
HETATM    1  C   UNL     1      -7.431   8.491  65.347  1.00  0.00    -0.086 C  
HETATM    2  N   UNL     1      -7.472   8.781  66.778  1.00  0.00    -0.085 N  
HETATM    3  O   UNL     1      -6.339   6.861  67.347  1.00  0.00    -0.041 OA 
HETATM    4  C   UNL     1      -6.918   7.886  67.697  1.00  0.00    -0.074 C  
ENDROOT
BRANCH   2   5
HETATM    5  C   UNL     1      -8.087  10.017  67.151  1.00  0.00    -0.117 A  
HETATM    6  I   UNL     1     -10.586   8.195  67.304  1.00  0.00     0.008 I  
HETATM    7  C   UNL     1      -7.285  11.167  67.370  1.00  0.00    -0.107 A  
HETATM    8  C   UNL     1      -7.889  12.404  67.675  1.00  0.00    -0.163 A  
HETATM    9  C   UNL     1      -9.497  10.089  67.298  1.00  0.00    -0.154 A  
HETATM   10  I   UNL     1      -5.131  10.941  67.261  1.00  0.00    -0.056 I  
HETATM   11  C   UNL     1     -10.137  11.333  67.531  1.00  0.00    -0.207 A  
HETATM   12  I   UNL     1     -10.232  14.459  67.571  1.00  0.00    -0.242 I  
HETATM   13  C   UNL     1      -9.316  12.488  67.663  1.00  0.00    -0.189 A  
BRANCH   8  14
HETATM   14  C   UNL     1      -7.087  13.565  68.174  1.00  0.00    -0.117 C  
HETATM   15  H   UNL     1      -6.167  14.257  69.768  1.00  0.00     0.000 HD 
HETATM   16  O   UNL     1      -6.676  13.520  69.451  1.00  0.00    -0.107 OA 
BRANCH  14  17
HETATM   17  N   UNL     1      -6.816  14.564  67.421  1.00  0.00    -0.303 NA 
HETATM   18  H   UNL     1      -7.527  14.968  66.812  1.00  0.00     0.000 HD 
BRANCH  17  19
HETATM   19  C   UNL     1      -5.452  15.114  67.455  1.00  0.00     0.109 C  
BRANCH  19  20
HETATM   20  C   UNL     1      -5.521  16.646  67.422  1.00  0.00    -0.143 C  
HETATM   21  H   UNL     1      -6.450  18.021  66.360  1.00  0.00     0.000 HD 
HETATM   22  O   UNL     1      -6.407  17.072  66.381  1.00  0.00    -0.212 OA 
BRANCH  20  23
HETATM   23  C   UNL     1      -5.975  17.210  68.779  1.00  0.00    -0.155 C  
HETATM   24  O   UNL     1      -7.211  17.915  68.671  1.00  0.00    -0.254 OA 
HETATM   25  H   UNL     1      -7.491  18.263  69.509  1.00  0.00     0.000 HD 
ENDBRANCH  20  23
ENDBRANCH  19  20
ENDBRANCH  17  19
ENDBRANCH  14  17
ENDBRANCH   8  14
BRANCH  11  26
HETATM   26  C   UNL     1     -11.635  11.386  67.632  1.00  0.00    -0.238 C  
HETATM   27  O   UNL     1     -12.282  11.936  66.583  1.00  0.00    -0.493 OA 
HETATM   28  H   UNL     1     -13.230  11.970  66.647  1.00  0.00     0.000 HD 
BRANCH  26  29
HETATM   29  N   UNL     1     -12.279  10.999  68.669  1.00  0.00    -0.771 NA 
HETATM   30  H   UNL     1     -13.220  10.616  68.581  1.00  0.00     0.000 HD 
BRANCH  29  31
HETATM   31  C   UNL     1     -11.643  11.115  69.991  1.00  0.00    -0.338 C  
BRANCH  31  32
HETATM   32  C   UNL     1     -11.934   9.894  70.894  1.00  0.00    -0.345 C  
HETATM   33  O   UNL     1     -10.796   9.511  71.682  1.00  0.00    -0.343 OA 
HETATM   34  H   UNL     1     -10.975   8.760  72.237  1.00  0.00     0.000 HD 
BRANCH  32  35
HETATM   35  C   UNL     1     -13.092  10.209  71.858  1.00  0.00    -0.466 C  
HETATM   36  O   UNL     1     -13.311   9.164  72.805  1.00  0.00    -0.647 OA 
HETATM   37  H   UNL     1     -14.026   9.359  73.400  1.00  0.00     0.000 HD 
ENDBRANCH  32  35
ENDBRANCH  31  32
ENDBRANCH  29  31
ENDBRANCH  26  29
ENDBRANCH  11  26
ENDBRANCH   2   5
BRANCH   4  38
HETATM   38  C   UNL     1      -7.073   8.200  69.197  1.00  0.00    -0.061 C  
HETATM   39  O   UNL     1      -6.154   7.463  69.980  1.00  0.00    -0.027 OA 
HETATM   40  H   UNL     1      -6.250   7.657  70.906  1.00  0.00     0.000 HD 
ENDBRANCH   4  38
TORSDOF 12
ENDMDL
MODEL      151
REMARK 921   NORMALIZED FREE ENERGY PREDICTED BY IDOCK:   -3.24 KCAL/MOL
REMARK 922        TOTAL FREE ENERGY PREDICTED BY IDOCK:   -6.55 KCAL/MOL
REMARK 923 INTER-LIGAND FREE ENERGY PREDICTED BY IDOCK:   -6.07 KCAL/MOL
REMARK 924 INTRA-LIGAND FREE ENERGY PREDICTED BY IDOCK:   -0.48 KCAL/MOL
REMARK 927      BINDING AFFINITY PREDICTED BY RF-SCORE:    0.00 PKD
ROOT
HETATM    1  C   UNL     1     -11.713  12.342  66.420  1.00  0.00    -0.391 C  
HETATM    2  N   UNL     1     -10.985  12.159  67.672  1.00  0.00    -0.231 N  
HETATM    3  O   UNL     1     -12.524  10.674  68.519  1.00  0.00    -0.169 OA 
HETATM    4  C   UNL     1     -11.491  11.320  68.669  1.00  0.00    -0.297 C  
ENDROOT
BRANCH   2   5
HETATM    5  C   UNL     1      -9.747  12.866  67.788  1.00  0.00    -0.214 A  
HETATM    6  I   UNL     1     -11.615  15.000  69.031  1.00  0.00    -0.357 I  
HETATM    7  C   UNL     1      -8.528  12.213  67.471  1.00  0.00    -0.169 A  
HETATM    8  C   UNL     1      -7.311  12.923  67.521  1.00  0.00    -0.154 A  
HETATM    9  C   UNL     1      -9.744  14.219  68.219  1.00  0.00    -0.221 A  
HETATM   10  I   UNL     1      -8.605  10.109  66.956  1.00  0.00    -0.139 I  
HETATM   11  C   UNL     1      -8.546  14.978  68.208  1.00  0.00    -0.156 A  
HETATM   12  I   UNL     1      -5.591  15.517  67.338  1.00  0.00     0.530 I  
HETATM   13  C   UNL     1      -7.348  14.323  67.804  1.00  0.00    -0.174 A  
BRANCH   8  14
HETATM   14  C   UNL     1      -5.991  12.219  67.460  1.00  0.00    -0.136 C  
HETATM   15  H   UNL     1      -4.696  11.436  66.206  1.00  0.00     0.000 HD 
HETATM   16  O   UNL     1      -5.533  11.883  66.244  1.00  0.00    -0.281 OA 
BRANCH  14  17
HETATM   17  N   UNL     1      -5.332  11.939  68.521  1.00  0.00    -0.052 NA 
HETATM   18  H   UNL     1      -4.839  12.667  69.038  1.00  0.00     0.000 HD 
BRANCH  17  19
HETATM   19  C   UNL     1      -5.304  10.540  68.977  1.00  0.00    -0.041 C  
BRANCH  19  20
HETATM   20  C   UNL     1      -5.701  10.481  70.457  1.00  0.00    -0.097 C  
HETATM   21  H   UNL     1      -6.267  11.756  71.848  1.00  0.00     0.000 HD 
HETATM   22  O   UNL     1      -6.021  11.793  70.931  1.00  0.00    -0.360 OA 
BRANCH  20  23
HETATM   23  C   UNL     1      -6.888   9.526  70.675  1.00  0.00    -0.115 C  
HETATM   24  O   UNL     1      -6.934   9.040  72.016  1.00  0.00    -0.292 OA 
HETATM   25  H   UNL     1      -7.667   8.450  72.150  1.00  0.00     0.000 HD 
ENDBRANCH  20  23
ENDBRANCH  19  20
ENDBRANCH  17  19
ENDBRANCH  14  17
ENDBRANCH   8  14
BRANCH  11  26
HETATM   26  C   UNL     1      -8.582  16.422  68.621  1.00  0.00    -0.237 C  
HETATM   27  O   UNL     1      -7.757  16.772  69.630  1.00  0.00     0.090 OA 
HETATM   28  H   UNL     1      -7.780  17.685  69.891  1.00  0.00     0.000 HD 
BRANCH  26  29
HETATM   29  N   UNL     1      -9.387  17.276  68.106  1.00  0.00    -0.266 NA 
HETATM   30  H   UNL     1     -10.293  17.458  68.538  1.00  0.00     0.000 HD 
BRANCH  29  31
HETATM   31  C   UNL     1      -8.986  17.990  66.884  1.00  0.00    -0.262 C  
BRANCH  31  32
HETATM   32  C   UNL     1      -8.815  19.509  67.119  1.00  0.00    -0.304 C  
HETATM   33  O   UNL     1      -8.499  20.218  65.910  1.00  0.00    -0.557 OA 
HETATM   34  H   UNL     1      -8.393  21.151  66.055  1.00  0.00     0.000 HD 
BRANCH  32  35
HETATM   35  C   UNL     1     -10.110  20.108  67.695  1.00  0.00    -0.402 C  
HETATM   36  O   UNL     1     -10.311  19.756  69.064  1.00  0.00    -0.609 OA 
HETATM   37  H   UNL     1     -11.110  20.125  69.419  1.00  0.00     0.000 HD 
ENDBRANCH  32  35
ENDBRANCH  31  32
ENDBRANCH  29  31
ENDBRANCH  26  29
ENDBRANCH  11  26
ENDBRANCH   2   5
BRANCH   4  38
HETATM   38  C   UNL     1     -10.727  11.238  70.003  1.00  0.00     0.333 C  
HETATM   39  O   UNL     1     -11.343  10.335  70.901  1.00  0.00    -0.337 OA 
HETATM   40  H   UNL     1     -10.871  10.284  71.724  1.00  0.00     0.000 HD 
ENDBRANCH   4  38
TORSDOF 12
ENDMDL
MODEL      152
REMARK 921   NORMALIZED FREE ENERGY PREDICTED BY IDOCK:   -3.23 KCAL/MOL
REMARK 922        TOTAL FREE ENERGY PREDICTED BY IDOCK:   -6.53 KCAL/MOL
REMARK 923 INTER-LIGAND FREE ENERGY PREDICTED BY IDOCK:   -6.22 KCAL/MOL
REMARK 924 INTRA-LIGAND FREE ENERGY PREDICTED BY IDOCK:   -0.31 KCAL/MOL
REMARK 927      BINDING AFFINITY PREDICTED BY RF-SCORE:    0.00 PKD
ROOT
HETATM    1  C   UNL     1     -13.813   9.125  70.745  1.00  0.00     0.327 C  
HETATM    2  N   UNL     1     -12.368   9.309  70.852  1.00  0.00    -0.223 N  
HETATM    3  O   UNL     1     -12.177   7.912  72.669  1.00  0.00    -0.256 OA 
HETATM    4  C   UNL     1     -11.647   8.676  71.867  1.00  0.00    -0.350 C  
ENDROOT
BRANCH   2   5
HETATM    5  C   UNL     1     -11.767  10.146  69.859  1.00  0.00    -0.179 A  
HETATM    6  I   UNL     1     -12.724  12.355  71.806  1.00  0.00     0.242 I  
HETATM    7  C   UNL     1     -11.035   9.562  68.793  1.00  0.00    -0.080 A  
HETATM    8  C   UNL     1     -10.494  10.376  67.777  1.00  0.00    -0.268 A  
HETATM    9  C   UNL     1     -11.907  11.555  69.944  1.00  0.00    -0.355 A  
HETATM   10  I   UNL     1     -10.750   7.413  68.812  1.00  0.00     0.040 I  
HETATM   11  C   UNL     1     -11.439  12.393  68.900  1.00  0.00    -0.355 A  
HETATM   12  I   UNL     1     -10.444  12.926  65.983  1.00  0.00    -0.314 I  
HETATM   13  C   UNL     1     -10.780  11.776  67.798  1.00  0.00    -0.205 A  
BRANCH   8  14
HETATM   14  C   UNL     1      -9.499   9.843  66.794  1.00  0.00    -0.169 C  
HETATM   15  H   UNL     1      -9.327   9.174  64.954  1.00  0.00     0.000 HD 
HETATM   16  O   UNL     1      -9.959   9.511  65.577  1.00  0.00    -0.304 OA 
BRANCH  14  17
HETATM   17  N   UNL     1      -8.265   9.699  67.102  1.00  0.00    -0.120 NA 
HETATM   18  H   UNL     1      -7.813   8.786  67.037  1.00  0.00     0.000 HD 
BRANCH  17  19
HETATM   19  C   UNL     1      -7.513  10.880  67.552  1.00  0.00    -0.097 C  
BRANCH  19  20
HETATM   20  C   UNL     1      -6.763  11.489  66.361  1.00  0.00     0.057 C  
HETATM   21  H   UNL     1      -5.041  12.397  66.057  1.00  0.00     0.000 HD 
HETATM   22  O   UNL     1      -5.506  12.020  66.795  1.00  0.00    -0.271 OA 
BRANCH  20  23
HETATM   23  C   UNL     1      -6.553  10.449  65.248  1.00  0.00    -0.100 C  
HETATM   24  O   UNL     1      -7.494  10.614  64.188  1.00  0.00    -0.347 OA 
HETATM   25  H   UNL     1      -7.364   9.972  63.500  1.00  0.00     0.000 HD 
ENDBRANCH  20  23
ENDBRANCH  19  20
ENDBRANCH  17  19
ENDBRANCH  14  17
ENDBRANCH   8  14
BRANCH  11  26
HETATM   26  C   UNL     1     -11.646  13.877  68.993  1.00  0.00    -0.310 C  
HETATM   27  O   UNL     1     -12.627  14.390  68.222  1.00  0.00    -0.519 OA 
HETATM   28  H   UNL     1     -12.758  15.330  68.280  1.00  0.00     0.000 HD 
BRANCH  26  29
HETATM   29  N   UNL     1     -10.905  14.643  69.706  1.00  0.00    -0.408 NA 
HETATM   30  H   UNL     1     -10.380  14.266  70.495  1.00  0.00     0.000 HD 
BRANCH  29  31
HETATM   31  C   UNL     1     -10.822  16.073  69.370  1.00  0.00    -0.300 C  
BRANCH  31  32
HETATM   32  C   UNL     1      -9.975  16.331  68.101  1.00  0.00    -0.239 C  
HETATM   33  O   UNL     1     -10.740  16.932  67.045  1.00  0.00    -0.267 OA 
HETATM   34  H   UNL     1     -10.220  17.091  66.265  1.00  0.00     0.000 HD 
BRANCH  32  35
HETATM   35  C   UNL     1      -8.799  17.268  68.428  1.00  0.00    -0.269 C  
HETATM   36  O   UNL     1      -7.605  16.906  67.735  1.00  0.00    -0.163 OA 
HETATM   37  H   UNL     1      -6.879  17.484  67.937  1.00  0.00     0.000 HD 
ENDBRANCH  32  35
ENDBRANCH  31  32
ENDBRANCH  29  31
ENDBRANCH  26  29
ENDBRANCH  11  26
ENDBRANCH   2   5
BRANCH   4  38
HETATM   38  C   UNL     1     -10.143   8.981  71.986  1.00  0.00    -0.172 C  
HETATM   39  O   UNL     1      -9.512   8.131  72.925  1.00  0.00    -0.248 OA 
HETATM   40  H   UNL     1      -8.583   8.320  72.998  1.00  0.00     0.000 HD 
ENDBRANCH   4  38
TORSDOF 12
ENDMDL
MODEL      153
REMARK 921   NORMALIZED FREE ENERGY PREDICTED BY IDOCK:   -3.20 KCAL/MOL
REMARK 922        TOTAL FREE ENERGY PREDICTED BY IDOCK:   -6.49 KCAL/MOL
REMARK 923 INTER-LIGAND FREE ENERGY PREDICTED BY IDOCK:   -5.93 KCAL/MOL
REMARK 924 INTRA-LIGAND FREE ENERGY PREDICTED BY IDOCK:   -0.56 KCAL/MOL
REMARK 927      BINDING AFFINITY PREDICTED BY RF-SCORE:    0.00 PKD
ROOT
HETATM    1  C   UNL     1      -8.246   7.442  71.811  1.00  0.00    -0.103 C  
HETATM    2  N   UNL     1      -9.167   7.115  70.727  1.00  0.00    -0.157 N  
HETATM    3  O   UNL     1     -10.687   6.105  72.127  1.00  0.00    -0.219 OA 
HETATM    4  C   UNL     1     -10.351   6.420  70.989  1.00  0.00    -0.206 C  
ENDROOT
BRANCH   2   5
HETATM    5  C   UNL     1      -8.785   7.560  69.422  1.00  0.00    -0.137 A  
HETATM    6  I   UNL     1      -7.644   4.685  69.281  1.00  0.00    -0.054 I  
HETATM    7  C   UNL     1      -9.232   8.820  68.947  1.00  0.00    -0.141 A  
HETATM    8  C   UNL     1      -8.807   9.293  67.688  1.00  0.00    -0.122 A  
HETATM    9  C   UNL     1      -7.960   6.740  68.609  1.00  0.00    -0.119 A  
HETATM   10  I   UNL     1     -10.602   9.949  70.191  1.00  0.00    -0.325 I  
HETATM   11  C   UNL     1      -7.457   7.219  67.373  1.00  0.00    -0.096 A  
HETATM   12  I   UNL     1      -6.783   9.484  65.324  1.00  0.00    -0.099 I  
HETATM   13  C   UNL     1      -7.852   8.522  66.956  1.00  0.00    -0.096 A  
BRANCH   8  14
HETATM   14  C   UNL     1      -9.456  10.473  67.036  1.00  0.00    -0.163 C  
HETATM   15  H   UNL     1     -10.647  10.981  65.556  1.00  0.00     0.000 HD 
HETATM   16  O   UNL     1     -10.235  10.232  65.970  1.00  0.00    -0.253 OA 
BRANCH  14  17
HETATM   17  N   UNL     1      -9.266  11.664  67.466  1.00  0.00    -0.169 NA 
HETATM   18  H   UNL     1      -9.808  12.029  68.250  1.00  0.00     0.000 HD 
BRANCH  17  19
HETATM   19  C   UNL     1      -8.248  12.493  66.803  1.00  0.00     0.008 C  
BRANCH  19  20
HETATM   20  C   UNL     1      -6.914  12.351  67.547  1.00  0.00    -0.142 C  
HETATM   21  H   UNL     1      -5.218  13.347  67.664  1.00  0.00     0.000 HD 
HETATM   22  O   UNL     1      -6.045  13.435  67.203  1.00  0.00    -0.274 OA 
BRANCH  20  23
HETATM   23  C   UNL     1      -7.131  12.297  69.069  1.00  0.00    -0.051 C  
HETATM   24  O   UNL     1      -7.261  13.603  69.630  1.00  0.00    -0.323 OA 
HETATM   25  H   UNL     1      -7.395  13.569  70.570  1.00  0.00     0.000 HD 
ENDBRANCH  20  23
ENDBRANCH  19  20
ENDBRANCH  17  19
ENDBRANCH  14  17
ENDBRANCH   8  14
BRANCH  11  26
HETATM   26  C   UNL     1      -6.545   6.348  66.558  1.00  0.00    -0.048 C  
HETATM   27  O   UNL     1      -5.222   6.510  66.771  1.00  0.00    -0.011 OA 
HETATM   28  H   UNL     1      -4.644   5.959  66.256  1.00  0.00     0.000 HD 
BRANCH  26  29
HETATM   29  N   UNL     1      -6.969   5.539  65.660  1.00  0.00    -0.064 NA 
HETATM   30  H   UNL     1      -6.389   4.760  65.350  1.00  0.00     0.000 HD 
BRANCH  29  31
HETATM   31  C   UNL     1      -8.306   5.749  65.082  1.00  0.00    -0.146 C  
BRANCH  31  32
HETATM   32  C   UNL     1      -9.193   4.486  65.176  1.00  0.00    -0.157 C  
HETATM   33  O   UNL     1      -8.503   3.374  65.767  1.00  0.00    -0.104 OA 
HETATM   34  H   UNL     1      -9.048   2.598  65.825  1.00  0.00     0.000 HD 
BRANCH  32  35
HETATM   35  C   UNL     1     -10.442   4.774  66.026  1.00  0.00    -0.292 C  
HETATM   36  O   UNL     1     -11.653   4.612  65.288  1.00  0.00    -1.093 OA 
HETATM   37  H   UNL     1     -12.425   4.790  65.813  1.00  0.00     0.000 HD 
ENDBRANCH  32  35
ENDBRANCH  31  32
ENDBRANCH  29  31
ENDBRANCH  26  29
ENDBRANCH  11  26
ENDBRANCH   2   5
BRANCH   4  38
HETATM   38  C   UNL     1     -11.237   6.022  69.795  1.00  0.00    -0.369 C  
HETATM   39  O   UNL     1     -12.521   6.610  69.880  1.00  0.00    -0.406 OA 
HETATM   40  H   UNL     1     -13.069   6.364  69.143  1.00  0.00     0.000 HD 
ENDBRANCH   4  38
TORSDOF 12
ENDMDL
MODEL      154
REMARK 921   NORMALIZED FREE ENERGY PREDICTED BY IDOCK:   -3.19 KCAL/MOL
REMARK 922        TOTAL FREE ENERGY PREDICTED BY IDOCK:   -6.46 KCAL/MOL
REMARK 923 INTER-LIGAND FREE ENERGY PREDICTED BY IDOCK:   -6.65 KCAL/MOL
REMARK 924 INTRA-LIGAND FREE ENERGY PREDICTED BY IDOCK:    0.19 KCAL/MOL
REMARK 927      BINDING AFFINITY PREDICTED BY RF-SCORE:    0.00 PKD
ROOT
HETATM    1  C   UNL     1     -12.496  14.877  67.633  1.00  0.00     0.580 C  
HETATM    2  N   UNL     1     -11.578  14.983  68.764  1.00  0.00    -0.319 N  
HETATM    3  O   UNL     1     -13.260  15.398  70.277  1.00  0.00    -0.206 OA 
HETATM    4  C   UNL     1     -12.061  15.272  70.043  1.00  0.00    -0.352 C  
ENDROOT
BRANCH   2   5
HETATM    5  C   UNL     1     -10.195  14.759  68.473  1.00  0.00    -0.232 A  
HETATM    6  I   UNL     1     -11.156  11.815  68.448  1.00  0.00    -0.391 I  
HETATM    7  C   UNL     1      -9.337  15.862  68.231  1.00  0.00    -0.194 A  
HETATM    8  C   UNL     1      -7.961  15.652  68.007  1.00  0.00    -0.137 A  
HETATM    9  C   UNL     1      -9.688  13.434  68.431  1.00  0.00    -0.201 A  
HETATM   10  I   UNL     1     -10.216  17.843  68.175  1.00  0.00    -0.378 I  
HETATM   11  C   UNL     1      -8.298  13.196  68.283  1.00  0.00    -0.152 A  
HETATM   12  I   UNL     1      -5.295  14.068  68.342  1.00  0.00    -0.119 I  
HETATM   13  C   UNL     1      -7.444  14.324  68.125  1.00  0.00    -0.131 A  
BRANCH   8  14
HETATM   14  C   UNL     1      -7.077  16.742  67.486  1.00  0.00    -0.147 C  
HETATM   15  H   UNL     1      -5.783  17.157  66.064  1.00  0.00     0.000 HD 
HETATM   16  O   UNL     1      -6.344  16.466  66.395  1.00  0.00    -0.175 OA 
BRANCH  14  17
HETATM   17  N   UNL     1      -7.011  17.883  68.061  1.00  0.00    -0.198 NA 
HETATM   18  H   UNL     1      -7.756  18.199  68.682  1.00  0.00     0.000 HD 
BRANCH  17  19
HETATM   19  C   UNL     1      -5.834  18.728  67.805  1.00  0.00    -0.192 C  
BRANCH  19  20
HETATM   20  C   UNL     1      -6.272  20.196  67.722  1.00  0.00    -0.226 C  
HETATM   21  H   UNL     1      -5.469  21.908  67.170  1.00  0.00     0.000 HD 
HETATM   22  O   UNL     1      -5.197  20.999  67.221  1.00  0.00    -0.186 OA 
BRANCH  20  23
HETATM   23  C   UNL     1      -7.520  20.353  66.836  1.00  0.00    -0.298 C  
HETATM   24  O   UNL     1      -8.407  21.347  67.348  1.00  0.00    -0.500 OA 
HETATM   25  H   UNL     1      -9.178  21.444  66.801  1.00  0.00     0.000 HD 
ENDBRANCH  20  23
ENDBRANCH  19  20
ENDBRANCH  17  19
ENDBRANCH  14  17
ENDBRANCH   8  14
BRANCH  11  26
HETATM   26  C   UNL     1      -7.784  11.785  68.292  1.00  0.00    -0.130 C  
HETATM   27  O   UNL     1      -7.593  11.230  69.507  1.00  0.00    -0.348 OA 
HETATM   28  H   UNL     1      -7.268  10.337  69.514  1.00  0.00     0.000 HD 
BRANCH  26  29
HETATM   29  N   UNL     1      -7.475  11.147  67.225  1.00  0.00    -0.112 NA 
HETATM   30  H   UNL     1      -6.748  11.500  66.603  1.00  0.00     0.000 HD 
BRANCH  29  31
HETATM   31  C   UNL     1      -8.183   9.896  66.909  1.00  0.00    -0.120 C  
BRANCH  31  32
HETATM   32  C   UNL     1      -8.664   9.846  65.440  1.00  0.00    -0.155 C  
HETATM   33  O   UNL     1      -9.679   8.853  65.229  1.00  0.00    -0.432 OA 
HETATM   34  H   UNL     1      -9.975   8.822  64.327  1.00  0.00     0.000 HD 
BRANCH  32  35
HETATM   35  C   UNL     1      -9.242  11.210  65.023  1.00  0.00    -0.170 C  
HETATM   36  O   UNL     1     -10.663  11.180  64.886  1.00  0.00    -0.302 OA 
HETATM   37  H   UNL     1     -11.020  12.021  64.628  1.00  0.00     0.000 HD 
ENDBRANCH  32  35
ENDBRANCH  31  32
ENDBRANCH  29  31
ENDBRANCH  26  29
ENDBRANCH  11  26
ENDBRANCH   2   5
BRANCH   4  38
HETATM   38  C   UNL     1     -11.038  15.463  71.177  1.00  0.00    -0.312 C  
HETATM   39  O   UNL     1     -11.614  15.213  72.445  1.00  0.00    -0.415 OA 
HETATM   40  H   UNL     1     -10.982  15.331  73.146  1.00  0.00     0.000 HD 
ENDBRANCH   4  38
TORSDOF 12
ENDMDL
MODEL      155
REMARK 921   NORMALIZED FREE ENERGY PREDICTED BY IDOCK:   -3.19 KCAL/MOL
REMARK 922        TOTAL FREE ENERGY PREDICTED BY IDOCK:   -6.46 KCAL/MOL
REMARK 923 INTER-LIGAND FREE ENERGY PREDICTED BY IDOCK:   -5.46 KCAL/MOL
REMARK 924 INTRA-LIGAND FREE ENERGY PREDICTED BY IDOCK:   -1.00 KCAL/MOL
REMARK 927      BINDING AFFINITY PREDICTED BY RF-SCORE:    0.00 PKD
ROOT
HETATM    1  C   UNL     1     -11.504   8.659  72.400  1.00  0.00    -0.299 C  
HETATM    2  N   UNL     1     -10.921   8.035  71.216  1.00  0.00    -0.232 N  
HETATM    3  O   UNL     1     -12.768   6.722  70.820  1.00  0.00    -0.261 OA 
HETATM    4  C   UNL     1     -11.628   7.057  70.510  1.00  0.00    -0.319 C  
ENDROOT
BRANCH   2   5
HETATM    5  C   UNL     1      -9.622   8.499  70.836  1.00  0.00    -0.185 A  
HETATM    6  I   UNL     1      -8.774   5.917  72.321  1.00  0.00    -0.125 I  
HETATM    7  C   UNL     1      -9.496   9.620  69.977  1.00  0.00    -0.240 A  
HETATM    8  C   UNL     1      -8.219  10.122  69.650  1.00  0.00    -0.176 A  
HETATM    9  C   UNL     1      -8.465   7.835  71.322  1.00  0.00    -0.119 A  
HETATM   10  I   UNL     1     -11.309  10.490  69.166  1.00  0.00    -0.274 I  
HETATM   11  C   UNL     1      -7.172   8.360  71.072  1.00  0.00    -0.063 A  
HETATM   12  I   UNL     1      -5.198  10.635  70.227  1.00  0.00    -0.080 I  
HETATM   13  C   UNL     1      -7.075   9.537  70.276  1.00  0.00    -0.110 A  
BRANCH   8  14
HETATM   14  C   UNL     1      -8.027  11.117  68.549  1.00  0.00    -0.143 C  
HETATM   15  H   UNL     1      -7.562  11.270  66.645  1.00  0.00     0.000 HD 
HETATM   16  O   UNL     1      -7.684  10.638  67.344  1.00  0.00    -0.103 OA 
BRANCH  14  17
HETATM   17  N   UNL     1      -8.171  12.373  68.750  1.00  0.00    -0.343 NA 
HETATM   18  H   UNL     1      -8.020  12.775  69.675  1.00  0.00     0.000 HD 
BRANCH  17  19
HETATM   19  C   UNL     1      -8.560  13.223  67.614  1.00  0.00    -0.196 C  
BRANCH  19  20
HETATM   20  C   UNL     1      -8.047  14.649  67.847  1.00  0.00    -0.145 C  
HETATM   21  H   UNL     1      -8.356  16.435  67.074  1.00  0.00     0.000 HD 
HETATM   22  O   UNL     1      -8.674  15.551  66.929  1.00  0.00    -0.209 OA 
BRANCH  20  23
HETATM   23  C   UNL     1      -8.296  15.098  69.298  1.00  0.00    -0.211 C  
HETATM   24  O   UNL     1      -7.264  14.644  70.174  1.00  0.00    -0.378 OA 
HETATM   25  H   UNL     1      -7.418  14.921  71.070  1.00  0.00     0.000 HD 
ENDBRANCH  20  23
ENDBRANCH  19  20
ENDBRANCH  17  19
ENDBRANCH  14  17
ENDBRANCH   8  14
BRANCH  11  26
HETATM   26  C   UNL     1      -5.968   7.665  71.642  1.00  0.00    -0.035 C  
HETATM   27  O   UNL     1      -5.521   8.128  72.828  1.00  0.00    -0.037 OA 
HETATM   28  H   UNL     1      -4.760   7.689  73.189  1.00  0.00     0.000 HD 
BRANCH  26  29
HETATM   29  N   UNL     1      -5.346   6.730  71.027  1.00  0.00    -0.023 NA 
HETATM   30  H   UNL     1      -4.884   5.985  71.549  1.00  0.00     0.000 HD 
BRANCH  29  31
HETATM   31  C   UNL     1      -5.305   6.744  69.556  1.00  0.00    -0.014 C  
BRANCH  31  32
HETATM   32  C   UNL     1      -5.961   5.487  68.937  1.00  0.00    -0.024 C  
HETATM   33  O   UNL     1      -6.148   4.437  69.898  1.00  0.00    -0.017 OA 
HETATM   34  H   UNL     1      -6.551   3.664  69.518  1.00  0.00     0.000 HD 
BRANCH  32  35
HETATM   35  C   UNL     1      -7.338   5.841  68.348  1.00  0.00    -0.080 C  
HETATM   36  O   UNL     1      -7.603   5.148  67.129  1.00  0.00    -0.089 OA 
HETATM   37  H   UNL     1      -8.453   5.366  66.765  1.00  0.00     0.000 HD 
ENDBRANCH  32  35
ENDBRANCH  31  32
ENDBRANCH  29  31
ENDBRANCH  26  29
ENDBRANCH  11  26
ENDBRANCH   2   5
BRANCH   4  38
HETATM   38  C   UNL     1     -10.926   6.369  69.325  1.00  0.00    -0.356 C  
HETATM   39  O   UNL     1     -11.642   6.552  68.119  1.00  0.00    -0.570 OA 
HETATM   40  H   UNL     1     -11.209   6.128  67.387  1.00  0.00     0.000 HD 
ENDBRANCH   4  38
TORSDOF 12
ENDMDL
MODEL      156
REMARK 921   NORMALIZED FREE ENERGY PREDICTED BY IDOCK:   -3.17 KCAL/MOL
REMARK 922        TOTAL FREE ENERGY PREDICTED BY IDOCK:   -6.44 KCAL/MOL
REMARK 923 INTER-LIGAND FREE ENERGY PREDICTED BY IDOCK:   -5.22 KCAL/MOL
REMARK 924 INTRA-LIGAND FREE ENERGY PREDICTED BY IDOCK:   -1.22 KCAL/MOL
REMARK 927      BINDING AFFINITY PREDICTED BY RF-SCORE:    0.00 PKD
ROOT
HETATM    1  C   UNL     1      -5.535   7.995  65.481  1.00  0.00    -0.029 C  
HETATM    2  N   UNL     1      -6.782   7.241  65.575  1.00  0.00    -0.051 N  
HETATM    3  O   UNL     1      -6.375   6.048  63.651  1.00  0.00    -0.028 OA 
HETATM    4  C   UNL     1      -7.120   6.307  64.592  1.00  0.00    -0.057 C  
ENDROOT
BRANCH   2   5
HETATM    5  C   UNL     1      -7.595   7.511  66.721  1.00  0.00    -0.101 A  
HETATM    6  I   UNL     1      -8.925   9.482  64.737  1.00  0.00    -0.170 I  
HETATM    7  C   UNL     1      -7.457   6.716  67.887  1.00  0.00    -0.098 A  
HETATM    8  C   UNL     1      -8.208   7.016  69.042  1.00  0.00    -0.125 A  
HETATM    9  C   UNL     1      -8.535   8.574  66.686  1.00  0.00    -0.113 A  
HETATM   10  I   UNL     1      -6.100   5.026  67.813  1.00  0.00    -0.029 I  
HETATM   11  C   UNL     1      -9.250   8.946  67.853  1.00  0.00    -0.148 A  
HETATM   12  I   UNL     1      -9.735   8.960  70.942  1.00  0.00    -0.358 I  
HETATM   13  C   UNL     1      -9.031   8.185  69.036  1.00  0.00    -0.144 A  
BRANCH   8  14
HETATM   14  C   UNL     1      -8.298   6.059  70.189  1.00  0.00    -0.120 C  
HETATM   15  H   UNL     1      -7.390   5.521  71.848  1.00  0.00     0.000 HD 
HETATM   16  O   UNL     1      -7.333   6.128  71.120  1.00  0.00    -0.080 OA 
BRANCH  14  17
HETATM   17  N   UNL     1      -9.246   5.203  70.274  1.00  0.00    -0.141 NA 
HETATM   18  H   UNL     1     -10.173   5.411  69.903  1.00  0.00     0.000 HD 
BRANCH  17  19
HETATM   19  C   UNL     1      -8.965   3.911  70.920  1.00  0.00    -0.097 C  
BRANCH  19  20
HETATM   20  C   UNL     1      -8.343   2.955  69.894  1.00  0.00    -0.044 C  
HETATM   21  H   UNL     1      -7.428   1.211  69.923  1.00  0.00     0.000 HD 
HETATM   22  O   UNL     1      -7.814   1.803  70.558  1.00  0.00    -0.039 OA 
BRANCH  20  23
HETATM   23  C   UNL     1      -9.372   2.539  68.829  1.00  0.00    -0.166 C  
HETATM   24  O   UNL     1      -9.506   3.528  67.810  1.00  0.00    -0.195 OA 
HETATM   25  H   UNL     1     -10.141   3.271  67.152  1.00  0.00     0.000 HD 
ENDBRANCH  20  23
ENDBRANCH  19  20
ENDBRANCH  17  19
ENDBRANCH  14  17
ENDBRANCH   8  14
BRANCH  11  26
HETATM   26  C   UNL     1     -10.200  10.107  67.799  1.00  0.00    -0.191 C  
HETATM   27  O   UNL     1     -11.471   9.820  67.446  1.00  0.00    -0.340 OA 
HETATM   28  H   UNL     1     -12.072  10.554  67.412  1.00  0.00     0.000 HD 
BRANCH  26  29
HETATM   29  N   UNL     1      -9.837  11.318  68.007  1.00  0.00    -0.173 NA 
HETATM   30  H   UNL     1      -9.977  11.751  68.920  1.00  0.00     0.000 HD 
BRANCH  29  31
HETATM   31  C   UNL     1      -9.212  12.076  66.911  1.00  0.00    -0.197 C  
BRANCH  31  32
HETATM   32  C   UNL     1      -9.910  13.433  66.660  1.00  0.00    -0.278 C  
HETATM   33  O   UNL     1      -9.724  13.904  65.317  1.00  0.00    -0.556 OA 
HETATM   34  H   UNL     1     -10.152  14.738  65.162  1.00  0.00     0.000 HD 
BRANCH  32  35
HETATM   35  C   UNL     1     -11.423  13.308  66.913  1.00  0.00    -0.338 C  
HETATM   36  O   UNL     1     -12.039  12.342  66.061  1.00  0.00    -0.623 OA 
HETATM   37  H   UNL     1     -12.973  12.265  66.216  1.00  0.00     0.000 HD 
ENDBRANCH  32  35
ENDBRANCH  31  32
ENDBRANCH  29  31
ENDBRANCH  26  29
ENDBRANCH  11  26
ENDBRANCH   2   5
BRANCH   4  38
HETATM   38  C   UNL     1      -8.489   5.610  64.695  1.00  0.00    -0.085 C  
HETATM   39  O   UNL     1      -8.354   4.245  65.041  1.00  0.00    -0.110 OA 
HETATM   40  H   UNL     1      -9.199   3.815  65.105  1.00  0.00     0.000 HD 
ENDBRANCH   4  38
TORSDOF 12
ENDMDL
MODEL      157
REMARK 921   NORMALIZED FREE ENERGY PREDICTED BY IDOCK:   -3.16 KCAL/MOL
REMARK 922        TOTAL FREE ENERGY PREDICTED BY IDOCK:   -6.42 KCAL/MOL
REMARK 923 INTER-LIGAND FREE ENERGY PREDICTED BY IDOCK:   -5.47 KCAL/MOL
REMARK 924 INTRA-LIGAND FREE ENERGY PREDICTED BY IDOCK:   -0.95 KCAL/MOL
REMARK 927      BINDING AFFINITY PREDICTED BY RF-SCORE:    0.00 PKD
ROOT
HETATM    1  C   UNL     1      -6.750   6.178  65.512  1.00  0.00    -0.048 C  
HETATM    2  N   UNL     1      -8.072   6.022  66.113  1.00  0.00    -0.107 N  
HETATM    3  O   UNL     1      -8.939   4.940  64.278  1.00  0.00    -0.141 OA 
HETATM    4  C   UNL     1      -9.106   5.409  65.400  1.00  0.00    -0.088 C  
ENDROOT
BRANCH   2   5
HETATM    5  C   UNL     1      -8.216   6.512  67.450  1.00  0.00    -0.121 A  
HETATM    6  I   UNL     1      -9.239   9.008  65.930  1.00  0.00    -0.264 I  
HETATM    7  C   UNL     1      -8.001   5.641  68.548  1.00  0.00    -0.100 A  
HETATM    8  C   UNL     1      -8.079   6.132  69.867  1.00  0.00    -0.119 A  
HETATM    9  C   UNL     1      -8.573   7.868  67.670  1.00  0.00    -0.127 A  
HETATM   10  I   UNL     1      -7.597   3.552  68.127  1.00  0.00    -0.060 I  
HETATM   11  C   UNL     1      -8.585   8.408  68.981  1.00  0.00    -0.131 A  
HETATM   12  I   UNL     1      -7.848   8.376  72.020  1.00  0.00    -0.077 I  
HETATM   13  C   UNL     1      -8.283   7.533  70.063  1.00  0.00    -0.130 A  
BRANCH   8  14
HETATM   14  C   UNL     1      -8.127   5.210  71.045  1.00  0.00    -0.103 C  
HETATM   15  H   UNL     1      -6.996   4.358  72.408  1.00  0.00     0.000 HD 
HETATM   16  O   UNL     1      -6.965   4.943  71.661  1.00  0.00    -0.049 OA 
BRANCH  14  17
HETATM   17  N   UNL     1      -9.227   4.688  71.442  1.00  0.00    -0.137 NA 
HETATM   18  H   UNL     1      -9.227   3.891  72.079  1.00  0.00     0.000 HD 
BRANCH  17  19
HETATM   19  C   UNL     1     -10.490   5.265  70.956  1.00  0.00    -0.203 C  
BRANCH  19  20
HETATM   20  C   UNL     1     -11.182   6.010  72.104  1.00  0.00    -0.291 C  
HETATM   21  H   UNL     1     -12.854   7.018  72.364  1.00  0.00     0.000 HD 
HETATM   22  O   UNL     1     -12.426   6.556  71.653  1.00  0.00    -0.336 OA 
BRANCH  20  23
HETATM   23  C   UNL     1     -11.408   5.082  73.311  1.00  0.00    -0.317 C  
HETATM   24  O   UNL     1     -10.434   5.299  74.331  1.00  0.00    -0.275 OA 
HETATM   25  H   UNL     1     -10.573   4.726  75.076  1.00  0.00     0.000 HD 
ENDBRANCH  20  23
ENDBRANCH  19  20
ENDBRANCH  17  19
ENDBRANCH  14  17
ENDBRANCH   8  14
BRANCH  11  26
HETATM   26  C   UNL     1      -8.917   9.859  69.180  1.00  0.00    -0.169 C  
HETATM   27  O   UNL     1     -10.227  10.158  69.301  1.00  0.00    -0.196 OA 
HETATM   28  H   UNL     1     -10.438  11.076  69.426  1.00  0.00     0.000 HD 
BRANCH  26  29
HETATM   29  N   UNL     1      -8.032  10.785  69.173  1.00  0.00    -0.209 NA 
HETATM   30  H   UNL     1      -7.162  10.674  69.693  1.00  0.00     0.000 HD 
BRANCH  29  31
HETATM   31  C   UNL     1      -8.288  12.013  68.403  1.00  0.00    -0.151 C  
BRANCH  31  32
HETATM   32  C   UNL     1      -7.135  13.037  68.526  1.00  0.00    -0.105 C  
HETATM   33  O   UNL     1      -6.268  12.754  69.636  1.00  0.00    -0.119 OA 
HETATM   34  H   UNL     1      -5.560  13.383  69.712  1.00  0.00     0.000 HD 
BRANCH  32  35
HETATM   35  C   UNL     1      -6.282  13.035  67.246  1.00  0.00     0.064 C  
HETATM   36  O   UNL     1      -6.489  11.864  66.456  1.00  0.00    -0.359 OA 
HETATM   37  H   UNL     1      -5.962  11.862  65.665  1.00  0.00     0.000 HD 
ENDBRANCH  32  35
ENDBRANCH  31  32
ENDBRANCH  29  31
ENDBRANCH  26  29
ENDBRANCH  11  26
ENDBRANCH   2   5
BRANCH   4  38
HETATM   38  C   UNL     1     -10.501   5.355  66.049  1.00  0.00    -0.071 C  
HETATM   39  O   UNL     1     -11.366   4.479  65.352  1.00  0.00    -0.937 OA 
HETATM   40  H   UNL     1     -12.227   4.446  65.753  1.00  0.00     0.000 HD 
ENDBRANCH   4  38
TORSDOF 12
ENDMDL
MODEL      158
REMARK 921   NORMALIZED FREE ENERGY PREDICTED BY IDOCK:   -3.12 KCAL/MOL
REMARK 922        TOTAL FREE ENERGY PREDICTED BY IDOCK:   -6.35 KCAL/MOL
REMARK 923 INTER-LIGAND FREE ENERGY PREDICTED BY IDOCK:   -5.24 KCAL/MOL
REMARK 924 INTRA-LIGAND FREE ENERGY PREDICTED BY IDOCK:   -1.11 KCAL/MOL
REMARK 927      BINDING AFFINITY PREDICTED BY RF-SCORE:    0.00 PKD
ROOT
HETATM    1  C   UNL     1      -9.098   2.508  70.765  1.00  0.00    -0.117 C  
HETATM    2  N   UNL     1      -8.164   3.500  70.240  1.00  0.00    -0.055 N  
HETATM    3  O   UNL     1      -6.518   1.947  69.832  1.00  0.00    -0.027 OA 
HETATM    4  C   UNL     1      -6.887   3.118  69.822  1.00  0.00    -0.034 C  
ENDROOT
BRANCH   2   5
HETATM    5  C   UNL     1      -8.648   4.845  70.172  1.00  0.00    -0.091 A  
HETATM    6  I   UNL     1      -7.242   5.000  72.926  1.00  0.00    -0.090 I  
HETATM    7  C   UNL     1      -9.258   5.316  68.981  1.00  0.00    -0.118 A  
HETATM    8  C   UNL     1      -9.794   6.619  68.928  1.00  0.00    -0.143 A  
HETATM    9  C   UNL     1      -8.517   5.701  71.296  1.00  0.00    -0.128 A  
HETATM   10  I   UNL     1      -9.295   3.993  67.263  1.00  0.00    -0.212 I  
HETATM   11  C   UNL     1      -9.111   6.988  71.298  1.00  0.00    -0.152 A  
HETATM   12  I   UNL     1     -11.090   9.150  70.207  1.00  0.00    -0.194 I  
HETATM   13  C   UNL     1      -9.792   7.407  70.120  1.00  0.00    -0.180 A  
BRANCH   8  14
HETATM   14  C   UNL     1     -10.199   7.248  67.631  1.00  0.00    -0.200 C  
HETATM   15  H   UNL     1     -11.667   7.330  66.327  1.00  0.00     0.000 HD 
HETATM   16  O   UNL     1     -11.411   6.931  67.149  1.00  0.00    -0.290 OA 
BRANCH  14  17
HETATM   17  N   UNL     1      -9.418   8.043  67.001  1.00  0.00    -0.162 NA 
HETATM   18  H   UNL     1      -8.435   7.809  66.861  1.00  0.00     0.000 HD 
BRANCH  17  19
HETATM   19  C   UNL     1      -9.974   9.303  66.483  1.00  0.00    -0.274 C  
BRANCH  19  20
HETATM   20  C   UNL     1      -9.044   9.860  65.399  1.00  0.00    -0.196 C  
HETATM   21  H   UNL     1      -7.726   9.140  64.124  1.00  0.00     0.000 HD 
HETATM   22  O   UNL     1      -8.302   8.795  64.796  1.00  0.00    -0.154 OA 
BRANCH  20  23
HETATM   23  C   UNL     1      -9.837  10.636  64.333  1.00  0.00    -0.334 C  
HETATM   24  O   UNL     1      -8.988  11.477  63.553  1.00  0.00    -0.456 OA 
HETATM   25  H   UNL     1      -9.478  11.956  62.894  1.00  0.00     0.000 HD 
ENDBRANCH  20  23
ENDBRANCH  19  20
ENDBRANCH  17  19
ENDBRANCH  14  17
ENDBRANCH   8  14
BRANCH  11  26
HETATM   26  C   UNL     1      -9.000   7.852  72.522  1.00  0.00    -0.174 C  
HETATM   27  O   UNL     1      -9.884   7.602  73.509  1.00  0.00    -0.298 OA 
HETATM   28  H   UNL     1      -9.814   8.148  74.283  1.00  0.00     0.000 HD 
BRANCH  26  29
HETATM   29  N   UNL     1      -8.165   8.820  72.620  1.00  0.00    -0.400 NA 
HETATM   30  H   UNL     1      -8.323   9.573  73.289  1.00  0.00     0.000 HD 
BRANCH  29  31
HETATM   31  C   UNL     1      -6.976   8.829  71.753  1.00  0.00    -0.056 C  
BRANCH  31  32
HETATM   32  C   UNL     1      -7.140   9.773  70.539  1.00  0.00    -0.122 C  
HETATM   33  O   UNL     1      -6.551  11.064  70.765  1.00  0.00    -0.467 OA 
HETATM   34  H   UNL     1      -6.652  11.644  70.019  1.00  0.00     0.000 HD 
BRANCH  32  35
HETATM   35  C   UNL     1      -6.473   9.160  69.295  1.00  0.00    -0.045 C  
HETATM   36  O   UNL     1      -6.249   7.757  69.433  1.00  0.00    -0.033 OA 
HETATM   37  H   UNL     1      -5.837   7.379  68.665  1.00  0.00     0.000 HD 
ENDBRANCH  32  35
ENDBRANCH  31  32
ENDBRANCH  29  31
ENDBRANCH  26  29
ENDBRANCH  11  26
ENDBRANCH   2   5
BRANCH   4  38
HETATM   38  C   UNL     1      -5.914   4.220  69.364  1.00  0.00    -0.022 C  
HETATM   39  O   UNL     1      -5.562   4.070  68.002  1.00  0.00    -0.019 OA 
HETATM   40  H   UNL     1      -4.961   4.750  67.719  1.00  0.00     0.000 HD 
ENDBRANCH   4  38
TORSDOF 12
ENDMDL
MODEL      159
REMARK 921   NORMALIZED FREE ENERGY PREDICTED BY IDOCK:   -3.00 KCAL/MOL
REMARK 922        TOTAL FREE ENERGY PREDICTED BY IDOCK:   -6.14 KCAL/MOL
REMARK 923 INTER-LIGAND FREE ENERGY PREDICTED BY IDOCK:   -5.44 KCAL/MOL
REMARK 924 INTRA-LIGAND FREE ENERGY PREDICTED BY IDOCK:   -0.70 KCAL/MOL
REMARK 927      BINDING AFFINITY PREDICTED BY RF-SCORE:    0.00 PKD
ROOT
HETATM    1  C   UNL     1      -8.924  10.208  69.685  1.00  0.00    -0.169 C  
HETATM    2  N   UNL     1      -9.969   9.219  69.939  1.00  0.00    -0.193 N  
HETATM    3  O   UNL     1     -11.511  10.800  70.582  1.00  0.00    -0.325 OA 
HETATM    4  C   UNL     1     -11.222   9.619  70.411  1.00  0.00    -0.283 C  
ENDROOT
BRANCH   2   5
HETATM    5  C   UNL     1      -9.627   7.858  69.660  1.00  0.00    -0.164 A  
HETATM    6  I   UNL     1     -10.109   8.817  66.756  1.00  0.00    -0.269 I  
HETATM    7  C   UNL     1      -9.165   7.018  70.706  1.00  0.00    -0.157 A  
HETATM    8  C   UNL     1      -8.887   5.659  70.451  1.00  0.00    -0.143 A  
HETATM    9  C   UNL     1      -9.753   7.355  68.339  1.00  0.00    -0.153 A  
HETATM   10  I   UNL     1      -8.868   7.900  72.664  1.00  0.00    -0.314 I  
HETATM   11  C   UNL     1      -9.553   5.977  68.069  1.00  0.00    -0.120 A  
HETATM   12  I   UNL     1      -9.286   2.977  68.911  1.00  0.00    -0.131 I  
HETATM   13  C   UNL     1      -9.172   5.136  69.152  1.00  0.00    -0.110 A  
BRANCH   8  14
HETATM   14  C   UNL     1      -8.151   4.812  71.441  1.00  0.00    -0.102 C  
HETATM   15  H   UNL     1      -6.348   4.397  72.106  1.00  0.00     0.000 HD 
HETATM   16  O   UNL     1      -6.815   4.935  71.478  1.00  0.00    -0.040 OA 
BRANCH  14  17
HETATM   17  N   UNL     1      -8.766   3.995  72.211  1.00  0.00    -0.105 NA 
HETATM   18  H   UNL     1      -9.002   3.054  71.895  1.00  0.00     0.000 HD 
BRANCH  17  19
HETATM   19  C   UNL     1      -9.125   4.446  73.565  1.00  0.00    -0.105 C  
BRANCH  19  20
HETATM   20  C   UNL     1     -10.625   4.223  73.793  1.00  0.00    -0.238 C  
HETATM   21  H   UNL     1     -12.312   5.006  73.143  1.00  0.00     0.000 HD 
HETATM   22  O   UNL     1     -11.382   5.144  73.001  1.00  0.00    -0.302 OA 
BRANCH  20  23
HETATM   23  C   UNL     1     -11.027   2.775  73.467  1.00  0.00    -0.216 C  
HETATM   24  O   UNL     1     -10.057   1.840  73.938  1.00  0.00    -0.085 OA 
HETATM   25  H   UNL     1     -10.305   0.945  73.736  1.00  0.00     0.000 HD 
ENDBRANCH  20  23
ENDBRANCH  19  20
ENDBRANCH  17  19
ENDBRANCH  14  17
ENDBRANCH   8  14
BRANCH  11  26
HETATM   26  C   UNL     1      -9.743   5.463  66.670  1.00  0.00    -0.161 C  
HETATM   27  O   UNL     1     -11.019   5.352  66.246  1.00  0.00    -0.666 OA 
HETATM   28  H   UNL     1     -11.140   5.027  65.361  1.00  0.00     0.000 HD 
BRANCH  26  29
HETATM   29  N   UNL     1      -8.771   5.083  65.927  1.00  0.00    -0.127 NA 
HETATM   30  H   UNL     1      -8.668   4.102  65.671  1.00  0.00     0.000 HD 
BRANCH  29  31
HETATM   31  C   UNL     1      -7.803   6.083  65.449  1.00  0.00    -0.104 C  
BRANCH  31  32
HETATM   32  C   UNL     1      -7.239   5.735  64.051  1.00  0.00    -0.055 C  
HETATM   33  O   UNL     1      -6.565   6.847  63.440  1.00  0.00    -0.042 OA 
HETATM   34  H   UNL     1      -6.218   6.633  62.582  1.00  0.00     0.000 HD 
BRANCH  32  35
HETATM   35  C   UNL     1      -6.236   4.573  64.157  1.00  0.00    -0.026 C  
HETATM   36  O   UNL     1      -6.191   4.011  65.468  1.00  0.00    -0.026 OA 
HETATM   37  H   UNL     1      -5.571   3.294  65.533  1.00  0.00     0.000 HD 
ENDBRANCH  32  35
ENDBRANCH  31  32
ENDBRANCH  29  31
ENDBRANCH  26  29
ENDBRANCH  11  26
ENDBRANCH   2   5
BRANCH   4  38
HETATM   38  C   UNL     1     -12.252   8.526  70.749  1.00  0.00    -0.007 C  
HETATM   39  O   UNL     1     -13.564   9.050  70.818  1.00  0.00    -0.503 OA 
HETATM   40  H   UNL     1     -14.199   8.375  71.026  1.00  0.00     0.000 HD 
ENDBRANCH   4  38
TORSDOF 12
ENDMDL
MODEL      160
REMARK 921   NORMALIZED FREE ENERGY PREDICTED BY IDOCK:   -2.91 KCAL/MOL
REMARK 922        TOTAL FREE ENERGY PREDICTED BY IDOCK:   -5.99 KCAL/MOL
REMARK 923 INTER-LIGAND FREE ENERGY PREDICTED BY IDOCK:   -6.34 KCAL/MOL
REMARK 924 INTRA-LIGAND FREE ENERGY PREDICTED BY IDOCK:    0.36 KCAL/MOL
REMARK 927      BINDING AFFINITY PREDICTED BY RF-SCORE:    0.00 PKD
ROOT
HETATM    1  C   UNL     1      -8.469  12.538  66.519  1.00  0.00     0.089 C  
HETATM    2  N   UNL     1      -9.898  12.821  66.425  1.00  0.00    -0.264 N  
HETATM    3  O   UNL     1     -10.093  11.886  64.332  1.00  0.00    -0.269 OA 
HETATM    4  C   UNL     1     -10.613  12.476  65.275  1.00  0.00    -0.290 C  
ENDROOT
BRANCH   2   5
HETATM    5  C   UNL     1     -10.493  13.442  67.568  1.00  0.00    -0.236 A  
HETATM    6  I   UNL     1      -9.729  16.000  65.999  1.00  0.00    -0.327 I  
HETATM    7  C   UNL     1     -11.149  12.646  68.542  1.00  0.00    -0.266 A  
HETATM    8  C   UNL     1     -11.682  13.244  69.703  1.00  0.00    -0.369 A  
HETATM    9  C   UNL     1     -10.424  14.851  67.723  1.00  0.00    -0.255 A  
HETATM   10  I   UNL     1     -11.334  10.520  68.163  1.00  0.00     0.052 I  
HETATM   11  C   UNL     1     -10.883  15.471  68.912  1.00  0.00    -0.254 A  
HETATM   12  I   UNL     1     -11.770  15.443  71.911  1.00  0.00    -0.534 I  
HETATM   13  C   UNL     1     -11.462  14.641  69.914  1.00  0.00    -0.274 A  
BRANCH   8  14
HETATM   14  C   UNL     1     -12.606  12.499  70.614  1.00  0.00    -0.155 C  
HETATM   15  H   UNL     1     -14.367  12.607  71.481  1.00  0.00     0.000 HD 
HETATM   16  O   UNL     1     -13.781  13.080  70.902  1.00  0.00     0.481 OA 
BRANCH  14  17
HETATM   17  N   UNL     1     -12.285  11.362  71.109  1.00  0.00    -0.284 NA 
HETATM   18  H   UNL     1     -11.308  11.074  71.167  1.00  0.00     0.000 HD 
BRANCH  17  19
HETATM   19  C   UNL     1     -13.361  10.481  71.590  1.00  0.00    -0.324 C  
BRANCH  19  20
HETATM   20  C   UNL     1     -12.770   9.116  71.962  1.00  0.00    -0.398 C  
HETATM   21  H   UNL     1     -11.922   8.297  73.540  1.00  0.00     0.000 HD 
HETATM   22  O   UNL     1     -12.288   9.143  73.310  1.00  0.00     0.563 OA 
BRANCH  20  23
HETATM   23  C   UNL     1     -13.809   7.995  71.784  1.00  0.00    -0.386 C  
HETATM   24  O   UNL     1     -13.502   7.166  70.664  1.00  0.00    -0.497 OA 
HETATM   25  H   UNL     1     -14.144   6.474  70.554  1.00  0.00     0.000 HD 
ENDBRANCH  20  23
ENDBRANCH  19  20
ENDBRANCH  17  19
ENDBRANCH  14  17
ENDBRANCH   8  14
BRANCH  11  26
HETATM   26  C   UNL     1     -10.750  16.959  69.070  1.00  0.00    -0.308 C  
HETATM   27  O   UNL     1     -11.901  17.663  69.058  1.00  0.00     1.093 OA 
HETATM   28  H   UNL     1     -11.818  18.604  69.158  1.00  0.00     0.000 HD 
BRANCH  26  29
HETATM   29  N   UNL     1      -9.619  17.555  69.146  1.00  0.00    -0.121 NA 
HETATM   30  H   UNL     1      -8.777  17.037  69.397  1.00  0.00     0.000 HD 
BRANCH  29  31
HETATM   31  C   UNL     1      -9.550  18.998  68.865  1.00  0.00    -0.363 C  
BRANCH  31  32
HETATM   32  C   UNL     1      -8.695  19.315  67.615  1.00  0.00    -0.296 C  
HETATM   33  O   UNL     1      -9.236  20.397  66.842  1.00  0.00    -0.468 OA 
HETATM   34  H   UNL     1      -8.711  20.591  66.074  1.00  0.00     0.000 HD 
BRANCH  32  35
HETATM   35  C   UNL     1      -7.265  19.699  68.033  1.00  0.00    -0.286 C  
HETATM   36  O   UNL     1      -7.119  19.795  69.450  1.00  0.00    -0.351 OA 
HETATM   37  H   UNL     1      -6.236  20.033  69.707  1.00  0.00     0.000 HD 
ENDBRANCH  32  35
ENDBRANCH  31  32
ENDBRANCH  29  31
ENDBRANCH  26  29
ENDBRANCH  11  26
ENDBRANCH   2   5
BRANCH   4  38
HETATM   38  C   UNL     1     -12.096  12.882  65.194  1.00  0.00    -0.445 C  
HETATM   39  O   UNL     1     -12.339  13.752  64.106  1.00  0.00    -0.604 OA 
HETATM   40  H   UNL     1     -13.255  14.003  64.056  1.00  0.00     0.000 HD 
ENDBRANCH   4  38
TORSDOF 12
ENDMDL
MODEL      161
REMARK 921   NORMALIZED FREE ENERGY PREDICTED BY IDOCK:   -2.87 KCAL/MOL
REMARK 922        TOTAL FREE ENERGY PREDICTED BY IDOCK:   -5.92 KCAL/MOL
REMARK 923 INTER-LIGAND FREE ENERGY PREDICTED BY IDOCK:   -5.27 KCAL/MOL
REMARK 924 INTRA-LIGAND FREE ENERGY PREDICTED BY IDOCK:   -0.65 KCAL/MOL
REMARK 927      BINDING AFFINITY PREDICTED BY RF-SCORE:    0.00 PKD
ROOT
HETATM    1  C   UNL     1     -11.493   7.034  67.799  1.00  0.00     0.442 C  
HETATM    2  N   UNL     1     -10.289   7.419  68.530  1.00  0.00    -0.195 N  
HETATM    3  O   UNL     1     -10.978   6.418  70.483  1.00  0.00    -0.261 OA 
HETATM    4  C   UNL     1     -10.141   7.082  69.878  1.00  0.00    -0.193 C  
ENDROOT
BRANCH   2   5
HETATM    5  C   UNL     1      -9.299   8.128  67.780  1.00  0.00    -0.134 A  
HETATM    6  I   UNL     1      -8.407   5.240  67.107  1.00  0.00    -0.103 I  
HETATM    7  C   UNL     1      -9.384   9.539  67.655  1.00  0.00    -0.123 A  
HETATM    8  C   UNL     1      -8.377  10.251  66.971  1.00  0.00    -0.126 A  
HETATM    9  C   UNL     1      -8.235   7.418  67.165  1.00  0.00    -0.118 A  
HETATM   10  I   UNL     1     -11.113  10.533  68.503  1.00  0.00    -0.300 I  
HETATM   11  C   UNL     1      -7.170   8.112  66.536  1.00  0.00    -0.080 A  
HETATM   12  I   UNL     1      -5.456  10.663  65.961  1.00  0.00    -0.140 I  
HETATM   13  C   UNL     1      -7.235   9.533  66.497  1.00  0.00    -0.089 A  
BRANCH   8  14
HETATM   14  C   UNL     1      -8.558  11.685  66.583  1.00  0.00    -0.179 C  
HETATM   15  H   UNL     1      -8.005  13.511  67.056  1.00  0.00     0.000 HD 
HETATM   16  O   UNL     1      -7.890  12.601  67.302  1.00  0.00    -0.171 OA 
BRANCH  14  17
HETATM   17  N   UNL     1      -9.325  12.026  65.617  1.00  0.00    -0.412 NA 
HETATM   18  H   UNL     1      -9.388  11.455  64.774  1.00  0.00     0.000 HD 
BRANCH  17  19
HETATM   19  C   UNL     1     -10.112  13.261  65.752  1.00  0.00    -0.286 C  
BRANCH  19  20
HETATM   20  C   UNL     1     -11.225  13.271  64.697  1.00  0.00    -0.348 C  
HETATM   21  H   UNL     1     -13.138  12.806  64.618  1.00  0.00     0.000 HD 
HETATM   22  O   UNL     1     -12.448  12.800  65.272  1.00  0.00    -0.496 OA 
BRANCH  20  23
HETATM   23  C   UNL     1     -11.416  14.679  64.105  1.00  0.00    -0.022 C  
HETATM   24  O   UNL     1     -12.789  15.067  64.101  1.00  0.00    -0.644 OA 
HETATM   25  H   UNL     1     -12.906  15.936  63.735  1.00  0.00     0.000 HD 
ENDBRANCH  20  23
ENDBRANCH  19  20
ENDBRANCH  17  19
ENDBRANCH  14  17
ENDBRANCH   8  14
BRANCH  11  26
HETATM   26  C   UNL     1      -6.032   7.335  65.939  1.00  0.00    -0.037 C  
HETATM   27  O   UNL     1      -5.156   6.797  66.813  1.00  0.00    -0.012 OA 
HETATM   28  H   UNL     1      -4.436   6.305  66.436  1.00  0.00     0.000 HD 
BRANCH  26  29
HETATM   29  N   UNL     1      -5.844   7.230  64.676  1.00  0.00    -0.037 NA 
HETATM   30  H   UNL     1      -5.276   7.915  64.179  1.00  0.00     0.000 HD 
BRANCH  29  31
HETATM   31  C   UNL     1      -6.461   6.107  63.952  1.00  0.00    -0.030 C  
BRANCH  31  32
HETATM   32  C   UNL     1      -7.547   6.574  62.955  1.00  0.00    -0.082 C  
HETATM   33  O   UNL     1      -8.860   6.127  63.328  1.00  0.00    -0.273 OA 
HETATM   34  H   UNL     1      -9.528   6.413  62.715  1.00  0.00     0.000 HD 
BRANCH  32  35
HETATM   35  C   UNL     1      -7.574   8.110  62.878  1.00  0.00    -0.123 C  
HETATM   36  O   UNL     1      -8.850   8.650  63.220  1.00  0.00    -0.432 OA 
HETATM   37  H   UNL     1      -8.867   9.599  63.171  1.00  0.00     0.000 HD 
ENDBRANCH  32  35
ENDBRANCH  31  32
ENDBRANCH  29  31
ENDBRANCH  26  29
ENDBRANCH  11  26
ENDBRANCH   2   5
BRANCH   4  38
HETATM   38  C   UNL     1      -8.894   7.595  70.621  1.00  0.00    -0.145 C  
HETATM   39  O   UNL     1      -8.710   6.926  71.854  1.00  0.00    -0.126 OA 
HETATM   40  H   UNL     1      -7.940   7.242  72.312  1.00  0.00     0.000 HD 
ENDBRANCH   4  38
TORSDOF 12
ENDMDL
MODEL      162
REMARK 921   NORMALIZED FREE ENERGY PREDICTED BY IDOCK:   -2.87 KCAL/MOL
REMARK 922        TOTAL FREE ENERGY PREDICTED BY IDOCK:   -5.92 KCAL/MOL
REMARK 923 INTER-LIGAND FREE ENERGY PREDICTED BY IDOCK:   -5.47 KCAL/MOL
REMARK 924 INTRA-LIGAND FREE ENERGY PREDICTED BY IDOCK:   -0.45 KCAL/MOL
REMARK 927      BINDING AFFINITY PREDICTED BY RF-SCORE:    0.00 PKD
ROOT
HETATM    1  C   UNL     1     -11.018  13.894  69.334  1.00  0.00    -0.126 C  
HETATM    2  N   UNL     1     -11.013  13.095  68.112  1.00  0.00    -0.242 N  
HETATM    3  O   UNL     1     -12.738  14.279  67.157  1.00  0.00     0.043 OA 
HETATM    4  C   UNL     1     -11.933  13.354  67.093  1.00  0.00    -0.366 C  
ENDROOT
BRANCH   2   5
HETATM    5  C   UNL     1     -10.016  12.072  68.034  1.00  0.00    -0.197 A  
HETATM    6  I   UNL     1      -8.392  14.396  66.790  1.00  0.00     0.495 I  
HETATM    7  C   UNL     1     -10.250  10.810  68.639  1.00  0.00    -0.185 A  
HETATM    8  C   UNL     1      -9.299   9.777  68.512  1.00  0.00    -0.142 A  
HETATM    9  C   UNL     1      -8.797  12.324  67.352  1.00  0.00    -0.185 A  
HETATM   10  I   UNL     1     -12.074  10.552  69.781  1.00  0.00    -0.070 I  
HETATM   11  C   UNL     1      -7.856  11.283  67.144  1.00  0.00    -0.151 A  
HETATM   12  I   UNL     1      -6.997   8.278  67.036  1.00  0.00    -0.072 I  
HETATM   13  C   UNL     1      -8.153  10.001  67.688  1.00  0.00    -0.110 A  
BRANCH   8  14
HETATM   14  C   UNL     1      -9.374   8.537  69.346  1.00  0.00    -0.154 C  
HETATM   15  H   UNL     1      -9.997   6.672  69.319  1.00  0.00     0.000 HD 
HETATM   16  O   UNL     1      -9.949   7.459  68.789  1.00  0.00    -0.161 OA 
BRANCH  14  17
HETATM   17  N   UNL     1      -8.921   8.506  70.543  1.00  0.00    -0.147 NA 
HETATM   18  H   UNL     1      -8.252   9.205  70.866  1.00  0.00     0.000 HD 
BRANCH  17  19
HETATM   19  C   UNL     1      -9.388   7.438  71.440  1.00  0.00    -0.142 C  
BRANCH  19  20
HETATM   20  C   UNL     1      -8.626   7.522  72.769  1.00  0.00    -0.120 C  
HETATM   21  H   UNL     1      -7.217   8.656  73.551  1.00  0.00     0.000 HD 
HETATM   22  O   UNL     1      -7.690   8.604  72.728  1.00  0.00    -0.347 OA 
BRANCH  20  23
HETATM   23  C   UNL     1      -9.593   7.691  73.953  1.00  0.00    -0.130 C  
HETATM   24  O   UNL     1     -10.925   7.317  73.603  1.00  0.00    -0.540 OA 
HETATM   25  H   UNL     1     -11.522   7.421  74.335  1.00  0.00     0.000 HD 
ENDBRANCH  20  23
ENDBRANCH  19  20
ENDBRANCH  17  19
ENDBRANCH  14  17
ENDBRANCH   8  14
BRANCH  11  26
HETATM   26  C   UNL     1      -6.599  11.567  66.373  1.00  0.00     0.042 C  
HETATM   27  O   UNL     1      -6.568  11.120  65.101  1.00  0.00    -0.296 OA 
HETATM   28  H   UNL     1      -5.772  11.299  64.613  1.00  0.00     0.000 HD 
BRANCH  26  29
HETATM   29  N   UNL     1      -5.576  12.139  66.892  1.00  0.00    -0.344 NA 
HETATM   30  H   UNL     1      -5.044  12.828  66.360  1.00  0.00     0.000 HD 
BRANCH  29  31
HETATM   31  C   UNL     1      -5.180  11.788  68.264  1.00  0.00    -0.043 C  
BRANCH  31  32
HETATM   32  C   UNL     1      -5.130  13.022  69.197  1.00  0.00    -0.069 C  
HETATM   33  O   UNL     1      -5.527  14.230  68.528  1.00  0.00    -0.086 OA 
HETATM   34  H   UNL     1      -5.496  14.988  69.101  1.00  0.00     0.000 HD 
BRANCH  32  35
HETATM   35  C   UNL     1      -6.067  12.817  70.400  1.00  0.00    -0.024 C  
HETATM   36  O   UNL     1      -6.526  14.053  70.949  1.00  0.00    -0.428 OA 
HETATM   37  H   UNL     1      -7.104  13.926  71.692  1.00  0.00     0.000 HD 
ENDBRANCH  32  35
ENDBRANCH  31  32
ENDBRANCH  29  31
ENDBRANCH  26  29
ENDBRANCH  11  26
ENDBRANCH   2   5
BRANCH   4  38
HETATM   38  C   UNL     1     -11.941  12.421  65.868  1.00  0.00    -0.367 C  
HETATM   39  O   UNL     1     -13.029  12.700  65.008  1.00  0.00    -0.812 OA 
HETATM   40  H   UNL     1     -13.033  12.124  64.252  1.00  0.00     0.000 HD 
ENDBRANCH   4  38
TORSDOF 12
ENDMDL
MODEL      163
REMARK 921   NORMALIZED FREE ENERGY PREDICTED BY IDOCK:   -2.85 KCAL/MOL
REMARK 922        TOTAL FREE ENERGY PREDICTED BY IDOCK:   -5.89 KCAL/MOL
REMARK 923 INTER-LIGAND FREE ENERGY PREDICTED BY IDOCK:   -5.15 KCAL/MOL
REMARK 924 INTRA-LIGAND FREE ENERGY PREDICTED BY IDOCK:   -0.74 KCAL/MOL
REMARK 927      BINDING AFFINITY PREDICTED BY RF-SCORE:    0.00 PKD
ROOT
HETATM    1  C   UNL     1     -12.063  12.321  66.733  1.00  0.00     0.031 C  
HETATM    2  N   UNL     1     -11.213  11.907  67.845  1.00  0.00    -0.243 N  
HETATM    3  O   UNL     1     -12.851  10.607  68.804  1.00  0.00     0.351 OA 
HETATM    4  C   UNL     1     -11.713  11.066  68.843  1.00  0.00    -0.330 C  
ENDROOT
BRANCH   2   5
HETATM    5  C   UNL     1      -9.870  12.399  67.826  1.00  0.00    -0.203 A  
HETATM    6  I   UNL     1      -9.490   9.943  65.978  1.00  0.00    -0.324 I  
HETATM    7  C   UNL     1      -9.564  13.642  68.436  1.00  0.00    -0.203 A  
HETATM    8  C   UNL     1      -8.232  14.102  68.476  1.00  0.00    -0.146 A  
HETATM    9  C   UNL     1      -8.849  11.639  67.197  1.00  0.00    -0.172 A  
HETATM   10  I   UNL     1     -11.202  14.806  69.250  1.00  0.00    -0.366 I  
HETATM   11  C   UNL     1      -7.491  12.039  67.287  1.00  0.00    -0.158 A  
HETATM   12  I   UNL     1      -5.142  13.683  68.536  1.00  0.00    -0.110 I  
HETATM   13  C   UNL     1      -7.199  13.249  67.978  1.00  0.00    -0.121 A  
BRANCH   8  14
HETATM   14  C   UNL     1      -7.901  15.510  68.861  1.00  0.00    -0.182 C  
HETATM   15  H   UNL     1      -7.519  16.657  70.412  1.00  0.00     0.000 HD 
HETATM   16  O   UNL     1      -7.729  15.763  70.168  1.00  0.00     0.261 OA 
BRANCH  14  17
HETATM   17  N   UNL     1      -7.797  16.437  67.984  1.00  0.00    -0.152 NA 
HETATM   18  H   UNL     1      -7.169  16.335  67.187  1.00  0.00     0.000 HD 
BRANCH  17  19
HETATM   19  C   UNL     1      -8.607  17.654  68.154  1.00  0.00    -0.261 C  
BRANCH  19  20
HETATM   20  C   UNL     1      -9.886  17.533  67.316  1.00  0.00    -0.294 C  
HETATM   21  H   UNL     1     -11.288  18.745  66.647  1.00  0.00     0.000 HD 
HETATM   22  O   UNL     1     -10.495  18.820  67.167  1.00  0.00    -0.386 OA 
BRANCH  20  23
HETATM   23  C   UNL     1      -9.590  16.914  65.939  1.00  0.00    -0.138 C  
HETATM   24  O   UNL     1     -10.665  17.127  65.024  1.00  0.00    -0.712 OA 
HETATM   25  H   UNL     1     -10.482  16.745  64.173  1.00  0.00     0.000 HD 
ENDBRANCH  20  23
ENDBRANCH  19  20
ENDBRANCH  17  19
ENDBRANCH  14  17
ENDBRANCH   8  14
BRANCH  11  26
HETATM   26  C   UNL     1      -6.427  11.188  66.655  1.00  0.00    -0.134 C  
HETATM   27  O   UNL     1      -6.220  11.377  65.335  1.00  0.00    -0.333 OA 
HETATM   28  H   UNL     1      -5.547  10.839  64.935  1.00  0.00     0.000 HD 
BRANCH  26  29
HETATM   29  N   UNL     1      -5.784  10.283  67.296  1.00  0.00    -0.045 NA 
HETATM   30  H   UNL     1      -5.107  10.540  68.014  1.00  0.00     0.000 HD 
BRANCH  29  31
HETATM   31  C   UNL     1      -6.037   8.868  66.982  1.00  0.00    -0.058 C  
BRANCH  31  32
HETATM   32  C   UNL     1      -6.471   8.057  68.225  1.00  0.00    -0.055 C  
HETATM   33  O   UNL     1      -7.625   8.618  68.870  1.00  0.00    -0.088 OA 
HETATM   34  H   UNL     1      -7.892   8.120  69.634  1.00  0.00     0.000 HD 
BRANCH  32  35
HETATM   35  C   UNL     1      -6.808   6.610  67.826  1.00  0.00    -0.080 C  
HETATM   36  O   UNL     1      -7.536   6.539  66.600  1.00  0.00    -0.091 OA 
HETATM   37  H   UNL     1      -7.744   5.646  66.353  1.00  0.00     0.000 HD 
ENDBRANCH  32  35
ENDBRANCH  31  32
ENDBRANCH  29  31
ENDBRANCH  26  29
ENDBRANCH  11  26
ENDBRANCH   2   5
BRANCH   4  38
HETATM   38  C   UNL     1     -10.800  10.739  70.039  1.00  0.00    -0.153 C  
HETATM   39  O   UNL     1     -11.116   9.482  70.606  1.00  0.00    -0.252 OA 
HETATM   40  H   UNL     1     -10.552   9.279  71.344  1.00  0.00     0.000 HD 
ENDBRANCH   4  38
TORSDOF 12
ENDMDL
MODEL      164
REMARK 921   NORMALIZED FREE ENERGY PREDICTED BY IDOCK:   -2.83 KCAL/MOL
REMARK 922        TOTAL FREE ENERGY PREDICTED BY IDOCK:   -5.85 KCAL/MOL
REMARK 923 INTER-LIGAND FREE ENERGY PREDICTED BY IDOCK:   -4.98 KCAL/MOL
REMARK 924 INTRA-LIGAND FREE ENERGY PREDICTED BY IDOCK:   -0.87 KCAL/MOL
REMARK 927      BINDING AFFINITY PREDICTED BY RF-SCORE:    0.00 PKD
ROOT
HETATM    1  C   UNL     1      -6.582   4.733  65.237  1.00  0.00    -0.037 C  
HETATM    2  N   UNL     1      -7.816   4.865  66.005  1.00  0.00    -0.098 N  
HETATM    3  O   UNL     1      -9.016   3.511  64.584  1.00  0.00    -0.118 OA 
HETATM    4  C   UNL     1      -8.987   4.232  65.577  1.00  0.00    -0.132 C  
ENDROOT
BRANCH   2   5
HETATM    5  C   UNL     1      -7.733   5.650  67.198  1.00  0.00    -0.101 A  
HETATM    6  I   UNL     1      -6.946   2.906  68.397  1.00  0.00    -0.049 I  
HETATM    7  C   UNL     1      -7.872   7.060  67.126  1.00  0.00    -0.109 A  
HETATM    8  C   UNL     1      -7.855   7.834  68.304  1.00  0.00    -0.121 A  
HETATM    9  C   UNL     1      -7.514   5.015  68.448  1.00  0.00    -0.074 A  
HETATM   10  I   UNL     1      -8.065   7.965  65.165  1.00  0.00    -0.097 I  
HETATM   11  C   UNL     1      -7.566   5.758  69.655  1.00  0.00    -0.076 A  
HETATM   12  I   UNL     1      -8.325   8.270  71.356  1.00  0.00    -0.224 I  
HETATM   13  C   UNL     1      -7.792   7.161  69.563  1.00  0.00    -0.119 A  
BRANCH   8  14
HETATM   14  C   UNL     1      -7.728   9.325  68.261  1.00  0.00    -0.087 C  
HETATM   15  H   UNL     1      -6.405  10.779  68.257  1.00  0.00     0.000 HD 
HETATM   16  O   UNL     1      -6.486   9.833  68.284  1.00  0.00    -0.055 OA 
BRANCH  14  17
HETATM   17  N   UNL     1      -8.758  10.084  68.215  1.00  0.00    -0.118 NA 
HETATM   18  H   UNL     1      -9.698   9.691  68.255  1.00  0.00     0.000 HD 
BRANCH  17  19
HETATM   19  C   UNL     1      -8.551  11.536  68.104  1.00  0.00    -0.156 C  
BRANCH  19  20
HETATM   20  C   UNL     1      -9.622  12.132  67.182  1.00  0.00    -0.194 C  
HETATM   21  H   UNL     1     -10.259  11.841  65.340  1.00  0.00     0.000 HD 
HETATM   22  O   UNL     1      -9.595  11.472  65.911  1.00  0.00    -0.218 OA 
BRANCH  20  23
HETATM   23  C   UNL     1     -11.020  12.026  67.814  1.00  0.00    -0.232 C  
HETATM   24  O   UNL     1     -10.947  11.739  69.210  1.00  0.00    -0.318 OA 
HETATM   25  H   UNL     1     -11.810  11.674  69.601  1.00  0.00     0.000 HD 
ENDBRANCH  20  23
ENDBRANCH  19  20
ENDBRANCH  17  19
ENDBRANCH  14  17
ENDBRANCH   8  14
BRANCH  11  26
HETATM   26  C   UNL     1      -7.381   5.050  70.967  1.00  0.00    -0.072 C  
HETATM   27  O   UNL     1      -6.247   5.335  71.641  1.00  0.00    -0.028 OA 
HETATM   28  H   UNL     1      -6.129   4.887  72.471  1.00  0.00     0.000 HD 
BRANCH  26  29
HETATM   29  N   UNL     1      -8.204   4.174  71.411  1.00  0.00    -0.077 NA 
HETATM   30  H   UNL     1      -7.863   3.304  71.820  1.00  0.00     0.000 HD 
BRANCH  29  31
HETATM   31  C   UNL     1      -9.648   4.440  71.323  1.00  0.00    -0.172 C  
BRANCH  31  32
HETATM   32  C   UNL     1     -10.250   4.880  72.678  1.00  0.00    -0.188 C  
HETATM   33  O   UNL     1      -9.300   5.580  73.497  1.00  0.00    -0.137 OA 
HETATM   34  H   UNL     1      -9.670   5.850  74.330  1.00  0.00     0.000 HD 
BRANCH  32  35
HETATM   35  C   UNL     1     -11.454   5.810  72.449  1.00  0.00    -0.288 C  
HETATM   36  O   UNL     1     -11.606   6.176  71.077  1.00  0.00    -0.303 OA 
HETATM   37  H   UNL     1     -12.350   6.750  70.936  1.00  0.00     0.000 HD 
ENDBRANCH  32  35
ENDBRANCH  31  32
ENDBRANCH  29  31
ENDBRANCH  26  29
ENDBRANCH  11  26
ENDBRANCH   2   5
BRANCH   4  38
HETATM   38  C   UNL     1     -10.279   4.482  66.376  1.00  0.00    -0.217 C  
HETATM   39  O   UNL     1     -11.198   5.271  65.646  1.00  0.00    -0.767 OA 
HETATM   40  H   UNL     1     -11.996   5.425  66.139  1.00  0.00     0.000 HD 
ENDBRANCH   4  38
TORSDOF 12
ENDMDL
MODEL      165
REMARK 921   NORMALIZED FREE ENERGY PREDICTED BY IDOCK:   -2.80 KCAL/MOL
REMARK 922        TOTAL FREE ENERGY PREDICTED BY IDOCK:   -5.81 KCAL/MOL
REMARK 923 INTER-LIGAND FREE ENERGY PREDICTED BY IDOCK:   -5.05 KCAL/MOL
REMARK 924 INTRA-LIGAND FREE ENERGY PREDICTED BY IDOCK:   -0.76 KCAL/MOL
REMARK 927      BINDING AFFINITY PREDICTED BY RF-SCORE:    0.00 PKD
ROOT
HETATM    1  C   UNL     1      -5.508   4.208  65.744  1.00  0.00    -0.013 C  
HETATM    2  N   UNL     1      -6.962   4.341  65.709  1.00  0.00    -0.061 N  
HETATM    3  O   UNL     1      -7.222   2.663  64.157  1.00  0.00    -0.051 OA 
HETATM    4  C   UNL     1      -7.725   3.535  64.860  1.00  0.00    -0.078 C  
ENDROOT
BRANCH   2   5
HETATM    5  C   UNL     1      -7.526   5.314  66.593  1.00  0.00    -0.087 A  
HETATM    6  I   UNL     1      -7.398   2.924  68.558  1.00  0.00    -0.048 I  
HETATM    7  C   UNL     1      -7.644   6.664  66.174  1.00  0.00    -0.086 A  
HETATM    8  C   UNL     1      -8.257   7.615  67.015  1.00  0.00    -0.117 A  
HETATM    9  C   UNL     1      -7.965   4.923  67.885  1.00  0.00    -0.093 A  
HETATM   10  I   UNL     1      -6.822   7.206  64.242  1.00  0.00    -0.055 I  
HETATM   11  C   UNL     1      -8.652   5.840  68.722  1.00  0.00    -0.109 A  
HETATM   12  I   UNL     1     -10.243   8.478  69.259  1.00  0.00    -0.202 I  
HETATM   13  C   UNL     1      -8.833   7.169  68.245  1.00  0.00    -0.127 A  
BRANCH   8  14
HETATM   14  C   UNL     1      -8.163   9.083  66.737  1.00  0.00    -0.115 C  
HETATM   15  H   UNL     1      -7.089  10.681  67.131  1.00  0.00     0.000 HD 
HETATM   16  O   UNL     1      -7.148   9.750  67.308  1.00  0.00    -0.084 OA 
BRANCH  14  17
HETATM   17  N   UNL     1      -9.021   9.679  65.997  1.00  0.00    -0.154 NA 
HETATM   18  H   UNL     1      -9.558   9.164  65.299  1.00  0.00     0.000 HD 
BRANCH  17  19
HETATM   19  C   UNL     1      -9.212  11.127  66.176  1.00  0.00    -0.198 C  
BRANCH  19  20
HETATM   20  C   UNL     1     -10.555  11.541  65.563  1.00  0.00    -0.281 C  
HETATM   21  H   UNL     1     -12.410  11.775  66.185  1.00  0.00     0.000 HD 
HETATM   22  O   UNL     1     -11.577  11.518  66.565  1.00  0.00    -0.444 OA 
BRANCH  20  23
HETATM   23  C   UNL     1     -10.464  12.935  64.918  1.00  0.00    -0.331 C  
HETATM   24  O   UNL     1     -10.108  12.855  63.539  1.00  0.00    -0.661 OA 
HETATM   25  H   UNL     1     -10.052  13.716  63.141  1.00  0.00     0.000 HD 
ENDBRANCH  20  23
ENDBRANCH  19  20
ENDBRANCH  17  19
ENDBRANCH  14  17
ENDBRANCH   8  14
BRANCH  11  26
HETATM   26  C   UNL     1      -9.150   5.384  70.064  1.00  0.00    -0.130 C  
HETATM   27  O   UNL     1     -10.376   4.820  70.082  1.00  0.00    -0.242 OA 
HETATM   28  H   UNL     1     -10.692   4.532  70.931  1.00  0.00     0.000 HD 
BRANCH  26  29
HETATM   29  N   UNL     1      -8.498   5.569  71.151  1.00  0.00    -0.124 NA 
HETATM   30  H   UNL     1      -8.716   5.023  71.984  1.00  0.00     0.000 HD 
BRANCH  29  31
HETATM   31  C   UNL     1      -7.429   6.580  71.181  1.00  0.00    -0.085 C  
BRANCH  31  32
HETATM   32  C   UNL     1      -7.241   7.196  72.587  1.00  0.00    -0.072 C  
HETATM   33  O   UNL     1      -7.373   8.627  72.580  1.00  0.00    -0.285 OA 
HETATM   34  H   UNL     1      -7.257   9.006  73.443  1.00  0.00     0.000 HD 
BRANCH  32  35
HETATM   35  C   UNL     1      -8.287   6.629  73.562  1.00  0.00    -0.117 C  
HETATM   36  O   UNL     1      -7.897   5.367  74.105  1.00  0.00    -0.099 OA 
HETATM   37  H   UNL     1      -8.543   5.017  74.706  1.00  0.00     0.000 HD 
ENDBRANCH  32  35
ENDBRANCH  31  32
ENDBRANCH  29  31
ENDBRANCH  26  29
ENDBRANCH  11  26
ENDBRANCH   2   5
BRANCH   4  38
HETATM   38  C   UNL     1      -9.244   3.782  64.798  1.00  0.00    -0.146 C  
HETATM   39  O   UNL     1      -9.969   2.719  65.385  1.00  0.00    -0.351 OA 
HETATM   40  H   UNL     1     -10.906   2.872  65.347  1.00  0.00     0.000 HD 
ENDBRANCH   4  38
TORSDOF 12
ENDMDL
MODEL      166
REMARK 921   NORMALIZED FREE ENERGY PREDICTED BY IDOCK:   -2.71 KCAL/MOL
REMARK 922        TOTAL FREE ENERGY PREDICTED BY IDOCK:   -5.66 KCAL/MOL
REMARK 923 INTER-LIGAND FREE ENERGY PREDICTED BY IDOCK:   -6.74 KCAL/MOL
REMARK 924 INTRA-LIGAND FREE ENERGY PREDICTED BY IDOCK:    1.08 KCAL/MOL
REMARK 927      BINDING AFFINITY PREDICTED BY RF-SCORE:    0.00 PKD
ROOT
HETATM    1  C   UNL     1      -6.349  15.043  67.616  1.00  0.00    -0.131 C  
HETATM    2  N   UNL     1      -7.594  14.628  68.256  1.00  0.00    -0.110 N  
HETATM    3  O   UNL     1      -7.908  16.660  69.289  1.00  0.00    -0.213 OA 
HETATM    4  C   UNL     1      -8.284  15.507  69.096  1.00  0.00    -0.247 C  
ENDROOT
BRANCH   2   5
HETATM    5  C   UNL     1      -8.046  13.305  67.954  1.00  0.00    -0.159 A  
HETATM    6  I   UNL     1      -9.810  14.866  65.944  1.00  0.00    -0.292 I  
HETATM    7  C   UNL     1      -7.400  12.187  68.541  1.00  0.00    -0.105 A  
HETATM    8  C   UNL     1      -7.880  10.884  68.298  1.00  0.00    -0.118 A  
HETATM    9  C   UNL     1      -9.140  13.118  67.069  1.00  0.00    -0.231 A  
HETATM   10  I   UNL     1      -5.651  12.551  69.770  1.00  0.00    -0.139 I  
HETATM   11  C   UNL     1      -9.691  11.827  66.864  1.00  0.00    -0.212 A  
HETATM   12  I   UNL     1     -10.122   8.824  67.623  1.00  0.00    -0.322 I  
HETATM   13  C   UNL     1      -9.077  10.729  67.532  1.00  0.00    -0.139 A  
BRANCH   8  14
HETATM   14  C   UNL     1      -7.082   9.673  68.669  1.00  0.00    -0.072 C  
HETATM   15  H   UNL     1      -5.434   8.695  68.231  1.00  0.00     0.000 HD 
HETATM   16  O   UNL     1      -5.940   9.464  67.995  1.00  0.00    -0.047 OA 
BRANCH  14  17
HETATM   17  N   UNL     1      -7.477   8.865  69.579  1.00  0.00    -0.074 NA 
HETATM   18  H   UNL     1      -7.472   7.857  69.422  1.00  0.00     0.000 HD 
BRANCH  17  19
HETATM   19  C   UNL     1      -7.938   9.425  70.859  1.00  0.00    -0.052 C  
BRANCH  19  20
HETATM   20  C   UNL     1      -9.104   8.582  71.391  1.00  0.00    -0.206 C  
HETATM   21  H   UNL     1      -9.545   7.623  73.055  1.00  0.00     0.000 HD 
HETATM   22  O   UNL     1      -8.822   8.145  72.725  1.00  0.00    -0.187 OA 
BRANCH  20  23
HETATM   23  C   UNL     1     -10.423   9.372  71.350  1.00  0.00    -0.288 C  
HETATM   24  O   UNL     1     -11.503   8.624  71.908  1.00  0.00    -0.302 OA 
HETATM   25  H   UNL     1     -12.318   9.112  71.882  1.00  0.00     0.000 HD 
ENDBRANCH  20  23
ENDBRANCH  19  20
ENDBRANCH  17  19
ENDBRANCH  14  17
ENDBRANCH   8  14
BRANCH  11  26
HETATM   26  C   UNL     1     -10.880  11.666  65.962  1.00  0.00    -0.289 C  
HETATM   27  O   UNL     1     -10.654  11.041  64.787  1.00  0.00    -0.319 OA 
HETATM   28  H   UNL     1     -11.407  10.938  64.215  1.00  0.00     0.000 HD 
BRANCH  26  29
HETATM   29  N   UNL     1     -12.037  12.142  66.238  1.00  0.00    -0.589 NA 
HETATM   30  H   UNL     1     -12.354  12.201  67.205  1.00  0.00     0.000 HD 
BRANCH  29  31
HETATM   31  C   UNL     1     -12.901  12.604  65.141  1.00  0.00    -0.054 C  
BRANCH  31  32
HETATM   32  C   UNL     1     -12.210  12.495  63.761  1.00  0.00    -0.525 C  
HETATM   33  O   UNL     1     -12.778  11.459  62.944  1.00  0.00    -0.951 OA 
HETATM   34  H   UNL     1     -12.354  11.392  62.097  1.00  0.00     0.000 HD 
BRANCH  32  35
HETATM   35  C   UNL     1     -12.336  13.824  62.996  1.00  0.00     0.611 C  
HETATM   36  O   UNL     1     -12.867  14.871  63.808  1.00  0.00    -0.722 OA 
HETATM   37  H   UNL     1     -12.945  15.692  63.335  1.00  0.00     0.000 HD 
ENDBRANCH  32  35
ENDBRANCH  31  32
ENDBRANCH  29  31
ENDBRANCH  26  29
ENDBRANCH  11  26
ENDBRANCH   2   5
BRANCH   4  38
HETATM   38  C   UNL     1      -9.541  14.984  69.815  1.00  0.00     0.038 C  
HETATM   39  O   UNL     1     -10.515  16.000  69.966  1.00  0.00    -0.296 OA 
HETATM   40  H   UNL     1     -11.291  15.677  70.410  1.00  0.00     0.000 HD 
ENDBRANCH   4  38
TORSDOF 12
ENDMDL
MODEL      167
REMARK 921   NORMALIZED FREE ENERGY PREDICTED BY IDOCK:   -2.71 KCAL/MOL
REMARK 922        TOTAL FREE ENERGY PREDICTED BY IDOCK:   -5.65 KCAL/MOL
REMARK 923 INTER-LIGAND FREE ENERGY PREDICTED BY IDOCK:   -5.25 KCAL/MOL
REMARK 924 INTRA-LIGAND FREE ENERGY PREDICTED BY IDOCK:   -0.40 KCAL/MOL
REMARK 927      BINDING AFFINITY PREDICTED BY RF-SCORE:    0.00 PKD
ROOT
HETATM    1  C   UNL     1      -7.857  14.363  70.401  1.00  0.00     1.358 C  
HETATM    2  N   UNL     1      -7.268  14.233  69.071  1.00  0.00    -0.119 N  
HETATM    3  O   UNL     1      -5.307  13.332  69.869  1.00  0.00    -0.084 OA 
HETATM    4  C   UNL     1      -5.974  13.728  68.917  1.00  0.00    -0.085 C  
ENDROOT
BRANCH   2   5
HETATM    5  C   UNL     1      -8.096  14.633  67.975  1.00  0.00    -0.135 A  
HETATM    6  I   UNL     1      -6.630  17.319  68.450  1.00  0.00    -0.198 I  
HETATM    7  C   UNL     1      -8.875  13.666  67.290  1.00  0.00    -0.224 A  
HETATM    8  C   UNL     1      -9.741  14.062  66.250  1.00  0.00    -0.311 A  
HETATM    9  C   UNL     1      -8.135  15.995  67.580  1.00  0.00    -0.148 A  
HETATM   10  I   UNL     1      -8.653  11.587  67.864  1.00  0.00    -0.163 I  
HETATM   11  C   UNL     1      -9.050  16.435  66.590  1.00  0.00    -0.278 A  
HETATM   12  I   UNL     1     -11.591  16.108  64.796  1.00  0.00     0.612 I  
HETATM   13  C   UNL     1      -9.883  15.457  65.974  1.00  0.00    -0.326 A  
BRANCH   8  14
HETATM   14  C   UNL     1     -10.370  13.063  65.331  1.00  0.00    -0.300 C  
HETATM   15  H   UNL     1     -11.937  11.893  65.133  1.00  0.00     0.000 HD 
HETATM   16  O   UNL     1     -11.539  12.527  65.716  1.00  0.00    -0.351 OA 
BRANCH  14  17
HETATM   17  N   UNL     1      -9.812  12.722  64.230  1.00  0.00    -0.606 NA 
HETATM   18  H   UNL     1      -8.907  13.108  63.961  1.00  0.00     0.000 HD 
BRANCH  17  19
HETATM   19  C   UNL     1     -10.509  11.761  63.361  1.00  0.00    -0.434 C  
BRANCH  19  20
HETATM   20  C   UNL     1      -9.548  10.625  62.988  1.00  0.00    -0.348 C  
HETATM   21  H   UNL     1      -7.773  10.459  62.150  1.00  0.00     0.000 HD 
HETATM   22  O   UNL     1      -8.368  11.163  62.381  1.00  0.00    -0.245 OA 
BRANCH  20  23
HETATM   23  C   UNL     1      -9.183   9.780  64.220  1.00  0.00    -0.232 C  
HETATM   24  O   UNL     1     -10.129   9.950  65.275  1.00  0.00    -0.313 OA 
HETATM   25  H   UNL     1      -9.904   9.427  66.036  1.00  0.00     0.000 HD 
ENDBRANCH  20  23
ENDBRANCH  19  20
ENDBRANCH  17  19
ENDBRANCH  14  17
ENDBRANCH   8  14
BRANCH  11  26
HETATM   26  C   UNL     1      -9.105  17.891  66.227  1.00  0.00    -0.176 C  
HETATM   27  O   UNL     1     -10.283  18.513  66.440  1.00  0.00    -0.376 OA 
HETATM   28  H   UNL     1     -10.318  19.434  66.211  1.00  0.00     0.000 HD 
BRANCH  26  29
HETATM   29  N   UNL     1      -8.124  18.514  65.685  1.00  0.00    -0.333 NA 
HETATM   30  H   UNL     1      -7.462  18.017  65.090  1.00  0.00     0.000 HD 
BRANCH  29  31
HETATM   31  C   UNL     1      -7.968  19.955  65.933  1.00  0.00    -0.276 C  
BRANCH  31  32
HETATM   32  C   UNL     1      -6.506  20.428  65.758  1.00  0.00    -0.238 C  
HETATM   33  O   UNL     1      -5.891  20.781  67.007  1.00  0.00    -0.181 OA 
HETATM   34  H   UNL     1      -4.993  21.072  66.899  1.00  0.00     0.000 HD 
BRANCH  32  35
HETATM   35  C   UNL     1      -5.661  19.317  65.111  1.00  0.00    -0.207 C  
HETATM   36  O   UNL     1      -6.100  18.998  63.790  1.00  0.00    -0.370 OA 
HETATM   37  H   UNL     1      -5.579  18.312  63.391  1.00  0.00     0.000 HD 
ENDBRANCH  32  35
ENDBRANCH  31  32
ENDBRANCH  29  31
ENDBRANCH  26  29
ENDBRANCH  11  26
ENDBRANCH   2   5
BRANCH   4  38
HETATM   38  C   UNL     1      -5.371  13.700  67.501  1.00  0.00     0.134 C  
HETATM   39  O   UNL     1      -5.146  12.376  67.057  1.00  0.00    -0.295 OA 
HETATM   40  H   UNL     1      -4.774  12.358  66.182  1.00  0.00     0.000 HD 
ENDBRANCH   4  38
TORSDOF 12
ENDMDL
MODEL      168
REMARK 921   NORMALIZED FREE ENERGY PREDICTED BY IDOCK:   -2.71 KCAL/MOL
REMARK 922        TOTAL FREE ENERGY PREDICTED BY IDOCK:   -5.65 KCAL/MOL
REMARK 923 INTER-LIGAND FREE ENERGY PREDICTED BY IDOCK:   -4.74 KCAL/MOL
REMARK 924 INTRA-LIGAND FREE ENERGY PREDICTED BY IDOCK:   -0.91 KCAL/MOL
REMARK 927      BINDING AFFINITY PREDICTED BY RF-SCORE:    0.00 PKD
ROOT
HETATM    1  C   UNL     1      -7.317  10.790  69.821  1.00  0.00    -0.064 C  
HETATM    2  N   UNL     1      -7.057  11.688  68.699  1.00  0.00    -0.092 N  
HETATM    3  O   UNL     1      -5.252  12.681  69.722  1.00  0.00    -0.073 OA 
HETATM    4  C   UNL     1      -6.013  12.615  68.761  1.00  0.00    -0.067 C  
ENDROOT
BRANCH   2   5
HETATM    5  C   UNL     1      -7.914  11.537  67.563  1.00  0.00    -0.133 A  
HETATM    6  I   UNL     1      -5.972   9.195  66.990  1.00  0.00    -0.058 I  
HETATM    7  C   UNL     1      -9.089  12.324  67.457  1.00  0.00    -0.182 A  
HETATM    8  C   UNL     1      -9.904  12.227  66.310  1.00  0.00    -0.254 A  
HETATM    9  C   UNL     1      -7.583  10.603  66.548  1.00  0.00    -0.134 A  
HETATM   10  I   UNL     1      -9.597  13.626  69.114  1.00  0.00     0.852 I  
HETATM   11  C   UNL     1      -8.341  10.536  65.351  1.00  0.00    -0.165 A  
HETATM   12  I   UNL     1     -10.394  11.669  63.282  1.00  0.00    -0.218 I  
HETATM   13  C   UNL     1      -9.469  11.397  65.231  1.00  0.00    -0.209 A  
BRANCH   8  14
HETATM   14  C   UNL     1     -11.276  12.826  66.271  1.00  0.00    -0.300 C  
HETATM   15  H   UNL     1     -13.183  12.366  66.387  1.00  0.00     0.000 HD 
HETATM   16  O   UNL     1     -12.313  11.986  66.412  1.00  0.00    -0.403 OA 
BRANCH  14  17
HETATM   17  N   UNL     1     -11.453  14.082  66.098  1.00  0.00    -0.335 NA 
HETATM   18  H   UNL     1     -12.204  14.575  66.582  1.00  0.00     0.000 HD 
BRANCH  17  19
HETATM   19  C   UNL     1     -10.549  14.796  65.184  1.00  0.00    -0.417 C  
BRANCH  19  20
HETATM   20  C   UNL     1     -10.150  16.138  65.810  1.00  0.00    -0.363 C  
HETATM   21  H   UNL     1     -10.719  17.236  67.344  1.00  0.00     0.000 HD 
HETATM   22  O   UNL     1     -10.966  16.404  66.957  1.00  0.00    -0.203 OA 
BRANCH  20  23
HETATM   23  C   UNL     1      -8.660  16.150  66.195  1.00  0.00    -0.296 C  
HETATM   24  O   UNL     1      -8.431  16.893  67.391  1.00  0.00    -0.186 OA 
HETATM   25  H   UNL     1      -7.511  16.900  67.629  1.00  0.00     0.000 HD 
ENDBRANCH  20  23
ENDBRANCH  19  20
ENDBRANCH  17  19
ENDBRANCH  14  17
ENDBRANCH   8  14
BRANCH  11  26
HETATM   26  C   UNL     1      -7.937   9.573  64.272  1.00  0.00    -0.136 C  
HETATM   27  O   UNL     1      -7.033  10.026  63.379  1.00  0.00    -0.125 OA 
HETATM   28  H   UNL     1      -6.777   9.416  62.696  1.00  0.00     0.000 HD 
BRANCH  26  29
HETATM   29  N   UNL     1      -8.455   8.408  64.147  1.00  0.00    -0.379 NA 
HETATM   30  H   UNL     1      -9.090   8.044  64.857  1.00  0.00     0.000 HD 
BRANCH  29  31
HETATM   31  C   UNL     1      -8.121   7.600  62.963  1.00  0.00    -0.073 C  
BRANCH  31  32
HETATM   32  C   UNL     1      -7.387   6.290  63.331  1.00  0.00    -0.064 C  
HETATM   33  O   UNL     1      -7.497   5.975  64.728  1.00  0.00    -0.070 OA 
HETATM   34  H   UNL     1      -7.045   5.170  64.955  1.00  0.00     0.000 HD 
BRANCH  32  35
HETATM   35  C   UNL     1      -7.969   5.111  62.533  1.00  0.00    -0.080 C  
HETATM   36  O   UNL     1      -9.338   4.861  62.851  1.00  0.00    -0.333 OA 
HETATM   37  H   UNL     1      -9.697   4.133  62.358  1.00  0.00     0.000 HD 
ENDBRANCH  32  35
ENDBRANCH  31  32
ENDBRANCH  29  31
ENDBRANCH  26  29
ENDBRANCH  11  26
ENDBRANCH   2   5
BRANCH   4  38
HETATM   38  C   UNL     1      -5.845  13.596  67.587  1.00  0.00    -0.053 C  
HETATM   39  O   UNL     1      -5.937  14.941  68.016  1.00  0.00    -0.127 OA 
HETATM   40  H   UNL     1      -5.833  15.547  67.291  1.00  0.00     0.000 HD 
ENDBRANCH   4  38
TORSDOF 12
ENDMDL
MODEL      169
REMARK 921   NORMALIZED FREE ENERGY PREDICTED BY IDOCK:   -2.70 KCAL/MOL
REMARK 922        TOTAL FREE ENERGY PREDICTED BY IDOCK:   -5.64 KCAL/MOL
REMARK 923 INTER-LIGAND FREE ENERGY PREDICTED BY IDOCK:   -5.11 KCAL/MOL
REMARK 924 INTRA-LIGAND FREE ENERGY PREDICTED BY IDOCK:   -0.53 KCAL/MOL
REMARK 927      BINDING AFFINITY PREDICTED BY RF-SCORE:    0.00 PKD
ROOT
HETATM    1  C   UNL     1     -10.564  10.152  70.684  1.00  0.00    -0.102 C  
HETATM    2  N   UNL     1     -10.617   8.694  70.624  1.00  0.00    -0.204 N  
HETATM    3  O   UNL     1     -12.863   8.610  71.113  1.00  0.00    -0.228 OA 
HETATM    4  C   UNL     1     -11.813   8.018  70.879  1.00  0.00    -0.224 C  
ENDROOT
BRANCH   2   5
HETATM    5  C   UNL     1      -9.395   8.035  70.277  1.00  0.00    -0.159 A  
HETATM    6  I   UNL     1     -10.152   9.108  67.473  1.00  0.00    -0.346 I  
HETATM    7  C   UNL     1      -8.572   7.494  71.297  1.00  0.00    -0.121 A  
HETATM    8  C   UNL     1      -7.399   6.787  70.960  1.00  0.00    -0.078 A  
HETATM    9  C   UNL     1      -9.014   7.925  68.915  1.00  0.00    -0.141 A  
HETATM   10  I   UNL     1      -9.154   7.825  73.360  1.00  0.00    -0.326 I  
HETATM   11  C   UNL     1      -7.881   7.158  68.541  1.00  0.00    -0.122 A  
HETATM   12  I   UNL     1      -5.661   5.020  69.068  1.00  0.00    -0.013 I  
HETATM   13  C   UNL     1      -7.117   6.553  69.578  1.00  0.00    -0.073 A  
BRANCH   8  14
HETATM   14  C   UNL     1      -6.371   6.437  71.990  1.00  0.00    -0.046 C  
HETATM   15  H   UNL     1      -4.538   6.849  72.570  1.00  0.00     0.000 HD 
HETATM   16  O   UNL     1      -5.190   7.071  71.916  1.00  0.00    -0.031 OA 
BRANCH  14  17
HETATM   17  N   UNL     1      -6.602   5.563  72.896  1.00  0.00    -0.069 NA 
HETATM   18  H   UNL     1      -6.490   5.791  73.884  1.00  0.00     0.000 HD 
BRANCH  17  19
HETATM   19  C   UNL     1      -7.032   4.220  72.477  1.00  0.00    -0.056 C  
BRANCH  19  20
HETATM   20  C   UNL     1      -8.362   3.877  73.158  1.00  0.00    -0.088 C  
HETATM   21  H   UNL     1     -10.280   4.033  72.733  1.00  0.00     0.000 HD 
HETATM   22  O   UNL     1      -9.455   4.245  72.310  1.00  0.00    -0.123 OA 
BRANCH  20  23
HETATM   23  C   UNL     1      -8.435   2.382  73.512  1.00  0.00    -0.063 C  
HETATM   24  O   UNL     1      -7.451   1.625  72.809  1.00  0.00    -0.030 OA 
HETATM   25  H   UNL     1      -7.496   0.701  73.027  1.00  0.00     0.000 HD 
ENDBRANCH  20  23
ENDBRANCH  19  20
ENDBRANCH  17  19
ENDBRANCH  14  17
ENDBRANCH   8  14
BRANCH  11  26
HETATM   26  C   UNL     1      -7.531   7.017  67.087  1.00  0.00    -0.095 C  
HETATM   27  O   UNL     1      -7.008   8.111  66.493  1.00  0.00    -0.066 OA 
HETATM   28  H   UNL     1      -6.787   8.022  65.574  1.00  0.00     0.000 HD 
BRANCH  26  29
HETATM   29  N   UNL     1      -7.765   5.954  66.412  1.00  0.00    -0.098 NA 
HETATM   30  H   UNL     1      -7.128   5.159  66.461  1.00  0.00     0.000 HD 
BRANCH  29  31
HETATM   31  C   UNL     1      -8.967   5.895  65.565  1.00  0.00    -0.050 C  
BRANCH  31  32
HETATM   32  C   UNL     1     -10.165   5.234  66.287  1.00  0.00    -0.223 C  
HETATM   33  O   UNL     1     -11.298   5.061  65.422  1.00  0.00    -0.817 OA 
HETATM   34  H   UNL     1     -12.034   4.655  65.865  1.00  0.00     0.000 HD 
BRANCH  32  35
HETATM   35  C   UNL     1      -9.764   3.850  66.825  1.00  0.00    -0.162 C  
HETATM   36  O   UNL     1      -9.545   2.902  65.781  1.00  0.00    -0.360 OA 
HETATM   37  H   UNL     1      -9.297   2.047  66.113  1.00  0.00     0.000 HD 
ENDBRANCH  32  35
ENDBRANCH  31  32
ENDBRANCH  29  31
ENDBRANCH  26  29
ENDBRANCH  11  26
ENDBRANCH   2   5
BRANCH   4  38
HETATM   38  C   UNL     1     -11.787   6.479  70.892  1.00  0.00    -0.331 C  
HETATM   39  O   UNL     1     -12.166   5.962  72.153  1.00  0.00    -0.265 OA 
HETATM   40  H   UNL     1     -12.150   5.011  72.161  1.00  0.00     0.000 HD 
ENDBRANCH   4  38
TORSDOF 12
ENDMDL
MODEL      170
REMARK 921   NORMALIZED FREE ENERGY PREDICTED BY IDOCK:   -2.69 KCAL/MOL
REMARK 922        TOTAL FREE ENERGY PREDICTED BY IDOCK:   -5.62 KCAL/MOL
REMARK 923 INTER-LIGAND FREE ENERGY PREDICTED BY IDOCK:   -4.14 KCAL/MOL
REMARK 924 INTRA-LIGAND FREE ENERGY PREDICTED BY IDOCK:   -1.47 KCAL/MOL
REMARK 927      BINDING AFFINITY PREDICTED BY RF-SCORE:    0.00 PKD
ROOT
HETATM    1  C   UNL     1      -5.564   7.983  65.524  1.00  0.00    -0.036 C  
HETATM    2  N   UNL     1      -6.825   7.303  65.805  1.00  0.00    -0.055 N  
HETATM    3  O   UNL     1      -6.895   6.274  63.748  1.00  0.00    -0.039 OA 
HETATM    4  C   UNL     1      -7.420   6.489  64.837  1.00  0.00    -0.086 C  
ENDROOT
BRANCH   2   5
HETATM    5  C   UNL     1      -7.376   7.513  67.108  1.00  0.00    -0.094 A  
HETATM    6  I   UNL     1      -8.927   9.721  65.589  1.00  0.00    -0.269 I  
HETATM    7  C   UNL     1      -7.068   6.611  68.158  1.00  0.00    -0.083 A  
HETATM    8  C   UNL     1      -7.556   6.848  69.460  1.00  0.00    -0.099 A  
HETATM    9  C   UNL     1      -8.227   8.624  67.344  1.00  0.00    -0.105 A  
HETATM   10  I   UNL     1      -5.876   4.864  67.683  1.00  0.00    -0.024 I  
HETATM   11  C   UNL     1      -8.672   8.929  68.656  1.00  0.00    -0.134 A  
HETATM   12  I   UNL     1      -8.540   8.695  71.772  1.00  0.00    -0.031 I  
HETATM   13  C   UNL     1      -8.279   8.055  69.710  1.00  0.00    -0.120 A  
BRANCH   8  14
HETATM   14  C   UNL     1      -7.486   5.799  70.525  1.00  0.00    -0.086 C  
HETATM   15  H   UNL     1      -6.290   5.028  71.881  1.00  0.00     0.000 HD 
HETATM   16  O   UNL     1      -6.334   5.694  71.205  1.00  0.00    -0.033 OA 
BRANCH  14  17
HETATM   17  N   UNL     1      -8.477   5.026  70.770  1.00  0.00    -0.112 NA 
HETATM   18  H   UNL     1      -9.436   5.357  70.666  1.00  0.00     0.000 HD 
BRANCH  17  19
HETATM   19  C   UNL     1      -8.198   3.648  71.205  1.00  0.00    -0.067 C  
BRANCH  19  20
HETATM   20  C   UNL     1      -8.000   2.757  69.973  1.00  0.00    -0.042 C  
HETATM   21  H   UNL     1      -7.379   0.923  69.608  1.00  0.00     0.000 HD 
HETATM   22  O   UNL     1      -7.502   1.476  70.372  1.00  0.00    -0.033 OA 
BRANCH  20  23
HETATM   23  C   UNL     1      -9.311   2.603  69.183  1.00  0.00    -0.128 C  
HETATM   24  O   UNL     1      -9.532   3.709  68.308  1.00  0.00    -0.173 OA 
HETATM   25  H   UNL     1     -10.342   3.614  67.820  1.00  0.00     0.000 HD 
ENDBRANCH  20  23
ENDBRANCH  19  20
ENDBRANCH  17  19
ENDBRANCH  14  17
ENDBRANCH   8  14
BRANCH  11  26
HETATM   26  C   UNL     1      -9.530  10.140  68.883  1.00  0.00    -0.182 C  
HETATM   27  O   UNL     1      -8.876  11.303  69.082  1.00  0.00    -0.374 OA 
HETATM   28  H   UNL     1      -9.418  12.070  69.226  1.00  0.00     0.000 HD 
BRANCH  26  29
HETATM   29  N   UNL     1     -10.808  10.087  68.954  1.00  0.00    -0.219 NA 
HETATM   30  H   UNL     1     -11.376  10.153  68.110  1.00  0.00     0.000 HD 
BRANCH  29  31
HETATM   31  C   UNL     1     -11.445   9.929  70.271  1.00  0.00    -0.281 C  
BRANCH  31  32
HETATM   32  C   UNL     1     -12.617  10.916  70.481  1.00  0.00    -0.324 C  
HETATM   33  O   UNL     1     -12.774  11.296  71.857  1.00  0.00    -0.335 OA 
HETATM   34  H   UNL     1     -13.494  11.902  71.986  1.00  0.00     0.000 HD 
BRANCH  32  35
HETATM   35  C   UNL     1     -12.388  12.197  69.660  1.00  0.00    -0.004 C  
HETATM   36  O   UNL     1     -11.202  12.888  70.049  1.00  0.00    -0.482 OA 
HETATM   37  H   UNL     1     -11.060  13.679  69.542  1.00  0.00     0.000 HD 
ENDBRANCH  32  35
ENDBRANCH  31  32
ENDBRANCH  29  31
ENDBRANCH  26  29
ENDBRANCH  11  26
ENDBRANCH   2   5
BRANCH   4  38
HETATM   38  C   UNL     1      -8.795   5.872  65.155  1.00  0.00     0.027 C  
HETATM   39  O   UNL     1      -8.706   4.474  65.348  1.00  0.00    -0.121 OA 
HETATM   40  H   UNL     1      -9.554   4.093  65.545  1.00  0.00     0.000 HD 
ENDBRANCH   4  38
TORSDOF 12
ENDMDL
MODEL      171
REMARK 921   NORMALIZED FREE ENERGY PREDICTED BY IDOCK:   -2.68 KCAL/MOL
REMARK 922        TOTAL FREE ENERGY PREDICTED BY IDOCK:   -5.60 KCAL/MOL
REMARK 923 INTER-LIGAND FREE ENERGY PREDICTED BY IDOCK:   -4.80 KCAL/MOL
REMARK 924 INTRA-LIGAND FREE ENERGY PREDICTED BY IDOCK:   -0.80 KCAL/MOL
REMARK 927      BINDING AFFINITY PREDICTED BY RF-SCORE:    0.00 PKD
ROOT
HETATM    1  C   UNL     1      -6.875   8.147  71.654  1.00  0.00    -0.063 C  
HETATM    2  N   UNL     1      -8.253   7.669  71.587  1.00  0.00    -0.104 N  
HETATM    3  O   UNL     1      -8.854   8.683  73.562  1.00  0.00    -0.265 OA 
HETATM    4  C   UNL     1      -9.158   7.974  72.608  1.00  0.00    -0.227 C  
ENDROOT
BRANCH   2   5
HETATM    5  C   UNL     1      -8.599   6.907  70.426  1.00  0.00    -0.143 A  
HETATM    6  I   UNL     1      -7.841   4.567  72.307  1.00  0.00    -0.096 I  
HETATM    7  C   UNL     1      -9.169   7.554  69.301  1.00  0.00    -0.144 A  
HETATM    8  C   UNL     1      -9.453   6.820  68.131  1.00  0.00    -0.120 A  
HETATM    9  C   UNL     1      -8.368   5.507  70.407  1.00  0.00    -0.111 A  
HETATM   10  I   UNL     1      -9.619   9.669  69.462  1.00  0.00    -0.262 I  
HETATM   11  C   UNL     1      -8.573   4.757  69.221  1.00  0.00    -0.098 A  
HETATM   12  I   UNL     1      -8.980   4.474  66.133  1.00  0.00    -0.147 I  
HETATM   13  C   UNL     1      -9.067   5.445  68.076  1.00  0.00    -0.109 A  
BRANCH   8  14
HETATM   14  C   UNL     1     -10.293   7.393  67.031  1.00  0.00    -0.314 C  
HETATM   15  H   UNL     1     -12.045   7.227  66.157  1.00  0.00     0.000 HD 
HETATM   16  O   UNL     1     -11.513   6.863  66.855  1.00  0.00    -0.107 OA 
BRANCH  14  17
HETATM   17  N   UNL     1      -9.861   8.338  66.283  1.00  0.00    -0.435 NA 
HETATM   18  H   UNL     1     -10.454   9.136  66.055  1.00  0.00     0.000 HD 
BRANCH  17  19
HETATM   19  C   UNL     1      -8.490   8.244  65.759  1.00  0.00    -0.151 C  
BRANCH  19  20
HETATM   20  C   UNL     1      -8.122   9.560  65.062  1.00  0.00    -0.125 C  
HETATM   21  H   UNL     1      -8.132  10.266  63.223  1.00  0.00     0.000 HD 
HETATM   22  O   UNL     1      -8.360   9.450  63.654  1.00  0.00    -0.161 OA 
BRANCH  20  23
HETATM   23  C   UNL     1      -8.912  10.740  65.652  1.00  0.00    -0.189 C  
HETATM   24  O   UNL     1      -9.177  11.741  64.670  1.00  0.00    -0.420 OA 
HETATM   25  H   UNL     1      -9.665  12.470  65.035  1.00  0.00     0.000 HD 
ENDBRANCH  20  23
ENDBRANCH  19  20
ENDBRANCH  17  19
ENDBRANCH  14  17
ENDBRANCH   8  14
BRANCH  11  26
HETATM   26  C   UNL     1      -8.272   3.285  69.215  1.00  0.00    -0.059 C  
HETATM   27  O   UNL     1      -9.254   2.476  69.664  1.00  0.00    -0.111 OA 
HETATM   28  H   UNL     1      -9.064   1.545  69.661  1.00  0.00     0.000 HD 
BRANCH  26  29
HETATM   29  N   UNL     1      -7.135   2.807  68.871  1.00  0.00    -0.044 NA 
HETATM   30  H   UNL     1      -7.068   1.874  68.464  1.00  0.00     0.000 HD 
BRANCH  29  31
HETATM   31  C   UNL     1      -5.926   3.622  69.069  1.00  0.00    -0.024 C  
BRANCH  31  32
HETATM   32  C   UNL     1      -5.128   3.821  67.759  1.00  0.00    -0.008 C  
HETATM   33  O   UNL     1      -5.525   2.901  66.730  1.00  0.00    -0.018 OA 
HETATM   34  H   UNL     1      -5.035   3.023  65.926  1.00  0.00     0.000 HD 
BRANCH  32  35
HETATM   35  C   UNL     1      -5.332   5.248  67.223  1.00  0.00    -0.012 C  
HETATM   36  O   UNL     1      -5.597   6.188  68.265  1.00  0.00    -0.010 OA 
HETATM   37  H   UNL     1      -5.724   7.069  67.933  1.00  0.00     0.000 HD 
ENDBRANCH  32  35
ENDBRANCH  31  32
ENDBRANCH  29  31
ENDBRANCH  26  29
ENDBRANCH  11  26
ENDBRANCH   2   5
BRANCH   4  38
HETATM   38  C   UNL     1     -10.570   7.366  72.529  1.00  0.00    -0.261 C  
HETATM   39  O   UNL     1     -10.874   6.603  73.681  1.00  0.00    -0.462 OA 
HETATM   40  H   UNL     1     -11.746   6.228  73.632  1.00  0.00     0.000 HD 
ENDBRANCH   4  38
TORSDOF 12
ENDMDL
MODEL      172
REMARK 921   NORMALIZED FREE ENERGY PREDICTED BY IDOCK:   -2.65 KCAL/MOL
REMARK 922        TOTAL FREE ENERGY PREDICTED BY IDOCK:   -5.55 KCAL/MOL
REMARK 923 INTER-LIGAND FREE ENERGY PREDICTED BY IDOCK:   -4.57 KCAL/MOL
REMARK 924 INTRA-LIGAND FREE ENERGY PREDICTED BY IDOCK:   -0.99 KCAL/MOL
REMARK 927      BINDING AFFINITY PREDICTED BY RF-SCORE:    0.00 PKD
ROOT
HETATM    1  C   UNL     1      -8.529   8.949  70.660  1.00  0.00    -0.184 C  
HETATM    2  N   UNL     1      -9.277   9.015  69.408  1.00  0.00    -0.147 N  
HETATM    3  O   UNL     1     -10.701  10.650  70.177  1.00  0.00    -0.238 OA 
HETATM    4  C   UNL     1     -10.364   9.883  69.279  1.00  0.00    -0.219 C  
ENDROOT
BRANCH   2   5
HETATM    5  C   UNL     1      -8.815   8.164  68.355  1.00  0.00    -0.133 A  
HETATM    6  I   UNL     1     -10.940   6.273  69.579  1.00  0.00    -0.424 I  
HETATM    7  C   UNL     1      -7.903   8.665  67.391  1.00  0.00    -0.098 A  
HETATM    8  C   UNL     1      -7.395   7.815  66.388  1.00  0.00    -0.079 A  
HETATM    9  C   UNL     1      -9.270   6.822  68.281  1.00  0.00    -0.122 A  
HETATM   10  I   UNL     1      -7.365  10.763  67.493  1.00  0.00    -0.101 I  
HETATM   11  C   UNL     1      -8.721   5.924  67.330  1.00  0.00    -0.108 A  
HETATM   12  I   UNL     1      -6.551   5.032  65.262  1.00  0.00    -0.038 I  
HETATM   13  C   UNL     1      -7.744   6.429  66.426  1.00  0.00    -0.099 A  
BRANCH   8  14
HETATM   14  C   UNL     1      -6.654   8.354  65.205  1.00  0.00    -0.063 C  
HETATM   15  H   UNL     1      -4.901   9.046  64.643  1.00  0.00     0.000 HD 
HETATM   16  O   UNL     1      -5.372   8.704  65.394  1.00  0.00    -0.034 OA 
BRANCH  14  17
HETATM   17  N   UNL     1      -7.220   8.489  64.065  1.00  0.00    -0.090 NA 
HETATM   18  H   UNL     1      -7.649   7.691  63.596  1.00  0.00     0.000 HD 
BRANCH  17  19
HETATM   19  C   UNL     1      -7.237   9.824  63.446  1.00  0.00    -0.123 C  
BRANCH  19  20
HETATM   20  C   UNL     1      -8.687  10.227  63.149  1.00  0.00    -0.207 C  
HETATM   21  H   UNL     1     -10.235   9.446  62.214  1.00  0.00     0.000 HD 
HETATM   22  O   UNL     1      -9.337   9.196  62.398  1.00  0.00    -0.045 OA 
BRANCH  20  23
HETATM   23  C   UNL     1      -9.459  10.516  64.448  1.00  0.00    -0.281 C  
HETATM   24  O   UNL     1     -10.790  10.957  64.182  1.00  0.00    -0.428 OA 
HETATM   25  H   UNL     1     -11.267  11.135  64.984  1.00  0.00     0.000 HD 
ENDBRANCH  20  23
ENDBRANCH  19  20
ENDBRANCH  17  19
ENDBRANCH  14  17
ENDBRANCH   8  14
BRANCH  11  26
HETATM   26  C   UNL     1      -9.186   4.496  67.308  1.00  0.00    -0.136 C  
HETATM   27  O   UNL     1     -10.307   4.247  66.599  1.00  0.00    -0.317 OA 
HETATM   28  H   UNL     1     -10.601   3.343  66.585  1.00  0.00     0.000 HD 
BRANCH  26  29
HETATM   29  N   UNL     1      -8.607   3.563  67.968  1.00  0.00    -0.094 NA 
HETATM   30  H   UNL     1      -7.589   3.512  68.008  1.00  0.00     0.000 HD 
BRANCH  29  31
HETATM   31  C   UNL     1      -9.431   2.564  68.667  1.00  0.00    -0.129 C  
BRANCH  31  32
HETATM   32  C   UNL     1      -8.610   1.722  69.671  1.00  0.00    -0.051 C  
HETATM   33  O   UNL     1      -7.194   1.855  69.469  1.00  0.00    -0.036 OA 
HETATM   34  H   UNL     1      -6.690   1.337  70.086  1.00  0.00     0.000 HD 
BRANCH  32  35
HETATM   35  C   UNL     1      -8.926   2.156  71.113  1.00  0.00    -0.078 C  
HETATM   36  O   UNL     1      -9.331   3.522  71.194  1.00  0.00    -0.114 OA 
HETATM   37  H   UNL     1      -9.526   3.790  72.084  1.00  0.00     0.000 HD 
ENDBRANCH  32  35
ENDBRANCH  31  32
ENDBRANCH  29  31
ENDBRANCH  26  29
ENDBRANCH  11  26
ENDBRANCH   2   5
BRANCH   4  38
HETATM   38  C   UNL     1     -11.171   9.843  67.968  1.00  0.00    -0.061 C  
HETATM   39  O   UNL     1     -11.207  11.110  67.340  1.00  0.00    -0.289 OA 
HETATM   40  H   UNL     1     -11.705  11.084  66.530  1.00  0.00     0.000 HD 
ENDBRANCH   4  38
TORSDOF 12
ENDMDL
MODEL      173
REMARK 921   NORMALIZED FREE ENERGY PREDICTED BY IDOCK:   -2.60 KCAL/MOL
REMARK 922        TOTAL FREE ENERGY PREDICTED BY IDOCK:   -5.45 KCAL/MOL
REMARK 923 INTER-LIGAND FREE ENERGY PREDICTED BY IDOCK:   -4.74 KCAL/MOL
REMARK 924 INTRA-LIGAND FREE ENERGY PREDICTED BY IDOCK:   -0.71 KCAL/MOL
REMARK 927      BINDING AFFINITY PREDICTED BY RF-SCORE:    0.00 PKD
ROOT
HETATM    1  C   UNL     1      -8.681   2.335  68.356  1.00  0.00    -0.092 C  
HETATM    2  N   UNL     1      -7.782   3.372  67.858  1.00  0.00    -0.068 N  
HETATM    3  O   UNL     1      -6.694   1.942  66.421  1.00  0.00    -0.036 OA 
HETATM    4  C   UNL     1      -6.805   3.064  66.907  1.00  0.00    -0.049 C  
ENDROOT
BRANCH   2   5
HETATM    5  C   UNL     1      -7.982   4.685  68.389  1.00  0.00    -0.080 A  
HETATM    6  I   UNL     1      -5.896   3.673  70.440  1.00  0.00    -0.019 I  
HETATM    7  C   UNL     1      -8.776   5.620  67.677  1.00  0.00    -0.107 A  
HETATM    8  C   UNL     1      -9.031   6.895  68.224  1.00  0.00    -0.124 A  
HETATM    9  C   UNL     1      -7.387   5.046  69.625  1.00  0.00    -0.056 A  
HETATM   10  I   UNL     1      -9.535   5.038  65.730  1.00  0.00    -0.080 I  
HETATM   11  C   UNL     1      -7.685   6.292  70.235  1.00  0.00    -0.098 A  
HETATM   12  I   UNL     1      -9.398   8.882  70.598  1.00  0.00    -0.331 I  
HETATM   13  C   UNL     1      -8.553   7.181  69.540  1.00  0.00    -0.134 A  
BRANCH   8  14
HETATM   14  C   UNL     1      -9.627   7.995  67.402  1.00  0.00    -0.153 C  
HETATM   15  H   UNL     1     -11.344   8.747  66.811  1.00  0.00     0.000 HD 
HETATM   16  O   UNL     1     -10.966   8.048  67.332  1.00  0.00    -0.151 OA 
BRANCH  14  17
HETATM   17  N   UNL     1      -8.893   8.841  66.783  1.00  0.00    -0.126 NA 
HETATM   18  H   UNL     1      -8.122   8.530  66.192  1.00  0.00     0.000 HD 
BRANCH  17  19
HETATM   19  C   UNL     1      -9.188  10.273  66.945  1.00  0.00    -0.150 C  
BRANCH  19  20
HETATM   20  C   UNL     1      -9.509  10.884  65.575  1.00  0.00    -0.211 C  
HETATM   21  H   UNL     1     -10.066  10.229  63.803  1.00  0.00     0.000 HD 
HETATM   22  O   UNL     1      -9.868   9.850  64.652  1.00  0.00    -0.285 OA 
BRANCH  20  23
HETATM   23  C   UNL     1     -10.636  11.925  65.683  1.00  0.00    -0.268 C  
HETATM   24  O   UNL     1     -11.623  11.537  66.637  1.00  0.00    -0.469 OA 
HETATM   25  H   UNL     1     -12.319  12.181  66.703  1.00  0.00     0.000 HD 
ENDBRANCH  20  23
ENDBRANCH  19  20
ENDBRANCH  17  19
ENDBRANCH  14  17
ENDBRANCH   8  14
BRANCH  11  26
HETATM   26  C   UNL     1      -7.079   6.625  71.568  1.00  0.00    -0.080 C  
HETATM   27  O   UNL     1      -5.951   7.365  71.540  1.00  0.00    -0.036 OA 
HETATM   28  H   UNL     1      -5.568   7.577  72.384  1.00  0.00     0.000 HD 
BRANCH  26  29
HETATM   29  N   UNL     1      -7.550   6.190  72.678  1.00  0.00    -0.100 NA 
HETATM   30  H   UNL     1      -7.043   6.342  73.550  1.00  0.00     0.000 HD 
BRANCH  29  31
HETATM   31  C   UNL     1      -8.833   5.470  72.677  1.00  0.00    -0.123 C  
BRANCH  31  32
HETATM   32  C   UNL     1      -9.715   5.836  73.893  1.00  0.00    -0.169 C  
HETATM   33  O   UNL     1     -10.152   7.204  73.862  1.00  0.00    -0.322 OA 
HETATM   34  H   UNL     1     -10.693   7.429  74.609  1.00  0.00     0.000 HD 
BRANCH  32  35
HETATM   35  C   UNL     1     -10.966   4.941  73.933  1.00  0.00    -0.234 C  
HETATM   36  O   UNL     1     -12.000   5.412  73.069  1.00  0.00    -0.548 OA 
HETATM   37  H   UNL     1     -12.772   4.860  73.094  1.00  0.00     0.000 HD 
ENDBRANCH  32  35
ENDBRANCH  31  32
ENDBRANCH  29  31
ENDBRANCH  26  29
ENDBRANCH  11  26
ENDBRANCH   2   5
BRANCH   4  38
HETATM   38  C   UNL     1      -5.826   4.176  66.489  1.00  0.00    -0.023 C  
HETATM   39  O   UNL     1      -5.921   4.460  65.106  1.00  0.00    -0.021 OA 
HETATM   40  H   UNL     1      -5.316   5.147  64.848  1.00  0.00     0.000 HD 
ENDBRANCH   4  38
TORSDOF 12
ENDMDL
MODEL      174
REMARK 921   NORMALIZED FREE ENERGY PREDICTED BY IDOCK:   -2.57 KCAL/MOL
REMARK 922        TOTAL FREE ENERGY PREDICTED BY IDOCK:   -5.41 KCAL/MOL
REMARK 923 INTER-LIGAND FREE ENERGY PREDICTED BY IDOCK:   -4.70 KCAL/MOL
REMARK 924 INTRA-LIGAND FREE ENERGY PREDICTED BY IDOCK:   -0.70 KCAL/MOL
REMARK 927      BINDING AFFINITY PREDICTED BY RF-SCORE:    0.00 PKD
ROOT
HETATM    1  C   UNL     1      -7.524  14.345  70.783  1.00  0.00     1.587 C  
HETATM    2  N   UNL     1      -6.960  13.987  69.485  1.00  0.00    -0.058 N  
HETATM    3  O   UNL     1      -5.191  12.841  70.407  1.00  0.00    -0.096 OA 
HETATM    4  C   UNL     1      -5.774  13.252  69.407  1.00  0.00    -0.088 C  
ENDROOT
BRANCH   2   5
HETATM    5  C   UNL     1      -7.701  14.416  68.339  1.00  0.00    -0.132 A  
HETATM    6  I   UNL     1      -5.778  16.831  68.577  1.00  0.00    -0.134 I  
HETATM    7  C   UNL     1      -8.639  13.539  67.736  1.00  0.00    -0.183 A  
HETATM    8  C   UNL     1      -9.418  13.978  66.645  1.00  0.00    -0.300 A  
HETATM    9  C   UNL     1      -7.494  15.717  67.811  1.00  0.00    -0.145 A  
HETATM   10  I   UNL     1      -8.795  11.522  68.516  1.00  0.00     0.013 I  
HETATM   11  C   UNL     1      -8.313  16.211  66.764  1.00  0.00    -0.299 A  
HETATM   12  I   UNL     1     -10.868  16.164  64.960  1.00  0.00     0.139 I  
HETATM   13  C   UNL     1      -9.306  15.341  66.231  1.00  0.00    -0.310 A  
BRANCH   8  14
HETATM   14  C   UNL     1     -10.214  13.019  65.816  1.00  0.00    -0.290 C  
HETATM   15  H   UNL     1     -11.975  12.156  65.686  1.00  0.00     0.000 HD 
HETATM   16  O   UNL     1     -11.471  12.765  66.212  1.00  0.00    -0.316 OA 
BRANCH  14  17
HETATM   17  N   UNL     1      -9.715  12.456  64.780  1.00  0.00    -0.472 NA 
HETATM   18  H   UNL     1      -8.875  12.828  64.337  1.00  0.00     0.000 HD 
BRANCH  17  19
HETATM   19  C   UNL     1     -10.383  11.260  64.244  1.00  0.00    -0.340 C  
BRANCH  19  20
HETATM   20  C   UNL     1      -9.337  10.172  63.973  1.00  0.00    -0.287 C  
HETATM   21  H   UNL     1      -7.959   9.807  62.614  1.00  0.00     0.000 HD 
HETATM   22  O   UNL     1      -8.607  10.482  62.781  1.00  0.00    -0.171 OA 
BRANCH  20  23
HETATM   23  C   UNL     1      -8.379  10.015  65.167  1.00  0.00    -0.153 C  
HETATM   24  O   UNL     1      -7.070   9.634  64.745  1.00  0.00    -0.104 OA 
HETATM   25  H   UNL     1      -6.478   9.537  65.482  1.00  0.00     0.000 HD 
ENDBRANCH  20  23
ENDBRANCH  19  20
ENDBRANCH  17  19
ENDBRANCH  14  17
ENDBRANCH   8  14
BRANCH  11  26
HETATM   26  C   UNL     1      -8.105  17.610  66.259  1.00  0.00    -0.246 C  
HETATM   27  O   UNL     1      -7.220  17.752  65.250  1.00  0.00    -0.224 OA 
HETATM   28  H   UNL     1      -7.088  18.637  64.931  1.00  0.00     0.000 HD 
BRANCH  26  29
HETATM   29  N   UNL     1      -8.671  18.633  66.783  1.00  0.00    -0.283 NA 
HETATM   30  H   UNL     1      -8.497  19.567  66.412  1.00  0.00     0.000 HD 
BRANCH  29  31
HETATM   31  C   UNL     1      -9.577  18.442  67.926  1.00  0.00    -0.293 C  
BRANCH  31  32
HETATM   32  C   UNL     1     -10.483  19.672  68.172  1.00  0.00    -0.376 C  
HETATM   33  O   UNL     1     -10.335  20.204  69.498  1.00  0.00    -0.547 OA 
HETATM   34  H   UNL     1     -10.891  20.960  69.649  1.00  0.00     0.000 HD 
BRANCH  32  35
HETATM   35  C   UNL     1     -10.145  20.790  67.172  1.00  0.00    -0.043 C  
HETATM   36  O   UNL     1      -8.854  21.355  67.402  1.00  0.00    -0.401 OA 
HETATM   37  H   UNL     1      -8.645  22.046  66.784  1.00  0.00     0.000 HD 
ENDBRANCH  32  35
ENDBRANCH  31  32
ENDBRANCH  29  31
ENDBRANCH  26  29
ENDBRANCH  11  26
ENDBRANCH   2   5
BRANCH   4  38
HETATM   38  C   UNL     1      -5.178  12.984  68.013  1.00  0.00    -0.101 C  
HETATM   39  O   UNL     1      -5.334  11.630  67.632  1.00  0.00    -0.048 OA 
HETATM   40  H   UNL     1      -4.966  11.464  66.772  1.00  0.00     0.000 HD 
ENDBRANCH   4  38
TORSDOF 12
ENDMDL
MODEL      175
REMARK 921   NORMALIZED FREE ENERGY PREDICTED BY IDOCK:   -2.39 KCAL/MOL
REMARK 922        TOTAL FREE ENERGY PREDICTED BY IDOCK:   -5.10 KCAL/MOL
REMARK 923 INTER-LIGAND FREE ENERGY PREDICTED BY IDOCK:   -5.20 KCAL/MOL
REMARK 924 INTRA-LIGAND FREE ENERGY PREDICTED BY IDOCK:    0.10 KCAL/MOL
REMARK 927      BINDING AFFINITY PREDICTED BY RF-SCORE:    0.00 PKD
ROOT
HETATM    1  C   UNL     1      -7.000  13.978  70.637  1.00  0.00     0.789 C  
HETATM    2  N   UNL     1      -6.803  13.636  69.232  1.00  0.00    -0.094 N  
HETATM    3  O   UNL     1      -5.204  12.048  69.692  1.00  0.00    -0.065 OA 
HETATM    4  C   UNL     1      -5.860  12.672  68.863  1.00  0.00    -0.071 C  
ENDROOT
BRANCH   2   5
HETATM    5  C   UNL     1      -7.634  14.327  68.294  1.00  0.00    -0.130 A  
HETATM    6  I   UNL     1      -5.136  16.149  68.128  1.00  0.00    -0.141 I  
HETATM    7  C   UNL     1      -8.879  13.767  67.907  1.00  0.00    -0.186 A  
HETATM    8  C   UNL     1      -9.731  14.473  67.033  1.00  0.00    -0.247 A  
HETATM    9  C   UNL     1      -7.210  15.570  67.757  1.00  0.00    -0.157 A  
HETATM   10  I   UNL     1      -9.390  11.801  68.665  1.00  0.00     0.144 I  
HETATM   11  C   UNL     1      -8.076  16.336  66.936  1.00  0.00    -0.270 A  
HETATM   12  I   UNL     1     -10.880  17.080  65.768  1.00  0.00     0.471 I  
HETATM   13  C   UNL     1      -9.355  15.791  66.629  1.00  0.00    -0.258 A  
BRANCH   8  14
HETATM   14  C   UNL     1     -10.913  13.815  66.392  1.00  0.00    -0.298 C  
HETATM   15  H   UNL     1     -12.873  13.898  66.275  1.00  0.00     0.000 HD 
HETATM   16  O   UNL     1     -12.124  14.315  66.683  1.00  0.00    -0.426 OA 
BRANCH  14  17
HETATM   17  N   UNL     1     -10.777  12.812  65.609  1.00  0.00    -0.269 NA 
HETATM   18  H   UNL     1     -11.123  11.890  65.876  1.00  0.00     0.000 HD 
BRANCH  17  19
HETATM   19  C   UNL     1     -10.110  13.020  64.314  1.00  0.00    -0.192 C  
BRANCH  19  20
HETATM   20  C   UNL     1     -10.878  12.267  63.220  1.00  0.00    -0.303 C  
HETATM   21  H   UNL     1     -11.177  10.389  62.705  1.00  0.00     0.000 HD 
HETATM   22  O   UNL     1     -10.701  10.856  63.383  1.00  0.00    -0.233 OA 
BRANCH  20  23
HETATM   23  C   UNL     1     -12.373  12.629  63.243  1.00  0.00    -0.354 C  
HETATM   24  O   UNL     1     -13.149  11.621  63.890  1.00  0.00    -0.350 OA 
HETATM   25  H   UNL     1     -14.073  11.844  63.904  1.00  0.00     0.000 HD 
ENDBRANCH  20  23
ENDBRANCH  19  20
ENDBRANCH  17  19
ENDBRANCH  14  17
ENDBRANCH   8  14
BRANCH  11  26
HETATM   26  C   UNL     1      -7.619  17.672  66.423  1.00  0.00    -0.287 C  
HETATM   27  O   UNL     1      -7.036  17.673  65.206  1.00  0.00    -0.133 OA 
HETATM   28  H   UNL     1      -6.746  18.518  64.881  1.00  0.00     0.000 HD 
BRANCH  26  29
HETATM   29  N   UNL     1      -7.707  18.751  67.108  1.00  0.00    -0.230 NA 
HETATM   30  H   UNL     1      -7.394  19.639  66.717  1.00  0.00     0.000 HD 
BRANCH  29  31
HETATM   31  C   UNL     1      -8.268  18.691  68.467  1.00  0.00    -0.341 C  
BRANCH  31  32
HETATM   32  C   UNL     1      -9.808  18.829  68.476  1.00  0.00    -0.396 C  
HETATM   33  O   UNL     1     -10.442  17.842  69.304  1.00  0.00    -0.426 OA 
HETATM   34  H   UNL     1     -11.389  17.926  69.309  1.00  0.00     0.000 HD 
BRANCH  32  35
HETATM   35  C   UNL     1     -10.215  20.218  68.999  1.00  0.00     0.010 C  
HETATM   36  O   UNL     1     -10.374  20.240  70.418  1.00  0.00    -0.565 OA 
HETATM   37  H   UNL     1     -10.626  21.097  70.741  1.00  0.00     0.000 HD 
ENDBRANCH  32  35
ENDBRANCH  31  32
ENDBRANCH  29  31
ENDBRANCH  26  29
ENDBRANCH  11  26
ENDBRANCH   2   5
BRANCH   4  38
HETATM   38  C   UNL     1      -5.631  12.420  67.362  1.00  0.00    -0.126 C  
HETATM   39  O   UNL     1      -6.119  11.152  66.967  1.00  0.00    -0.070 OA 
HETATM   40  H   UNL     1      -5.978  10.997  66.040  1.00  0.00     0.000 HD 
ENDBRANCH   4  38
TORSDOF 12
ENDMDL
MODEL      176
REMARK 921   NORMALIZED FREE ENERGY PREDICTED BY IDOCK:   -2.39 KCAL/MOL
REMARK 922        TOTAL FREE ENERGY PREDICTED BY IDOCK:   -5.10 KCAL/MOL
REMARK 923 INTER-LIGAND FREE ENERGY PREDICTED BY IDOCK:   -6.09 KCAL/MOL
REMARK 924 INTRA-LIGAND FREE ENERGY PREDICTED BY IDOCK:    0.99 KCAL/MOL
REMARK 927      BINDING AFFINITY PREDICTED BY RF-SCORE:    0.00 PKD
ROOT
HETATM    1  C   UNL     1      -8.413   9.597  68.377  1.00  0.00    -0.118 C  
HETATM    2  N   UNL     1      -7.593  10.408  67.482  1.00  0.00    -0.093 N  
HETATM    3  O   UNL     1      -6.247   8.643  66.879  1.00  0.00    -0.057 OA 
HETATM    4  C   UNL     1      -6.516   9.838  66.798  1.00  0.00    -0.066 C  
ENDROOT
BRANCH   2   5
HETATM    5  C   UNL     1      -7.975  11.781  67.352  1.00  0.00    -0.155 A  
HETATM    6  I   UNL     1      -9.952  10.555  65.308  1.00  0.00    -0.321 I  
HETATM    7  C   UNL     1      -7.428  12.752  68.228  1.00  0.00    -0.124 A  
HETATM    8  C   UNL     1      -7.751  14.115  68.065  1.00  0.00    -0.147 A  
HETATM    9  C   UNL     1      -8.899  12.164  66.345  1.00  0.00    -0.100 A  
HETATM   10  I   UNL     1      -6.134  12.067  69.827  1.00  0.00    -0.075 I  
HETATM   11  C   UNL     1      -9.184  13.533  66.108  1.00  0.00     0.006 A  
HETATM   12  I   UNL     1      -8.592  16.593  66.368  1.00  0.00    -0.280 I  
HETATM   13  C   UNL     1      -8.557  14.497  66.948  1.00  0.00    -0.179 A  
BRANCH   8  14
HETATM   14  C   UNL     1      -7.420  15.130  69.114  1.00  0.00    -0.176 C  
HETATM   15  H   UNL     1      -6.022  16.390  69.681  1.00  0.00     0.000 HD 
HETATM   16  O   UNL     1      -6.232  15.746  69.015  1.00  0.00    -0.112 OA 
BRANCH  14  17
HETATM   17  N   UNL     1      -8.228  15.390  70.072  1.00  0.00    -0.112 NA 
HETATM   18  H   UNL     1      -8.073  15.009  71.005  1.00  0.00     0.000 HD 
BRANCH  17  19
HETATM   19  C   UNL     1      -9.387  16.253  69.793  1.00  0.00     0.283 C  
BRANCH  19  20
HETATM   20  C   UNL     1     -10.678  15.458  70.021  1.00  0.00    -0.307 C  
HETATM   21  H   UNL     1     -12.077  15.350  71.404  1.00  0.00     0.000 HD 
HETATM   22  O   UNL     1     -11.277  15.843  71.263  1.00  0.00    -0.353 OA 
BRANCH  20  23
HETATM   23  C   UNL     1     -11.667  15.662  68.860  1.00  0.00    -0.384 C  
HETATM   24  O   UNL     1     -12.047  14.421  68.267  1.00  0.00    -0.512 OA 
HETATM   25  H   UNL     1     -12.658  14.547  67.551  1.00  0.00     0.000 HD 
ENDBRANCH  20  23
ENDBRANCH  19  20
ENDBRANCH  17  19
ENDBRANCH  14  17
ENDBRANCH   8  14
BRANCH  11  26
HETATM   26  C   UNL     1     -10.127  13.911  65.002  1.00  0.00    -0.290 C  
HETATM   27  O   UNL     1     -10.731  15.112  65.121  1.00  0.00    -0.362 OA 
HETATM   28  H   UNL     1     -11.327  15.352  64.421  1.00  0.00     0.000 HD 
BRANCH  26  29
HETATM   29  N   UNL     1     -10.408  13.130  64.026  1.00  0.00    -0.644 NA 
HETATM   30  H   UNL     1      -9.853  12.292  63.858  1.00  0.00     0.000 HD 
BRANCH  29  31
HETATM   31  C   UNL     1     -11.545  13.459  63.152  1.00  0.00     0.361 C  
BRANCH  31  32
HETATM   32  C   UNL     1     -12.827  12.682  63.535  1.00  0.00    -0.023 C  
HETATM   33  O   UNL     1     -12.791  11.315  63.096  1.00  0.00    -0.640 OA 
HETATM   34  H   UNL     1     -13.578  10.838  63.331  1.00  0.00     0.000 HD 
BRANCH  32  35
HETATM   35  C   UNL     1     -13.014  12.684  65.062  1.00  0.00     0.059 C  
HETATM   36  O   UNL     1     -13.260  13.992  65.579  1.00  0.00    -0.710 OA 
HETATM   37  H   UNL     1     -13.375  13.994  66.522  1.00  0.00     0.000 HD 
ENDBRANCH  32  35
ENDBRANCH  31  32
ENDBRANCH  29  31
ENDBRANCH  26  29
ENDBRANCH  11  26
ENDBRANCH   2   5
BRANCH   4  38
HETATM   38  C   UNL     1      -5.632  10.762  65.941  1.00  0.00    -0.141 C  
HETATM   39  O   UNL     1      -5.975  10.687  64.571  1.00  0.00    -0.323 OA 
HETATM   40  H   UNL     1      -5.429  11.258  64.042  1.00  0.00     0.000 HD 
ENDBRANCH   4  38
TORSDOF 12
ENDMDL
MODEL      177
REMARK 921   NORMALIZED FREE ENERGY PREDICTED BY IDOCK:   -2.39 KCAL/MOL
REMARK 922        TOTAL FREE ENERGY PREDICTED BY IDOCK:   -5.10 KCAL/MOL
REMARK 923 INTER-LIGAND FREE ENERGY PREDICTED BY IDOCK:   -5.33 KCAL/MOL
REMARK 924 INTRA-LIGAND FREE ENERGY PREDICTED BY IDOCK:    0.23 KCAL/MOL
REMARK 927      BINDING AFFINITY PREDICTED BY RF-SCORE:    0.00 PKD
ROOT
HETATM    1  C   UNL     1     -11.936  10.761  71.764  1.00  0.00     0.469 C  
HETATM    2  N   UNL     1     -12.062   9.380  71.308  1.00  0.00    -0.324 N  
HETATM    3  O   UNL     1     -14.196   9.148  72.136  1.00  0.00    -0.375 OA 
HETATM    4  C   UNL     1     -13.227   8.652  71.568  1.00  0.00    -0.300 C  
ENDROOT
BRANCH   2   5
HETATM    5  C   UNL     1     -10.946   8.852  70.584  1.00  0.00    -0.241 A  
HETATM    6  I   UNL     1     -11.771  11.084  68.601  1.00  0.00    -0.099 I  
HETATM    7  C   UNL     1     -10.120   7.867  71.181  1.00  0.00    -0.184 A  
HETATM    8  C   UNL     1      -9.057   7.297  70.450  1.00  0.00    -0.155 A  
HETATM    9  C   UNL     1     -10.673   9.317  69.271  1.00  0.00    -0.196 A  
HETATM   10  I   UNL     1     -10.520   7.312  73.238  1.00  0.00    -0.367 I  
HETATM   11  C   UNL     1      -9.660   8.711  68.486  1.00  0.00    -0.162 A  
HETATM   12  I   UNL     1      -7.656   6.407  67.810  1.00  0.00    -0.105 I  
HETATM   13  C   UNL     1      -8.897   7.664  69.078  1.00  0.00    -0.135 A  
BRANCH   8  14
HETATM   14  C   UNL     1      -8.006   6.464  71.115  1.00  0.00    -0.116 C  
HETATM   15  H   UNL     1      -6.110   6.466  71.635  1.00  0.00     0.000 HD 
HETATM   16  O   UNL     1      -6.777   6.994  71.213  1.00  0.00    -0.057 OA 
BRANCH  14  17
HETATM   17  N   UNL     1      -8.263   5.292  71.561  1.00  0.00    -0.115 NA 
HETATM   18  H   UNL     1      -8.751   5.166  72.449  1.00  0.00     0.000 HD 
BRANCH  17  19
HETATM   19  C   UNL     1      -7.840   4.132  70.763  1.00  0.00    -0.052 C  
BRANCH  19  20
HETATM   20  C   UNL     1      -9.077   3.430  70.190  1.00  0.00    -0.133 C  
HETATM   21  H   UNL     1      -9.485   2.241  68.673  1.00  0.00     0.000 HD 
HETATM   22  O   UNL     1      -8.718   2.676  69.027  1.00  0.00    -0.068 OA 
BRANCH  20  23
HETATM   23  C   UNL     1      -9.733   2.518  71.242  1.00  0.00    -0.131 C  
HETATM   24  O   UNL     1     -10.195   3.261  72.369  1.00  0.00    -0.160 OA 
HETATM   25  H   UNL     1     -10.600   2.698  73.019  1.00  0.00     0.000 HD 
ENDBRANCH  20  23
ENDBRANCH  19  20
ENDBRANCH  17  19
ENDBRANCH  14  17
ENDBRANCH   8  14
BRANCH  11  26
HETATM   26  C   UNL     1      -9.427   9.190  67.081  1.00  0.00    -0.154 C  
HETATM   27  O   UNL     1     -10.199   8.630  66.127  1.00  0.00    -0.434 OA 
HETATM   28  H   UNL     1     -10.052   8.932  65.238  1.00  0.00     0.000 HD 
BRANCH  26  29
HETATM   29  N   UNL     1      -8.510  10.031  66.773  1.00  0.00    -0.125 NA 
HETATM   30  H   UNL     1      -8.510  10.484  65.859  1.00  0.00     0.000 HD 
BRANCH  29  31
HETATM   31  C   UNL     1      -7.458  10.334  67.755  1.00  0.00    -0.088 C  
BRANCH  31  32
HETATM   32  C   UNL     1      -7.785  11.587  68.601  1.00  0.00    -0.139 C  
HETATM   33  O   UNL     1      -7.397  11.436  69.976  1.00  0.00    -0.359 OA 
HETATM   34  H   UNL     1      -7.598  12.206  70.496  1.00  0.00     0.000 HD 
BRANCH  32  35
HETATM   35  C   UNL     1      -7.055  12.817  68.035  1.00  0.00    -0.111 C  
HETATM   36  O   UNL     1      -6.914  12.761  66.615  1.00  0.00    -0.310 OA 
HETATM   37  H   UNL     1      -6.463  13.520  66.266  1.00  0.00     0.000 HD 
ENDBRANCH  32  35
ENDBRANCH  31  32
ENDBRANCH  29  31
ENDBRANCH  26  29
ENDBRANCH  11  26
ENDBRANCH   2   5
BRANCH   4  38
HETATM   38  C   UNL     1     -13.267   7.173  71.144  1.00  0.00    -0.191 C  
HETATM   39  O   UNL     1     -13.956   6.378  72.091  1.00  0.00    -0.412 OA 
HETATM   40  H   UNL     1     -13.980   5.465  71.829  1.00  0.00     0.000 HD 
ENDBRANCH   4  38
TORSDOF 12
ENDMDL
MODEL      178
REMARK 921   NORMALIZED FREE ENERGY PREDICTED BY IDOCK:   -2.25 KCAL/MOL
REMARK 922        TOTAL FREE ENERGY PREDICTED BY IDOCK:   -4.86 KCAL/MOL
REMARK 923 INTER-LIGAND FREE ENERGY PREDICTED BY IDOCK:   -4.40 KCAL/MOL
REMARK 924 INTRA-LIGAND FREE ENERGY PREDICTED BY IDOCK:   -0.46 KCAL/MOL
REMARK 927      BINDING AFFINITY PREDICTED BY RF-SCORE:    0.00 PKD
ROOT
HETATM    1  C   UNL     1      -7.539   8.975  69.912  1.00  0.00    -0.067 C  
HETATM    2  N   UNL     1      -7.233   9.435  68.561  1.00  0.00    -0.071 N  
HETATM    3  O   UNL     1      -5.944   7.595  68.069  1.00  0.00    -0.037 OA 
HETATM    4  C   UNL     1      -6.403   8.681  67.727  1.00  0.00    -0.057 C  
ENDROOT
BRANCH   2   5
HETATM    5  C   UNL     1      -7.842  10.668  68.164  1.00  0.00    -0.110 A  
HETATM    6  I   UNL     1      -9.998   8.721  67.091  1.00  0.00    -0.369 I  
HETATM    7  C   UNL     1      -7.276  11.900  68.579  1.00  0.00    -0.100 A  
HETATM    8  C   UNL     1      -7.833  13.119  68.140  1.00  0.00    -0.145 A  
HETATM    9  C   UNL     1      -9.008  10.651  67.356  1.00  0.00    -0.136 A  
HETATM   10  I   UNL     1      -5.578  11.839  69.926  1.00  0.00    -0.151 I  
HETATM   11  C   UNL     1      -9.546  11.857  66.838  1.00  0.00    -0.208 A  
HETATM   12  I   UNL     1      -9.392  14.893  66.104  1.00  0.00    -0.038 I  
HETATM   13  C   UNL     1      -8.909  13.078  67.200  1.00  0.00    -0.218 A  
BRANCH   8  14
HETATM   14  C   UNL     1      -7.445  14.426  68.758  1.00  0.00    -0.133 C  
HETATM   15  H   UNL     1      -7.718  15.539  70.355  1.00  0.00     0.000 HD 
HETATM   16  O   UNL     1      -7.964  14.710  69.963  1.00  0.00     0.200 OA 
BRANCH  14  17
HETATM   17  N   UNL     1      -6.663  15.243  68.160  1.00  0.00    -0.118 NA 
HETATM   18  H   UNL     1      -6.216  14.989  67.278  1.00  0.00     0.000 HD 
BRANCH  17  19
HETATM   19  C   UNL     1      -6.424  16.558  68.774  1.00  0.00    -0.152 C  
BRANCH  19  20
HETATM   20  C   UNL     1      -7.200  17.630  67.999  1.00  0.00    -0.216 C  
HETATM   21  H   UNL     1      -8.880  18.634  68.222  1.00  0.00     0.000 HD 
HETATM   22  O   UNL     1      -8.399  17.970  68.703  1.00  0.00    -0.304 OA 
BRANCH  20  23
HETATM   23  C   UNL     1      -6.337  18.882  67.768  1.00  0.00    -0.209 C  
HETATM   24  O   UNL     1      -5.455  18.717  66.658  1.00  0.00    -0.141 OA 
HETATM   25  H   UNL     1      -4.922  19.490  66.515  1.00  0.00     0.000 HD 
ENDBRANCH  20  23
ENDBRANCH  19  20
ENDBRANCH  17  19
ENDBRANCH  14  17
ENDBRANCH   8  14
BRANCH  11  26
HETATM   26  C   UNL     1     -10.751  11.805  65.943  1.00  0.00    -0.282 C  
HETATM   27  O   UNL     1     -10.510  11.585  64.634  1.00  0.00    -0.266 OA 
HETATM   28  H   UNL     1     -11.273  11.552  64.067  1.00  0.00     0.000 HD 
BRANCH  26  29
HETATM   29  N   UNL     1     -11.943  12.018  66.363  1.00  0.00    -0.593 NA 
HETATM   30  H   UNL     1     -12.733  11.520  65.954  1.00  0.00     0.000 HD 
BRANCH  29  31
HETATM   31  C   UNL     1     -12.156  12.993  67.445  1.00  0.00    -0.233 C  
BRANCH  31  32
HETATM   32  C   UNL     1     -12.485  12.312  68.794  1.00  0.00     0.599 C  
HETATM   33  O   UNL     1     -12.591  10.885  68.677  1.00  0.00    -0.655 OA 
HETATM   34  H   UNL     1     -12.794  10.467  69.505  1.00  0.00     0.000 HD 
BRANCH  32  35
HETATM   35  C   UNL     1     -11.389  12.622  69.829  1.00  0.00    -0.038 C  
HETATM   36  O   UNL     1     -10.657  11.458  70.211  1.00  0.00    -0.052 OA 
HETATM   37  H   UNL     1      -9.980  11.650  70.850  1.00  0.00     0.000 HD 
ENDBRANCH  32  35
ENDBRANCH  31  32
ENDBRANCH  29  31
ENDBRANCH  26  29
ENDBRANCH  11  26
ENDBRANCH   2   5
BRANCH   4  38
HETATM   38  C   UNL     1      -6.041   9.261  66.348  1.00  0.00    -0.063 C  
HETATM   39  O   UNL     1      -5.164  10.366  66.461  1.00  0.00    -0.039 OA 
HETATM   40  H   UNL     1      -4.941  10.724  65.610  1.00  0.00     0.000 HD 
ENDBRANCH   4  38
TORSDOF 12
ENDMDL
MODEL      179
REMARK 921   NORMALIZED FREE ENERGY PREDICTED BY IDOCK:   -2.20 KCAL/MOL
REMARK 922        TOTAL FREE ENERGY PREDICTED BY IDOCK:   -4.79 KCAL/MOL
REMARK 923 INTER-LIGAND FREE ENERGY PREDICTED BY IDOCK:   -4.81 KCAL/MOL
REMARK 924 INTRA-LIGAND FREE ENERGY PREDICTED BY IDOCK:    0.02 KCAL/MOL
REMARK 927      BINDING AFFINITY PREDICTED BY RF-SCORE:    0.00 PKD
ROOT
HETATM    1  C   UNL     1     -11.939  12.422  66.075  1.00  0.00    -0.350 C  
HETATM    2  N   UNL     1     -11.151  12.168  67.278  1.00  0.00    -0.269 N  
HETATM    3  O   UNL     1     -12.782  10.865  68.245  1.00  0.00     0.588 OA 
HETATM    4  C   UNL     1     -11.677  11.396  68.317  1.00  0.00    -0.288 C  
ENDROOT
BRANCH   2   5
HETATM    5  C   UNL     1      -9.839  12.738  67.302  1.00  0.00    -0.207 A  
HETATM    6  I   UNL     1      -9.163  10.083  65.860  1.00  0.00    -0.276 I  
HETATM    7  C   UNL     1      -9.657  14.070  67.754  1.00  0.00    -0.216 A  
HETATM    8  C   UNL     1      -8.360  14.616  67.841  1.00  0.00    -0.153 A  
HETATM    9  C   UNL     1      -8.727  11.967  66.876  1.00  0.00    -0.193 A  
HETATM   10  I   UNL     1     -11.421  15.227  68.255  1.00  0.00    -0.259 I  
HETATM   11  C   UNL     1      -7.406  12.462  67.022  1.00  0.00    -0.016 A  
HETATM   12  I   UNL     1      -5.271  14.409  68.219  1.00  0.00    -0.092 I  
HETATM   13  C   UNL     1      -7.242  13.771  67.557  1.00  0.00    -0.158 A  
BRANCH   8  14
HETATM   14  C   UNL     1      -8.139  16.082  68.049  1.00  0.00    -0.145 C  
HETATM   15  H   UNL     1      -7.632  17.407  69.410  1.00  0.00     0.000 HD 
HETATM   16  O   UNL     1      -7.772  16.477  69.278  1.00  0.00    -0.234 OA 
BRANCH  14  17
HETATM   17  N   UNL     1      -8.306  16.925  67.100  1.00  0.00    -0.186 NA 
HETATM   18  H   UNL     1      -8.221  16.638  66.125  1.00  0.00     0.000 HD 
BRANCH  17  19
HETATM   19  C   UNL     1      -8.622  18.319  67.451  1.00  0.00    -0.249 C  
BRANCH  19  20
HETATM   20  C   UNL     1      -8.374  19.218  66.233  1.00  0.00    -0.319 C  
HETATM   21  H   UNL     1      -9.125  20.883  65.497  1.00  0.00     0.000 HD 
HETATM   22  O   UNL     1      -9.279  20.326  66.252  1.00  0.00    -0.306 OA 
BRANCH  20  23
HETATM   23  C   UNL     1      -6.917  19.712  66.197  1.00  0.00    -0.250 C  
HETATM   24  O   UNL     1      -5.993  18.645  66.407  1.00  0.00    -0.152 OA 
HETATM   25  H   UNL     1      -5.094  18.950  66.384  1.00  0.00     0.000 HD 
ENDBRANCH  20  23
ENDBRANCH  19  20
ENDBRANCH  17  19
ENDBRANCH  14  17
ENDBRANCH   8  14
BRANCH  11  26
HETATM   26  C   UNL     1      -6.245  11.604  66.609  1.00  0.00    -0.079 C  
HETATM   27  O   UNL     1      -6.233  11.199  65.322  1.00  0.00    -0.359 OA 
HETATM   28  H   UNL     1      -5.498  10.656  65.060  1.00  0.00     0.000 HD 
BRANCH  26  29
HETATM   29  N   UNL     1      -5.341  11.210  67.428  1.00  0.00    -0.040 NA 
HETATM   30  H   UNL     1      -4.659  11.869  67.801  1.00  0.00     0.000 HD 
BRANCH  29  31
HETATM   31  C   UNL     1      -5.302   9.793  67.822  1.00  0.00    -0.036 C  
BRANCH  31  32
HETATM   32  C   UNL     1      -6.668   9.288  68.341  1.00  0.00    -0.059 C  
HETATM   33  O   UNL     1      -6.753   7.854  68.355  1.00  0.00    -0.062 OA 
HETATM   34  H   UNL     1      -7.593   7.543  68.673  1.00  0.00     0.000 HD 
BRANCH  32  35
HETATM   35  C   UNL     1      -6.912   9.790  69.775  1.00  0.00    -0.087 C  
HETATM   36  O   UNL     1      -7.626   8.843  70.570  1.00  0.00    -0.070 OA 
HETATM   37  H   UNL     1      -7.777   9.153  71.455  1.00  0.00     0.000 HD 
ENDBRANCH  32  35
ENDBRANCH  31  32
ENDBRANCH  29  31
ENDBRANCH  26  29
ENDBRANCH  11  26
ENDBRANCH   2   5
BRANCH   4  38
HETATM   38  C   UNL     1     -10.838  11.239  69.599  1.00  0.00    -0.095 C  
HETATM   39  O   UNL     1     -11.343  12.037  70.652  1.00  0.00    -0.189 OA 
HETATM   40  H   UNL     1     -10.825  11.940  71.443  1.00  0.00     0.000 HD 
ENDBRANCH   4  38
TORSDOF 12
ENDMDL
MODEL      180
REMARK 921   NORMALIZED FREE ENERGY PREDICTED BY IDOCK:   -2.20 KCAL/MOL
REMARK 922        TOTAL FREE ENERGY PREDICTED BY IDOCK:   -4.79 KCAL/MOL
REMARK 923 INTER-LIGAND FREE ENERGY PREDICTED BY IDOCK:   -5.87 KCAL/MOL
REMARK 924 INTRA-LIGAND FREE ENERGY PREDICTED BY IDOCK:    1.09 KCAL/MOL
REMARK 927      BINDING AFFINITY PREDICTED BY RF-SCORE:    0.00 PKD
ROOT
HETATM    1  C   UNL     1      -7.761   5.702  70.332  1.00  0.00    -0.094 C  
HETATM    2  N   UNL     1      -8.650   5.946  69.200  1.00  0.00    -0.115 N  
HETATM    3  O   UNL     1      -9.607   3.857  69.316  1.00  0.00    -0.183 OA 
HETATM    4  C   UNL     1      -9.519   4.946  68.755  1.00  0.00    -0.145 C  
ENDROOT
BRANCH   2   5
HETATM    5  C   UNL     1      -8.578   7.248  68.614  1.00  0.00    -0.128 A  
HETATM    6  I   UNL     1      -6.479   5.825  66.837  1.00  0.00    -0.055 I  
HETATM    7  C   UNL     1      -9.497   8.253  69.011  1.00  0.00    -0.155 A  
HETATM    8  C   UNL     1      -9.391   9.557  68.484  1.00  0.00    -0.138 A  
HETATM    9  C   UNL     1      -7.586   7.530  67.638  1.00  0.00    -0.113 A  
HETATM   10  I   UNL     1     -11.067   7.705  70.402  1.00  0.00    -0.167 I  
HETATM   11  C   UNL     1      -7.409   8.848  67.147  1.00  0.00    -0.084 A  
HETATM   12  I   UNL     1      -7.802  11.948  67.269  1.00  0.00    -0.145 I  
HETATM   13  C   UNL     1      -8.290   9.859  67.625  1.00  0.00    -0.114 A  
BRANCH   8  14
HETATM   14  C   UNL     1     -10.484  10.564  68.662  1.00  0.00    -0.191 C  
HETATM   15  H   UNL     1     -11.150  11.945  69.893  1.00  0.00     0.000 HD 
HETATM   16  O   UNL     1     -10.456  11.306  69.780  1.00  0.00     0.003 OA 
BRANCH  14  17
HETATM   17  N   UNL     1     -11.413  10.705  67.792  1.00  0.00    -0.598 NA 
HETATM   18  H   UNL     1     -12.373  10.434  68.004  1.00  0.00     0.000 HD 
BRANCH  17  19
HETATM   19  C   UNL     1     -11.061  11.267  66.479  1.00  0.00    -0.216 C  
BRANCH  19  20
HETATM   20  C   UNL     1     -12.068  12.364  66.110  1.00  0.00    -0.220 C  
HETATM   21  H   UNL     1     -12.593  14.129  66.809  1.00  0.00     0.000 HD 
HETATM   22  O   UNL     1     -11.969  13.450  67.037  1.00  0.00    -0.382 OA 
BRANCH  20  23
HETATM   23  C   UNL     1     -11.844  12.861  64.672  1.00  0.00    -0.372 C  
HETATM   24  O   UNL     1     -10.505  13.313  64.473  1.00  0.00    -0.394 OA 
HETATM   25  H   UNL     1     -10.367  13.620  63.584  1.00  0.00     0.000 HD 
ENDBRANCH  20  23
ENDBRANCH  19  20
ENDBRANCH  17  19
ENDBRANCH  14  17
ENDBRANCH   8  14
BRANCH  11  26
HETATM   26  C   UNL     1      -6.318   9.126  66.153  1.00  0.00    -0.064 C  
HETATM   27  O   UNL     1      -5.541  10.199  66.408  1.00  0.00    -0.047 OA 
HETATM   28  H   UNL     1      -4.850  10.376  65.779  1.00  0.00     0.000 HD 
BRANCH  26  29
HETATM   29  N   UNL     1      -6.156   8.440  65.083  1.00  0.00    -0.048 NA 
HETATM   30  H   UNL     1      -5.426   7.730  65.029  1.00  0.00     0.000 HD 
BRANCH  29  31
HETATM   31  C   UNL     1      -7.039   8.689  63.933  1.00  0.00    -0.094 C  
BRANCH  31  32
HETATM   32  C   UNL     1      -7.725  10.074  64.006  1.00  0.00    -0.143 C  
HETATM   33  O   UNL     1      -7.369  10.921  62.902  1.00  0.00    -0.357 OA 
HETATM   34  H   UNL     1      -7.790  11.771  62.947  1.00  0.00     0.000 HD 
BRANCH  32  35
HETATM   35  C   UNL     1      -9.255   9.911  64.003  1.00  0.00    -0.253 C  
HETATM   36  O   UNL     1      -9.842  10.306  62.763  1.00  0.00    -0.535 OA 
HETATM   37  H   UNL     1     -10.787  10.205  62.762  1.00  0.00     0.000 HD 
ENDBRANCH  32  35
ENDBRANCH  31  32
ENDBRANCH  29  31
ENDBRANCH  26  29
ENDBRANCH  11  26
ENDBRANCH   2   5
BRANCH   4  38
HETATM   38  C   UNL     1     -10.366   5.228  67.501  1.00  0.00    -0.162 C  
HETATM   39  O   UNL     1      -9.783   4.666  66.341  1.00  0.00    -0.162 OA 
HETATM   40  H   UNL     1     -10.306   4.840  65.567  1.00  0.00     0.000 HD 
ENDBRANCH   4  38
TORSDOF 12
ENDMDL
MODEL      181
REMARK 921   NORMALIZED FREE ENERGY PREDICTED BY IDOCK:   -2.17 KCAL/MOL
REMARK 922        TOTAL FREE ENERGY PREDICTED BY IDOCK:   -4.74 KCAL/MOL
REMARK 923 INTER-LIGAND FREE ENERGY PREDICTED BY IDOCK:   -4.76 KCAL/MOL
REMARK 924 INTRA-LIGAND FREE ENERGY PREDICTED BY IDOCK:    0.02 KCAL/MOL
REMARK 927      BINDING AFFINITY PREDICTED BY RF-SCORE:    0.00 PKD
ROOT
HETATM    1  C   UNL     1     -11.203   7.970  71.066  1.00  0.00    -0.266 C  
HETATM    2  N   UNL     1     -10.166   7.026  70.660  1.00  0.00    -0.191 N  
HETATM    3  O   UNL     1     -11.127   5.263  71.783  1.00  0.00    -0.141 OA 
HETATM    4  C   UNL     1     -10.208   5.698  71.094  1.00  0.00    -0.220 C  
ENDROOT
BRANCH   2   5
HETATM    5  C   UNL     1      -9.148   7.543  69.798  1.00  0.00    -0.140 A  
HETATM    6  I   UNL     1     -11.152   6.603  67.633  1.00  0.00     0.102 I  
HETATM    7  C   UNL     1      -8.044   8.242  70.350  1.00  0.00    -0.108 A  
HETATM    8  C   UNL     1      -7.005   8.698  69.513  1.00  0.00    -0.048 A  
HETATM    9  C   UNL     1      -9.247   7.354  68.395  1.00  0.00    -0.138 A  
HETATM   10  I   UNL     1      -8.037   8.610  72.486  1.00  0.00     0.393 I  
HETATM   11  C   UNL     1      -8.184   7.735  67.537  1.00  0.00    -0.124 A  
HETATM   12  I   UNL     1      -5.223   8.558  66.958  1.00  0.00    -0.037 I  
HETATM   13  C   UNL     1      -7.047   8.359  68.125  1.00  0.00    -0.085 A  
BRANCH   8  14
HETATM   14  C   UNL     1      -5.970   9.662  70.003  1.00  0.00    -0.043 C  
HETATM   15  H   UNL     1      -4.481   9.839  71.274  1.00  0.00     0.000 HD 
HETATM   16  O   UNL     1      -5.138   9.228  70.963  1.00  0.00    -0.027 OA 
BRANCH  14  17
HETATM   17  N   UNL     1      -5.888  10.851  69.538  1.00  0.00    -0.041 NA 
HETATM   18  H   UNL     1      -4.981  11.295  69.393  1.00  0.00     0.000 HD 
BRANCH  17  19
HETATM   19  C   UNL     1      -7.135  11.564  69.218  1.00  0.00    -0.077 C  
BRANCH  19  20
HETATM   20  C   UNL     1      -6.798  12.961  68.682  1.00  0.00    -0.099 C  
HETATM   21  H   UNL     1      -5.661  13.722  67.264  1.00  0.00     0.000 HD 
HETATM   22  O   UNL     1      -5.870  12.857  67.597  1.00  0.00    -0.125 OA 
BRANCH  20  23
HETATM   23  C   UNL     1      -8.068  13.704  68.235  1.00  0.00    -0.155 C  
HETATM   24  O   UNL     1      -8.996  13.854  69.309  1.00  0.00    -0.317 OA 
HETATM   25  H   UNL     1      -9.781  14.314  69.033  1.00  0.00     0.000 HD 
ENDBRANCH  20  23
ENDBRANCH  19  20
ENDBRANCH  17  19
ENDBRANCH  14  17
ENDBRANCH   8  14
BRANCH  11  26
HETATM   26  C   UNL     1      -8.295   7.476  66.062  1.00  0.00    -0.136 C  
HETATM   27  O   UNL     1      -7.509   6.497  65.570  1.00  0.00    -0.077 OA 
HETATM   28  H   UNL     1      -7.579   6.332  64.636  1.00  0.00     0.000 HD 
BRANCH  26  29
HETATM   29  N   UNL     1      -9.036   8.174  65.284  1.00  0.00    -0.394 NA 
HETATM   30  H   UNL     1      -9.524   7.736  64.503  1.00  0.00     0.000 HD 
BRANCH  29  31
HETATM   31  C   UNL     1      -9.175   9.618  65.533  1.00  0.00    -0.234 C  
BRANCH  31  32
HETATM   32  C   UNL     1      -9.222  10.440  64.224  1.00  0.00    -0.255 C  
HETATM   33  O   UNL     1      -9.574   9.638  63.086  1.00  0.00    -0.530 OA 
HETATM   34  H   UNL     1      -9.603  10.143  62.281  1.00  0.00     0.000 HD 
BRANCH  32  35
HETATM   35  C   UNL     1     -10.256  11.573  64.344  1.00  0.00    -0.300 C  
HETATM   36  O   UNL     1      -9.770  12.811  63.825  1.00  0.00    -0.678 OA 
HETATM   37  H   UNL     1     -10.409  13.510  63.899  1.00  0.00     0.000 HD 
ENDBRANCH  32  35
ENDBRANCH  31  32
ENDBRANCH  29  31
ENDBRANCH  26  29
ENDBRANCH  11  26
ENDBRANCH   2   5
BRANCH   4  38
HETATM   38  C   UNL     1      -9.039   4.773  70.711  1.00  0.00    -0.130 C  
HETATM   39  O   UNL     1      -9.342   3.999  69.566  1.00  0.00    -0.139 OA 
HETATM   40  H   UNL     1      -8.620   3.427  69.329  1.00  0.00     0.000 HD 
ENDBRANCH   4  38
TORSDOF 12
ENDMDL
MODEL      182
REMARK 921   NORMALIZED FREE ENERGY PREDICTED BY IDOCK:   -2.12 KCAL/MOL
REMARK 922        TOTAL FREE ENERGY PREDICTED BY IDOCK:   -4.65 KCAL/MOL
REMARK 923 INTER-LIGAND FREE ENERGY PREDICTED BY IDOCK:   -3.98 KCAL/MOL
REMARK 924 INTRA-LIGAND FREE ENERGY PREDICTED BY IDOCK:   -0.67 KCAL/MOL
REMARK 927      BINDING AFFINITY PREDICTED BY RF-SCORE:    0.00 PKD
ROOT
HETATM    1  C   UNL     1     -11.862  10.338  71.611  1.00  0.00    -0.067 C  
HETATM    2  N   UNL     1     -11.214   9.370  70.731  1.00  0.00    -0.278 N  
HETATM    3  O   UNL     1     -13.009   7.930  70.753  1.00  0.00     0.058 OA 
HETATM    4  C   UNL     1     -11.866   8.184  70.382  1.00  0.00     0.096 C  
ENDROOT
BRANCH   2   5
HETATM    5  C   UNL     1      -9.913   9.726  70.255  1.00  0.00    -0.253 A  
HETATM    6  I   UNL     1      -9.073   7.625  72.369  1.00  0.00    -0.253 I  
HETATM    7  C   UNL     1      -9.782  10.585  69.135  1.00  0.00    -0.211 A  
HETATM    8  C   UNL     1      -8.503  10.991  68.700  1.00  0.00    -0.157 A  
HETATM    9  C   UNL     1      -8.759   9.218  70.908  1.00  0.00    -0.173 A  
HETATM   10  I   UNL     1     -11.589  11.204  68.109  1.00  0.00    -0.108 I  
HETATM   11  C   UNL     1      -7.465   9.666  70.541  1.00  0.00    -0.147 A  
HETATM   12  I   UNL     1      -5.490  11.652  69.150  1.00  0.00    -0.054 I  
HETATM   13  C   UNL     1      -7.364  10.595  69.466  1.00  0.00    -0.141 A  
BRANCH   8  14
HETATM   14  C   UNL     1      -8.303  11.666  67.379  1.00  0.00    -0.152 C  
HETATM   15  H   UNL     1      -8.406  13.416  66.489  1.00  0.00     0.000 HD 
HETATM   16  O   UNL     1      -8.534  12.988  67.327  1.00  0.00    -0.188 OA 
BRANCH  14  17
HETATM   17  N   UNL     1      -7.940  11.012  66.341  1.00  0.00    -0.160 NA 
HETATM   18  H   UNL     1      -7.024  10.564  66.299  1.00  0.00     0.000 HD 
BRANCH  17  19
HETATM   19  C   UNL     1      -8.875  10.922  65.208  1.00  0.00    -0.167 C  
BRANCH  19  20
HETATM   20  C   UNL     1      -8.933   9.473  64.712  1.00  0.00    -0.218 C  
HETATM   21  H   UNL     1      -7.831   8.292  63.585  1.00  0.00     0.000 HD 
HETATM   22  O   UNL     1      -7.794   9.190  63.893  1.00  0.00    -0.117 OA 
BRANCH  20  23
HETATM   23  C   UNL     1      -9.008   8.486  65.890  1.00  0.00    -0.189 C  
HETATM   24  O   UNL     1      -8.121   7.383  65.710  1.00  0.00    -0.114 OA 
HETATM   25  H   UNL     1      -8.167   6.773  66.438  1.00  0.00     0.000 HD 
ENDBRANCH  20  23
ENDBRANCH  19  20
ENDBRANCH  17  19
ENDBRANCH  14  17
ENDBRANCH   8  14
BRANCH  11  26
HETATM   26  C   UNL     1      -6.266   9.150  71.283  1.00  0.00    -0.073 C  
HETATM   27  O   UNL     1      -6.010   9.729  72.474  1.00  0.00    -0.292 OA 
HETATM   28  H   UNL     1      -5.251   9.403  72.944  1.00  0.00     0.000 HD 
BRANCH  26  29
HETATM   29  N   UNL     1      -5.478   8.260  70.804  1.00  0.00    -0.029 NA 
HETATM   30  H   UNL     1      -4.918   8.456  69.975  1.00  0.00     0.000 HD 
BRANCH  29  31
HETATM   31  C   UNL     1      -5.392   6.950  71.469  1.00  0.00    -0.028 C  
BRANCH  31  32
HETATM   32  C   UNL     1      -5.390   5.777  70.461  1.00  0.00    -0.009 C  
HETATM   33  O   UNL     1      -6.027   4.602  70.987  1.00  0.00    -0.016 OA 
HETATM   34  H   UNL     1      -6.026   3.881  70.369  1.00  0.00     0.000 HD 
BRANCH  32  35
HETATM   35  C   UNL     1      -6.130   6.180  69.174  1.00  0.00    -0.029 C  
HETATM   36  O   UNL     1      -7.548   6.188  69.340  1.00  0.00    -0.093 OA 
HETATM   37  H   UNL     1      -8.004   6.437  68.545  1.00  0.00     0.000 HD 
ENDBRANCH  32  35
ENDBRANCH  31  32
ENDBRANCH  29  31
ENDBRANCH  26  29
ENDBRANCH  11  26
ENDBRANCH   2   5
BRANCH   4  38
HETATM   38  C   UNL     1     -11.098   7.159  69.527  1.00  0.00    -0.141 C  
HETATM   39  O   UNL     1     -10.867   5.958  70.237  1.00  0.00    -0.284 OA 
HETATM   40  H   UNL     1     -10.392   5.325  69.709  1.00  0.00     0.000 HD 
ENDBRANCH   4  38
TORSDOF 12
ENDMDL
MODEL      183
REMARK 921   NORMALIZED FREE ENERGY PREDICTED BY IDOCK:   -1.99 KCAL/MOL
REMARK 922        TOTAL FREE ENERGY PREDICTED BY IDOCK:   -4.43 KCAL/MOL
REMARK 923 INTER-LIGAND FREE ENERGY PREDICTED BY IDOCK:   -6.26 KCAL/MOL
REMARK 924 INTRA-LIGAND FREE ENERGY PREDICTED BY IDOCK:    1.83 KCAL/MOL
REMARK 927      BINDING AFFINITY PREDICTED BY RF-SCORE:    0.00 PKD
ROOT
HETATM    1  C   UNL     1     -12.990   7.339  70.714  1.00  0.00     0.063 C  
HETATM    2  N   UNL     1     -11.682   7.967  70.872  1.00  0.00    -0.279 N  
HETATM    3  O   UNL     1     -11.396   7.170  73.011  1.00  0.00    -0.261 OA 
HETATM    4  C   UNL     1     -10.977   7.842  72.072  1.00  0.00    -0.274 C  
ENDROOT
BRANCH   2   5
HETATM    5  C   UNL     1     -11.187   8.682  69.736  1.00  0.00     0.016 A  
HETATM    6  I   UNL     1     -12.353  11.077  71.314  1.00  0.00    -0.169 I  
HETATM    7  C   UNL     1     -10.409   8.006  68.761  1.00  0.00    -0.206 A  
HETATM    8  C   UNL     1      -9.971   8.688  67.607  1.00  0.00    -0.248 A  
HETATM    9  C   UNL     1     -11.477  10.063  69.588  1.00  0.00    -0.155 A  
HETATM   10  I   UNL     1      -9.892   5.933  69.130  1.00  0.00    -0.264 I  
HETATM   11  C   UNL     1     -11.115  10.756  68.405  1.00  0.00    -0.323 A  
HETATM   12  I   UNL     1     -10.219  10.888  65.411  1.00  0.00    -0.285 I  
HETATM   13  C   UNL     1     -10.407  10.033  67.402  1.00  0.00    -0.238 A  
BRANCH   8  14
HETATM   14  C   UNL     1      -8.936   8.103  66.697  1.00  0.00    -0.152 C  
HETATM   15  H   UNL     1      -7.283   7.040  66.692  1.00  0.00     0.000 HD 
HETATM   16  O   UNL     1      -7.939   7.410  67.270  1.00  0.00    -0.111 OA 
BRANCH  14  17
HETATM   17  N   UNL     1      -8.991   8.267  65.429  1.00  0.00    -0.384 NA 
HETATM   18  H   UNL     1      -9.772   8.763  64.999  1.00  0.00     0.000 HD 
BRANCH  17  19
HETATM   19  C   UNL     1      -7.899   7.723  64.606  1.00  0.00    -0.130 C  
BRANCH  19  20
HETATM   20  C   UNL     1      -6.591   8.441  64.959  1.00  0.00    -0.063 C  
HETATM   21  H   UNL     1      -4.690   8.296  64.461  1.00  0.00     0.000 HD 
HETATM   22  O   UNL     1      -5.501   7.852  64.242  1.00  0.00    -0.039 OA 
BRANCH  20  23
HETATM   23  C   UNL     1      -6.685   9.946  64.654  1.00  0.00    -0.123 C  
HETATM   24  O   UNL     1      -6.613  10.206  63.253  1.00  0.00    -0.131 OA 
HETATM   25  H   UNL     1      -6.670  11.135  63.065  1.00  0.00     0.000 HD 
ENDBRANCH  20  23
ENDBRANCH  19  20
ENDBRANCH  17  19
ENDBRANCH  14  17
ENDBRANCH   8  14
BRANCH  11  26
HETATM   26  C   UNL     1     -11.480  12.205  68.255  1.00  0.00    -0.305 C  
HETATM   27  O   UNL     1     -12.493  12.478  67.406  1.00  0.00    -0.152 OA 
HETATM   28  H   UNL     1     -12.725  13.394  67.311  1.00  0.00     0.000 HD 
BRANCH  26  29
HETATM   29  N   UNL     1     -10.840  13.150  68.837  1.00  0.00    -0.333 NA 
HETATM   30  H   UNL     1     -10.001  12.949  69.380  1.00  0.00     0.000 HD 
BRANCH  29  31
HETATM   31  C   UNL     1     -11.333  14.531  68.709  1.00  0.00    -0.274 C  
BRANCH  31  32
HETATM   32  C   UNL     1     -10.183  15.555  68.564  1.00  0.00    -0.215 C  
HETATM   33  O   UNL     1     -10.523  16.841  69.106  1.00  0.00    -0.307 OA 
HETATM   34  H   UNL     1      -9.817  17.471  69.016  1.00  0.00     0.000 HD 
BRANCH  32  35
HETATM   35  C   UNL     1      -8.926  15.052  69.294  1.00  0.00    -0.158 C  
HETATM   36  O   UNL     1      -7.930  16.066  69.426  1.00  0.00    -0.236 OA 
HETATM   37  H   UNL     1      -7.154  15.755  69.877  1.00  0.00     0.000 HD 
ENDBRANCH  32  35
ENDBRANCH  31  32
ENDBRANCH  29  31
ENDBRANCH  26  29
ENDBRANCH  11  26
ENDBRANCH   2   5
BRANCH   4  38
HETATM   38  C   UNL     1      -9.646   8.602  72.213  1.00  0.00    -0.278 C  
HETATM   39  O   UNL     1      -8.985   8.275  73.421  1.00  0.00    -0.249 OA 
HETATM   40  H   UNL     1      -8.163   8.744  73.508  1.00  0.00     0.000 HD 
ENDBRANCH   4  38
TORSDOF 12
ENDMDL
MODEL      184
REMARK 921   NORMALIZED FREE ENERGY PREDICTED BY IDOCK:   -1.99 KCAL/MOL
REMARK 922        TOTAL FREE ENERGY PREDICTED BY IDOCK:   -4.43 KCAL/MOL
REMARK 923 INTER-LIGAND FREE ENERGY PREDICTED BY IDOCK:   -4.96 KCAL/MOL
REMARK 924 INTRA-LIGAND FREE ENERGY PREDICTED BY IDOCK:    0.53 KCAL/MOL
REMARK 927      BINDING AFFINITY PREDICTED BY RF-SCORE:    0.00 PKD
ROOT
HETATM    1  C   UNL     1      -7.949   9.386  68.991  1.00  0.00    -0.091 C  
HETATM    2  N   UNL     1      -7.200  10.166  68.010  1.00  0.00    -0.084 N  
HETATM    3  O   UNL     1      -5.693   8.476  67.603  1.00  0.00    -0.038 OA 
HETATM    4  C   UNL     1      -6.070   9.625  67.391  1.00  0.00    -0.059 C  
ENDROOT
BRANCH   2   5
HETATM    5  C   UNL     1      -7.705  11.474  67.729  1.00  0.00    -0.124 A  
HETATM    6  I   UNL     1      -9.665   9.836  65.978  1.00  0.00    -0.327 I  
HETATM    7  C   UNL     1      -7.203  12.593  68.441  1.00  0.00    -0.111 A  
HETATM    8  C   UNL     1      -7.650  13.893  68.125  1.00  0.00    -0.134 A  
HETATM    9  C   UNL     1      -8.706  11.647  66.738  1.00  0.00    -0.189 A  
HETATM   10  I   UNL     1      -5.778  12.230  70.035  1.00  0.00    -0.143 I  
HETATM   11  C   UNL     1      -9.120  12.946  66.347  1.00  0.00    -0.083 A  
HETATM   12  I   UNL     1      -8.784  16.050  66.181  1.00  0.00     0.165 I  
HETATM   13  C   UNL     1      -8.539  14.059  67.019  1.00  0.00    -0.174 A  
BRANCH   8  14
HETATM   14  C   UNL     1      -7.358  15.060  69.016  1.00  0.00    -0.151 C  
HETATM   15  H   UNL     1      -8.118  16.143  70.469  1.00  0.00     0.000 HD 
HETATM   16  O   UNL     1      -8.304  15.402  69.904  1.00  0.00    -0.134 OA 
BRANCH  14  17
HETATM   17  N   UNL     1      -6.260  15.712  68.926  1.00  0.00    -0.106 NA 
HETATM   18  H   UNL     1      -5.441  15.297  68.481  1.00  0.00     0.000 HD 
BRANCH  17  19
HETATM   19  C   UNL     1      -6.208  17.073  69.481  1.00  0.00    -0.237 C  
BRANCH  19  20
HETATM   20  C   UNL     1      -5.703  18.041  68.404  1.00  0.00    -0.173 C  
HETATM   21  H   UNL     1      -4.894  17.907  66.613  1.00  0.00     0.000 HD 
HETATM   22  O   UNL     1      -5.207  17.307  67.280  1.00  0.00    -0.118 OA 
BRANCH  20  23
HETATM   23  C   UNL     1      -6.814  19.012  67.966  1.00  0.00    -0.233 C  
HETATM   24  O   UNL     1      -8.025  18.786  68.685  1.00  0.00    -0.328 OA 
HETATM   25  H   UNL     1      -8.711  19.385  68.415  1.00  0.00     0.000 HD 
ENDBRANCH  20  23
ENDBRANCH  19  20
ENDBRANCH  17  19
ENDBRANCH  14  17
ENDBRANCH   8  14
BRANCH  11  26
HETATM   26  C   UNL     1     -10.145  13.099  65.259  1.00  0.00    -0.235 C  
HETATM   27  O   UNL     1      -9.703  13.621  64.096  1.00  0.00    -0.581 OA 
HETATM   28  H   UNL     1     -10.350  13.718  63.408  1.00  0.00     0.000 HD 
BRANCH  26  29
HETATM   29  N   UNL     1     -11.385  12.820  65.423  1.00  0.00    -0.294 NA 
HETATM   30  H   UNL     1     -11.712  12.410  66.297  1.00  0.00     0.000 HD 
BRANCH  29  31
HETATM   31  C   UNL     1     -12.331  13.101  64.332  1.00  0.00    -0.360 C  
BRANCH  31  32
HETATM   32  C   UNL     1     -13.009  14.483  64.481  1.00  0.00     0.461 C  
HETATM   33  O   UNL     1     -14.101  14.460  65.414  1.00  0.00     0.448 OA 
HETATM   34  H   UNL     1     -14.518  15.309  65.505  1.00  0.00     0.000 HD 
BRANCH  32  35
HETATM   35  C   UNL     1     -11.990  15.526  64.971  1.00  0.00     0.161 C  
HETATM   36  O   UNL     1     -11.636  16.462  63.953  1.00  0.00    -1.564 OA 
HETATM   37  H   UNL     1     -11.006  17.106  64.256  1.00  0.00     0.000 HD 
ENDBRANCH  32  35
ENDBRANCH  31  32
ENDBRANCH  29  31
ENDBRANCH  26  29
ENDBRANCH  11  26
ENDBRANCH   2   5
BRANCH   4  38
HETATM   38  C   UNL     1      -5.267  10.527  66.435  1.00  0.00    -0.058 C  
HETATM   39  O   UNL     1      -5.416  10.120  65.088  1.00  0.00    -0.064 OA 
HETATM   40  H   UNL     1      -4.921  10.677  64.498  1.00  0.00     0.000 HD 
ENDBRANCH   4  38
TORSDOF 12
ENDMDL
MODEL      185
REMARK 921   NORMALIZED FREE ENERGY PREDICTED BY IDOCK:   -1.98 KCAL/MOL
REMARK 922        TOTAL FREE ENERGY PREDICTED BY IDOCK:   -4.41 KCAL/MOL
REMARK 923 INTER-LIGAND FREE ENERGY PREDICTED BY IDOCK:   -3.80 KCAL/MOL
REMARK 924 INTRA-LIGAND FREE ENERGY PREDICTED BY IDOCK:   -0.61 KCAL/MOL
REMARK 927      BINDING AFFINITY PREDICTED BY RF-SCORE:    0.00 PKD
ROOT
HETATM    1  C   UNL     1      -7.874   5.556  64.808  1.00  0.00    -0.106 C  
HETATM    2  N   UNL     1      -8.726   5.870  65.951  1.00  0.00    -0.148 N  
HETATM    3  O   UNL     1     -10.526   4.706  65.115  1.00  0.00    -0.134 OA 
HETATM    4  C   UNL     1     -10.048   5.417  65.995  1.00  0.00    -0.075 C  
ENDROOT
BRANCH   2   5
HETATM    5  C   UNL     1      -8.119   6.637  66.995  1.00  0.00    -0.113 A  
HETATM    6  I   UNL     1      -7.447   3.805  68.052  1.00  0.00    -0.062 I  
HETATM    7  C   UNL     1      -8.037   8.048  66.878  1.00  0.00    -0.108 A  
HETATM    8  C   UNL     1      -7.497   8.815  67.931  1.00  0.00    -0.093 A  
HETATM    9  C   UNL     1      -7.604   5.982  68.144  1.00  0.00    -0.094 A  
HETATM   10  I   UNL     1      -8.720   8.958  65.032  1.00  0.00    -0.057 I  
HETATM   11  C   UNL     1      -7.124   6.731  69.249  1.00  0.00    -0.087 A  
HETATM   12  I   UNL     1      -6.839   9.352  70.931  1.00  0.00     0.025 I  
HETATM   13  C   UNL     1      -7.130   8.151  69.141  1.00  0.00    -0.061 A  
BRANCH   8  14
HETATM   14  C   UNL     1      -7.144  10.258  67.747  1.00  0.00    -0.085 C  
HETATM   15  H   UNL     1      -5.730  11.446  67.074  1.00  0.00     0.000 HD 
HETATM   16  O   UNL     1      -5.954  10.531  67.190  1.00  0.00    -0.052 OA 
BRANCH  14  17
HETATM   17  N   UNL     1      -7.937  11.193  68.116  1.00  0.00    -0.119 NA 
HETATM   18  H   UNL     1      -8.318  11.212  69.062  1.00  0.00     0.000 HD 
BRANCH  17  19
HETATM   19  C   UNL     1      -8.284  12.241  67.143  1.00  0.00    -0.179 C  
BRANCH  19  20
HETATM   20  C   UNL     1      -9.486  13.038  67.663  1.00  0.00    -0.201 C  
HETATM   21  H   UNL     1     -10.281  14.813  67.347  1.00  0.00     0.000 HD 
HETATM   22  O   UNL     1      -9.536  14.319  67.025  1.00  0.00    -0.239 OA 
BRANCH  20  23
HETATM   23  C   UNL     1     -10.801  12.272  67.436  1.00  0.00    -0.239 C  
HETATM   24  O   UNL     1     -10.984  11.937  66.061  1.00  0.00    -0.288 OA 
HETATM   25  H   UNL     1     -11.796  11.463  65.921  1.00  0.00     0.000 HD 
ENDBRANCH  20  23
ENDBRANCH  19  20
ENDBRANCH  17  19
ENDBRANCH  14  17
ENDBRANCH   8  14
BRANCH  11  26
HETATM   26  C   UNL     1      -6.632   6.012  70.472  1.00  0.00    -0.048 C  
HETATM   27  O   UNL     1      -5.356   5.573  70.430  1.00  0.00    -0.004 OA 
HETATM   28  H   UNL     1      -5.044   5.118  71.203  1.00  0.00     0.000 HD 
BRANCH  26  29
HETATM   29  N   UNL     1      -7.378   5.759  71.482  1.00  0.00    -0.085 NA 
HETATM   30  H   UNL     1      -7.890   6.508  71.947  1.00  0.00     0.000 HD 
BRANCH  29  31
HETATM   31  C   UNL     1      -7.488   4.372  71.961  1.00  0.00    -0.075 C  
BRANCH  31  32
HETATM   32  C   UNL     1      -8.953   3.878  72.006  1.00  0.00    -0.113 C  
HETATM   33  O   UNL     1      -9.198   2.806  71.083  1.00  0.00    -0.102 OA 
HETATM   34  H   UNL     1     -10.098   2.502  71.110  1.00  0.00     0.000 HD 
BRANCH  32  35
HETATM   35  C   UNL     1      -9.303   3.377  73.418  1.00  0.00    -0.100 C  
HETATM   36  O   UNL     1      -8.333   3.769  74.390  1.00  0.00    -0.084 OA 
HETATM   37  H   UNL     1      -8.549   3.459  75.262  1.00  0.00     0.000 HD 
ENDBRANCH  32  35
ENDBRANCH  31  32
ENDBRANCH  29  31
ENDBRANCH  26  29
ENDBRANCH  11  26
ENDBRANCH   2   5
BRANCH   4  38
HETATM   38  C   UNL     1     -10.926   5.857  67.181  1.00  0.00    -0.195 C  
HETATM   39  O   UNL     1     -11.650   7.035  66.883  1.00  0.00    -0.476 OA 
HETATM   40  H   UNL     1     -12.192   7.306  67.615  1.00  0.00     0.000 HD 
ENDBRANCH   4  38
TORSDOF 12
ENDMDL
MODEL      186
REMARK 921   NORMALIZED FREE ENERGY PREDICTED BY IDOCK:   -1.92 KCAL/MOL
REMARK 922        TOTAL FREE ENERGY PREDICTED BY IDOCK:   -4.30 KCAL/MOL
REMARK 923 INTER-LIGAND FREE ENERGY PREDICTED BY IDOCK:   -5.87 KCAL/MOL
REMARK 924 INTRA-LIGAND FREE ENERGY PREDICTED BY IDOCK:    1.57 KCAL/MOL
REMARK 927      BINDING AFFINITY PREDICTED BY RF-SCORE:    0.00 PKD
ROOT
HETATM    1  C   UNL     1      -9.832  15.630  65.450  1.00  0.00    -0.218 C  
HETATM    2  N   UNL     1      -9.715  15.071  66.794  1.00  0.00    -0.233 N  
HETATM    3  O   UNL     1     -10.665  16.910  67.798  1.00  0.00    -0.339 OA 
HETATM    4  C   UNL     1     -10.139  15.805  67.905  1.00  0.00    -0.230 C  
ENDROOT
BRANCH   2   5
HETATM    5  C   UNL     1      -9.167  13.752  66.881  1.00  0.00    -0.255 A  
HETATM    6  I   UNL     1     -11.972  13.016  65.795  1.00  0.00    -0.473 I  
HETATM    7  C   UNL     1      -7.798  13.577  67.205  1.00  0.00    -0.091 A  
HETATM    8  C   UNL     1      -7.266  12.279  67.355  1.00  0.00    -0.147 A  
HETATM    9  C   UNL     1      -9.997  12.626  66.644  1.00  0.00    -0.242 A  
HETATM   10  I   UNL     1      -6.566  15.349  67.415  1.00  0.00     0.226 I  
HETATM   11  C   UNL     1      -9.511  11.311  66.860  1.00  0.00    -0.193 A  
HETATM   12  I   UNL     1      -7.482   9.245  68.040  1.00  0.00    -0.082 I  
HETATM   13  C   UNL     1      -8.155  11.163  67.267  1.00  0.00    -0.137 A  
BRANCH   8  14
HETATM   14  C   UNL     1      -5.790  12.041  67.428  1.00  0.00    -0.125 C  
HETATM   15  H   UNL     1      -4.191  11.799  66.310  1.00  0.00     0.000 HD 
HETATM   16  O   UNL     1      -5.128  11.950  66.264  1.00  0.00    -0.338 OA 
BRANCH  14  17
HETATM   17  N   UNL     1      -5.187  11.915  68.550  1.00  0.00    -0.046 NA 
HETATM   18  H   UNL     1      -4.714  12.710  68.980  1.00  0.00     0.000 HD 
BRANCH  17  19
HETATM   19  C   UNL     1      -5.193  10.597  69.203  1.00  0.00    -0.041 C  
BRANCH  19  20
HETATM   20  C   UNL     1      -5.396  10.780  70.712  1.00  0.00    -0.105 C  
HETATM   21  H   UNL     1      -6.054  12.195  71.915  1.00  0.00     0.000 HD 
HETATM   22  O   UNL     1      -5.928  12.082  70.980  1.00  0.00    -0.342 OA 
BRANCH  20  23
HETATM   23  C   UNL     1      -6.322   9.692  71.283  1.00  0.00     0.021 C  
HETATM   24  O   UNL     1      -5.644   8.445  71.426  1.00  0.00    -0.033 OA 
HETATM   25  H   UNL     1      -6.216   7.773  71.779  1.00  0.00     0.000 HD 
ENDBRANCH  20  23
ENDBRANCH  19  20
ENDBRANCH  17  19
ENDBRANCH  14  17
ENDBRANCH   8  14
BRANCH  11  26
HETATM   26  C   UNL     1     -10.428  10.140  66.650  1.00  0.00    -0.185 C  
HETATM   27  O   UNL     1     -10.289   9.479  65.482  1.00  0.00    -0.238 OA 
HETATM   28  H   UNL     1     -10.868   8.738  65.348  1.00  0.00     0.000 HD 
BRANCH  26  29
HETATM   29  N   UNL     1     -11.340   9.808  67.486  1.00  0.00    -0.395 NA 
HETATM   30  H   UNL     1     -12.310  10.079  67.327  1.00  0.00     0.000 HD 
BRANCH  29  31
HETATM   31  C   UNL     1     -10.969   9.030  68.678  1.00  0.00     0.080 C  
BRANCH  31  32
HETATM   32  C   UNL     1     -10.882   9.906  69.950  1.00  0.00    -0.278 C  
HETATM   33  O   UNL     1     -12.173  10.171  70.522  1.00  0.00    -0.302 OA 
HETATM   34  H   UNL     1     -12.119  10.710  71.303  1.00  0.00     0.000 HD 
BRANCH  32  35
HETATM   35  C   UNL     1     -10.024   9.208  71.019  1.00  0.00    -0.297 C  
HETATM   36  O   UNL     1      -9.507   7.955  70.571  1.00  0.00    -0.162 OA 
HETATM   37  H   UNL     1      -8.978   7.524  71.231  1.00  0.00     0.000 HD 
ENDBRANCH  32  35
ENDBRANCH  31  32
ENDBRANCH  29  31
ENDBRANCH  26  29
ENDBRANCH  11  26
ENDBRANCH   2   5
BRANCH   4  38
HETATM   38  C   UNL     1      -9.907  15.204  69.303  1.00  0.00    -0.230 C  
HETATM   39  O   UNL     1     -10.656  14.019  69.491  1.00  0.00    -0.438 OA 
HETATM   40  H   UNL     1     -10.512  13.647  70.354  1.00  0.00     0.000 HD 
ENDBRANCH   4  38
TORSDOF 12
ENDMDL
MODEL      187
REMARK 921   NORMALIZED FREE ENERGY PREDICTED BY IDOCK:   -1.83 KCAL/MOL
REMARK 922        TOTAL FREE ENERGY PREDICTED BY IDOCK:   -4.16 KCAL/MOL
REMARK 923 INTER-LIGAND FREE ENERGY PREDICTED BY IDOCK:   -4.93 KCAL/MOL
REMARK 924 INTRA-LIGAND FREE ENERGY PREDICTED BY IDOCK:    0.77 KCAL/MOL
REMARK 927      BINDING AFFINITY PREDICTED BY RF-SCORE:    0.00 PKD
ROOT
HETATM    1  C   UNL     1      -8.317  12.724  66.928  1.00  0.00    -0.058 C  
HETATM    2  N   UNL     1      -9.397  11.923  66.360  1.00  0.00    -0.222 N  
HETATM    3  O   UNL     1     -10.152  13.631  65.016  1.00  0.00    -0.328 OA 
HETATM    4  C   UNL     1     -10.277  12.481  65.428  1.00  0.00    -0.283 C  
ENDROOT
BRANCH   2   5
HETATM    5  C   UNL     1      -9.472  10.565  66.803  1.00  0.00    -0.163 A  
HETATM    6  I   UNL     1      -7.621  10.150  64.356  1.00  0.00     0.017 I  
HETATM    7  C   UNL     1     -10.118  10.257  68.028  1.00  0.00    -0.162 A  
HETATM    8  C   UNL     1     -10.252   8.915  68.440  1.00  0.00    -0.231 A  
HETATM    9  C   UNL     1      -8.902   9.532  66.015  1.00  0.00    -0.156 A  
HETATM   10  I   UNL     1     -10.839  11.903  69.241  1.00  0.00     0.088 I  
HETATM   11  C   UNL     1      -9.086   8.170  66.365  1.00  0.00    -0.226 A  
HETATM   12  I   UNL     1     -10.508   5.853  67.910  1.00  0.00    -0.309 I  
HETATM   13  C   UNL     1      -9.811   7.882  67.556  1.00  0.00    -0.170 A  
BRANCH   8  14
HETATM   14  C   UNL     1     -10.676   8.561  69.831  1.00  0.00    -0.224 C  
HETATM   15  H   UNL     1     -12.259   8.388  70.984  1.00  0.00     0.000 HD 
HETATM   16  O   UNL     1     -11.990   8.613  70.101  1.00  0.00     0.143 OA 
BRANCH  14  17
HETATM   17  N   UNL     1      -9.824   8.235  70.728  1.00  0.00    -0.177 NA 
HETATM   18  H   UNL     1      -8.967   8.774  70.856  1.00  0.00     0.000 HD 
BRANCH  17  19
HETATM   19  C   UNL     1     -10.109   7.063  71.571  1.00  0.00    -0.187 C  
BRANCH  19  20
HETATM   20  C   UNL     1      -9.559   7.306  72.982  1.00  0.00    -0.175 C  
HETATM   21  H   UNL     1      -8.912   8.844  74.029  1.00  0.00     0.000 HD 
HETATM   22  O   UNL     1      -9.252   8.694  73.155  1.00  0.00    -0.235 OA 
BRANCH  20  23
HETATM   23  C   UNL     1     -10.557   6.837  74.055  1.00  0.00    -0.155 C  
HETATM   24  O   UNL     1     -10.491   5.426  74.255  1.00  0.00    -0.276 OA 
HETATM   25  H   UNL     1     -11.108   5.137  74.918  1.00  0.00     0.000 HD 
ENDBRANCH  20  23
ENDBRANCH  19  20
ENDBRANCH  17  19
ENDBRANCH  14  17
ENDBRANCH   8  14
BRANCH  11  26
HETATM   26  C   UNL     1      -8.514   7.096  65.483  1.00  0.00    -0.107 C  
HETATM   27  O   UNL     1      -7.924   6.060  66.115  1.00  0.00    -0.102 OA 
HETATM   28  H   UNL     1      -7.562   5.381  65.558  1.00  0.00     0.000 HD 
BRANCH  26  29
HETATM   29  N   UNL     1      -8.516   7.168  64.204  1.00  0.00    -0.342 NA 
HETATM   30  H   UNL     1      -8.837   8.015  63.734  1.00  0.00     0.000 HD 
BRANCH  29  31
HETATM   31  C   UNL     1      -8.047   6.014  63.422  1.00  0.00    -0.084 C  
BRANCH  31  32
HETATM   32  C   UNL     1      -6.525   6.065  63.150  1.00  0.00    -0.032 C  
HETATM   33  O   UNL     1      -5.861   7.065  63.939  1.00  0.00    -0.032 OA 
HETATM   34  H   UNL     1      -4.926   7.097  63.771  1.00  0.00     0.000 HD 
BRANCH  32  35
HETATM   35  C   UNL     1      -5.880   4.705  63.469  1.00  0.00    -0.017 C  
HETATM   36  O   UNL     1      -6.030   3.768  62.402  1.00  0.00    -0.012 OA 
HETATM   37  H   UNL     1      -5.633   2.928  62.599  1.00  0.00     0.000 HD 
ENDBRANCH  32  35
ENDBRANCH  31  32
ENDBRANCH  29  31
ENDBRANCH  26  29
ENDBRANCH  11  26
ENDBRANCH   2   5
BRANCH   4  38
HETATM   38  C   UNL     1     -11.451  11.617  64.934  1.00  0.00    -0.136 C  
HETATM   39  O   UNL     1     -12.670  12.336  64.952  1.00  0.00    -0.575 OA 
HETATM   40  H   UNL     1     -13.395  11.803  64.647  1.00  0.00     0.000 HD 
ENDBRANCH   4  38
TORSDOF 12
ENDMDL
MODEL      188
REMARK 921   NORMALIZED FREE ENERGY PREDICTED BY IDOCK:   -1.82 KCAL/MOL
REMARK 922        TOTAL FREE ENERGY PREDICTED BY IDOCK:   -4.14 KCAL/MOL
REMARK 923 INTER-LIGAND FREE ENERGY PREDICTED BY IDOCK:   -4.81 KCAL/MOL
REMARK 924 INTRA-LIGAND FREE ENERGY PREDICTED BY IDOCK:    0.67 KCAL/MOL
REMARK 927      BINDING AFFINITY PREDICTED BY RF-SCORE:    0.00 PKD
ROOT
HETATM    1  C   UNL     1     -10.958  10.185  71.044  1.00  0.00    -0.075 C  
HETATM    2  N   UNL     1     -10.978   8.743  70.818  1.00  0.00    -0.238 N  
HETATM    3  O   UNL     1     -13.231   8.561  71.243  1.00  0.00    -0.253 OA 
HETATM    4  C   UNL     1     -12.164   8.019  70.968  1.00  0.00    -0.185 C  
ENDROOT
BRANCH   2   5
HETATM    5  C   UNL     1      -9.735   8.151  70.427  1.00  0.00    -0.178 A  
HETATM    6  I   UNL     1     -10.395   9.627  67.786  1.00  0.00    -0.320 I  
HETATM    7  C   UNL     1      -8.946   7.468  71.387  1.00  0.00    -0.133 A  
HETATM    8  C   UNL     1      -7.752   6.828  70.996  1.00  0.00    -0.097 A  
HETATM    9  C   UNL     1      -9.299   8.249  69.080  1.00  0.00    -0.147 A  
HETATM   10  I   UNL     1      -9.612   7.483  73.450  1.00  0.00    -0.308 I  
HETATM   11  C   UNL     1      -8.144   7.553  68.642  1.00  0.00    -0.124 A  
HETATM   12  I   UNL     1      -5.919   5.374  68.934  1.00  0.00    -0.027 I  
HETATM   13  C   UNL     1      -7.413   6.804  69.607  1.00  0.00    -0.096 A  
BRANCH   8  14
HETATM   14  C   UNL     1      -6.761   6.334  72.003  1.00  0.00    -0.067 C  
HETATM   15  H   UNL     1      -6.385   4.835  73.218  1.00  0.00     0.000 HD 
HETATM   16  O   UNL     1      -7.014   5.148  72.579  1.00  0.00    -0.077 OA 
BRANCH  14  17
HETATM   17  N   UNL     1      -5.724   7.017  72.312  1.00  0.00    -0.038 NA 
HETATM   18  H   UNL     1      -4.811   6.789  71.918  1.00  0.00     0.000 HD 
BRANCH  17  19
HETATM   19  C   UNL     1      -5.880   8.138  73.252  1.00  0.00    -0.064 C  
BRANCH  19  20
HETATM   20  C   UNL     1      -5.464   9.442  72.559  1.00  0.00    -0.030 C  
HETATM   21  H   UNL     1      -6.207  10.641  71.184  1.00  0.00     0.000 HD 
HETATM   22  O   UNL     1      -6.465   9.833  71.613  1.00  0.00    -0.309 OA 
BRANCH  20  23
HETATM   23  C   UNL     1      -5.225  10.563  73.585  1.00  0.00     0.340 C  
HETATM   24  O   UNL     1      -5.152  11.844  72.959  1.00  0.00    -0.335 OA 
HETATM   25  H   UNL     1      -5.004  12.536  73.593  1.00  0.00     0.000 HD 
ENDBRANCH  20  23
ENDBRANCH  19  20
ENDBRANCH  17  19
ENDBRANCH  14  17
ENDBRANCH   8  14
BRANCH  11  26
HETATM   26  C   UNL     1      -7.735   7.634  67.199  1.00  0.00    -0.112 C  
HETATM   27  O   UNL     1      -7.480   8.870  66.722  1.00  0.00    -0.082 OA 
HETATM   28  H   UNL     1      -7.221   8.922  65.809  1.00  0.00     0.000 HD 
BRANCH  26  29
HETATM   29  N   UNL     1      -7.687   6.612  66.428  1.00  0.00    -0.100 NA 
HETATM   30  H   UNL     1      -6.799   6.146  66.241  1.00  0.00     0.000 HD 
BRANCH  29  31
HETATM   31  C   UNL     1      -8.931   6.118  65.817  1.00  0.00    -0.086 C  
BRANCH  31  32
HETATM   32  C   UNL     1      -9.097   4.588  65.972  1.00  0.00    -0.130 C  
HETATM   33  O   UNL     1      -9.084   4.173  67.347  1.00  0.00    -0.124 OA 
HETATM   34  H   UNL     1      -9.185   3.233  67.443  1.00  0.00     0.000 HD 
BRANCH  32  35
HETATM   35  C   UNL     1     -10.429   4.132  65.353  1.00  0.00    -0.105 C  
HETATM   36  O   UNL     1     -11.496   5.040  65.626  1.00  0.00    -0.821 OA 
HETATM   37  H   UNL     1     -12.319   4.759  65.244  1.00  0.00     0.000 HD 
ENDBRANCH  32  35
ENDBRANCH  31  32
ENDBRANCH  29  31
ENDBRANCH  26  29
ENDBRANCH  11  26
ENDBRANCH   2   5
BRANCH   4  38
HETATM   38  C   UNL     1     -12.105   6.489  70.807  1.00  0.00    -0.222 C  
HETATM   39  O   UNL     1     -11.839   5.846  72.039  1.00  0.00    -0.267 OA 
HETATM   40  H   UNL     1     -11.803   4.902  71.940  1.00  0.00     0.000 HD 
ENDBRANCH   4  38
TORSDOF 12
ENDMDL
MODEL      189
REMARK 921   NORMALIZED FREE ENERGY PREDICTED BY IDOCK:   -1.81 KCAL/MOL
REMARK 922        TOTAL FREE ENERGY PREDICTED BY IDOCK:   -4.12 KCAL/MOL
REMARK 923 INTER-LIGAND FREE ENERGY PREDICTED BY IDOCK:   -4.66 KCAL/MOL
REMARK 924 INTRA-LIGAND FREE ENERGY PREDICTED BY IDOCK:    0.54 KCAL/MOL
REMARK 927      BINDING AFFINITY PREDICTED BY RF-SCORE:    0.00 PKD
ROOT
HETATM    1  C   UNL     1     -11.029  13.916  69.374  1.00  0.00    -0.126 C  
HETATM    2  N   UNL     1     -11.090  13.059  68.193  1.00  0.00    -0.243 N  
HETATM    3  O   UNL     1     -12.723  14.325  67.181  1.00  0.00     0.043 OA 
HETATM    4  C   UNL     1     -11.992  13.338  67.163  1.00  0.00    -0.348 C  
ENDROOT
BRANCH   2   5
HETATM    5  C   UNL     1     -10.175  11.960  68.166  1.00  0.00    -0.199 A  
HETATM    6  I   UNL     1      -8.586  13.927  66.379  1.00  0.00     1.008 I  
HETATM    7  C   UNL     1     -10.406  10.829  68.991  1.00  0.00    -0.215 A  
HETATM    8  C   UNL     1      -9.543   9.716  68.922  1.00  0.00    -0.161 A  
HETATM    9  C   UNL     1      -9.042  12.006  67.313  1.00  0.00    -0.178 A  
HETATM   10  I   UNL     1     -12.081  10.896  70.366  1.00  0.00    -0.483 I  
HETATM   11  C   UNL     1      -8.200  10.873  67.168  1.00  0.00    -0.126 A  
HETATM   12  I   UNL     1      -7.545   7.828  67.450  1.00  0.00    -0.108 I  
HETATM   13  C   UNL     1      -8.501   9.718  67.944  1.00  0.00    -0.125 A  
BRANCH   8  14
HETATM   14  C   UNL     1      -9.586   8.628  69.950  1.00  0.00    -0.172 C  
HETATM   15  H   UNL     1      -9.452   8.301  71.884  1.00  0.00     0.000 HD 
HETATM   16  O   UNL     1      -9.425   8.991  71.232  1.00  0.00    -0.247 OA 
BRANCH  14  17
HETATM   17  N   UNL     1      -9.755   7.402  69.620  1.00  0.00    -0.163 NA 
HETATM   18  H   UNL     1     -10.126   7.154  68.703  1.00  0.00     0.000 HD 
BRANCH  17  19
HETATM   19  C   UNL     1      -9.401   6.361  70.597  1.00  0.00    -0.162 C  
BRANCH  19  20
HETATM   20  C   UNL     1      -9.795   4.988  70.041  1.00  0.00    -0.228 C  
HETATM   21  H   UNL     1     -10.646   4.287  68.408  1.00  0.00     0.000 HD 
HETATM   22  O   UNL     1     -10.402   5.138  68.752  1.00  0.00    -0.166 OA 
BRANCH  20  23
HETATM   23  C   UNL     1      -8.577   4.052  69.957  1.00  0.00    -0.065 C  
HETATM   24  O   UNL     1      -7.350   4.773  70.070  1.00  0.00    -0.052 OA 
HETATM   25  H   UNL     1      -6.598   4.195  70.018  1.00  0.00     0.000 HD 
ENDBRANCH  20  23
ENDBRANCH  19  20
ENDBRANCH  17  19
ENDBRANCH  14  17
ENDBRANCH   8  14
BRANCH  11  26
HETATM   26  C   UNL     1      -7.037  10.933  66.220  1.00  0.00    -0.119 C  
HETATM   27  O   UNL     1      -7.206  10.316  65.032  1.00  0.00    -0.136 OA 
HETATM   28  H   UNL     1      -6.470  10.353  64.432  1.00  0.00     0.000 HD 
BRANCH  26  29
HETATM   29  N   UNL     1      -5.916  11.475  66.523  1.00  0.00    -0.267 NA 
HETATM   30  H   UNL     1      -5.575  12.283  66.002  1.00  0.00     0.000 HD 
BRANCH  29  31
HETATM   31  C   UNL     1      -5.128  10.916  67.632  1.00  0.00    -0.036 C  
BRANCH  31  32
HETATM   32  C   UNL     1      -5.192  11.797  68.902  1.00  0.00    -0.050 C  
HETATM   33  O   UNL     1      -6.062  12.928  68.741  1.00  0.00    -0.067 OA 
HETATM   34  H   UNL     1      -6.101  13.469  69.521  1.00  0.00     0.000 HD 
BRANCH  32  35
HETATM   35  C   UNL     1      -5.703  10.972  70.096  1.00  0.00    -0.104 C  
HETATM   36  O   UNL     1      -6.192  11.794  71.156  1.00  0.00    -0.385 OA 
HETATM   37  H   UNL     1      -6.508  11.285  71.894  1.00  0.00     0.000 HD 
ENDBRANCH  32  35
ENDBRANCH  31  32
ENDBRANCH  29  31
ENDBRANCH  26  29
ENDBRANCH  11  26
ENDBRANCH   2   5
BRANCH   4  38
HETATM   38  C   UNL     1     -12.077  12.348  65.986  1.00  0.00    -0.254 C  
HETATM   39  O   UNL     1     -13.120  12.689  65.094  1.00  0.00    -0.726 OA 
HETATM   40  H   UNL     1     -13.172  12.078  64.367  1.00  0.00     0.000 HD 
ENDBRANCH   4  38
TORSDOF 12
ENDMDL
MODEL      190
REMARK 921   NORMALIZED FREE ENERGY PREDICTED BY IDOCK:   -1.73 KCAL/MOL
REMARK 922        TOTAL FREE ENERGY PREDICTED BY IDOCK:   -3.99 KCAL/MOL
REMARK 923 INTER-LIGAND FREE ENERGY PREDICTED BY IDOCK:   -5.01 KCAL/MOL
REMARK 924 INTRA-LIGAND FREE ENERGY PREDICTED BY IDOCK:    1.03 KCAL/MOL
REMARK 927      BINDING AFFINITY PREDICTED BY RF-SCORE:    0.00 PKD
ROOT
HETATM    1  C   UNL     1      -9.928  16.092  66.678  1.00  0.00    -0.267 C  
HETATM    2  N   UNL     1     -10.409  15.107  67.643  1.00  0.00    -0.246 N  
HETATM    3  O   UNL     1     -11.959  16.543  68.553  1.00  0.00     0.057 OA 
HETATM    4  C   UNL     1     -11.413  15.443  68.555  1.00  0.00    -0.350 C  
ENDROOT
BRANCH   2   5
HETATM    5  C   UNL     1      -9.807  13.812  67.572  1.00  0.00    -0.230 A  
HETATM    6  I   UNL     1     -12.151  13.339  65.605  1.00  0.00    -0.524 I  
HETATM    7  C   UNL     1      -8.566  13.574  68.217  1.00  0.00    -0.168 A  
HETATM    8  C   UNL     1      -7.998  12.284  68.206  1.00  0.00    -0.163 A  
HETATM    9  C   UNL     1     -10.454  12.770  66.858  1.00  0.00    -0.240 A  
HETATM   10  I   UNL     1      -7.574  15.252  69.166  1.00  0.00    -0.216 I  
HETATM   11  C   UNL     1      -9.946  11.446  66.892  1.00  0.00    -0.235 A  
HETATM   12  I   UNL     1      -8.159   9.172  68.082  1.00  0.00    -0.103 I  
HETATM   13  C   UNL     1      -8.743  11.215  67.617  1.00  0.00    -0.129 A  
BRANCH   8  14
HETATM   14  C   UNL     1      -6.583  12.047  68.631  1.00  0.00    -0.075 C  
HETATM   15  H   UNL     1      -4.762  12.770  68.470  1.00  0.00     0.000 HD 
HETATM   16  O   UNL     1      -5.660  12.921  68.200  1.00  0.00    -0.071 OA 
BRANCH  14  17
HETATM   17  N   UNL     1      -6.263  11.048  69.364  1.00  0.00    -0.061 NA 
HETATM   18  H   UNL     1      -6.346  10.093  69.013  1.00  0.00     0.000 HD 
BRANCH  17  19
HETATM   19  C   UNL     1      -5.771  11.309  70.726  1.00  0.00    -0.083 C  
BRANCH  19  20
HETATM   20  C   UNL     1      -5.830  10.013  71.545  1.00  0.00     0.091 C  
HETATM   21  H   UNL     1      -5.256   8.142  71.320  1.00  0.00     0.000 HD 
HETATM   22  O   UNL     1      -5.219   8.945  70.813  1.00  0.00    -0.027 OA 
BRANCH  20  23
HETATM   23  C   UNL     1      -5.148  10.189  72.912  1.00  0.00     0.063 C  
HETATM   24  O   UNL     1      -5.333   9.045  73.745  1.00  0.00    -0.101 OA 
HETATM   25  H   UNL     1      -4.911   9.154  74.589  1.00  0.00     0.000 HD 
ENDBRANCH  20  23
ENDBRANCH  19  20
ENDBRANCH  17  19
ENDBRANCH  14  17
ENDBRANCH   8  14
BRANCH  11  26
HETATM   26  C   UNL     1     -10.680  10.353  66.169  1.00  0.00    -0.006 C  
HETATM   27  O   UNL     1     -11.532   9.617  66.913  1.00  0.00     0.140 OA 
HETATM   28  H   UNL     1     -11.997   8.925  66.456  1.00  0.00     0.000 HD 
BRANCH  26  29
HETATM   29  N   UNL     1     -10.479  10.074  64.935  1.00  0.00    -0.089 NA 
HETATM   30  H   UNL     1     -11.143   9.496  64.421  1.00  0.00     0.000 HD 
BRANCH  29  31
HETATM   31  C   UNL     1      -9.277  10.601  64.269  1.00  0.00    -0.233 C  
BRANCH  31  32
HETATM   32  C   UNL     1      -8.034   9.713  64.511  1.00  0.00    -0.140 C  
HETATM   33  O   UNL     1      -8.357   8.314  64.541  1.00  0.00    -0.254 OA 
HETATM   34  H   UNL     1      -7.593   7.769  64.690  1.00  0.00     0.000 HD 
BRANCH  32  35
HETATM   35  C   UNL     1      -6.997   9.935  63.396  1.00  0.00    -0.124 C  
HETATM   36  O   UNL     1      -5.996  10.885  63.764  1.00  0.00    -0.374 OA 
HETATM   37  H   UNL     1      -5.357  11.022  63.075  1.00  0.00     0.000 HD 
ENDBRANCH  32  35
ENDBRANCH  31  32
ENDBRANCH  29  31
ENDBRANCH  26  29
ENDBRANCH  11  26
ENDBRANCH   2   5
BRANCH   4  38
HETATM   38  C   UNL     1     -11.815  14.395  69.608  1.00  0.00    -0.321 C  
HETATM   39  O   UNL     1     -12.957  14.801  70.338  1.00  0.00    -0.534 OA 
HETATM   40  H   UNL     1     -13.206  14.154  70.988  1.00  0.00     0.000 HD 
ENDBRANCH   4  38
TORSDOF 12
ENDMDL
MODEL      191
REMARK 921   NORMALIZED FREE ENERGY PREDICTED BY IDOCK:   -1.63 KCAL/MOL
REMARK 922        TOTAL FREE ENERGY PREDICTED BY IDOCK:   -3.81 KCAL/MOL
REMARK 923 INTER-LIGAND FREE ENERGY PREDICTED BY IDOCK:   -5.32 KCAL/MOL
REMARK 924 INTRA-LIGAND FREE ENERGY PREDICTED BY IDOCK:    1.51 KCAL/MOL
REMARK 927      BINDING AFFINITY PREDICTED BY RF-SCORE:    0.00 PKD
ROOT
HETATM    1  C   UNL     1     -11.074  13.649  70.162  1.00  0.00     0.347 C  
HETATM    2  N   UNL     1     -11.123  12.902  68.908  1.00  0.00    -0.254 N  
HETATM    3  O   UNL     1     -12.453  14.461  67.863  1.00  0.00    -0.092 OA 
HETATM    4  C   UNL     1     -11.863  13.385  67.825  1.00  0.00    -0.358 C  
ENDROOT
BRANCH   2   5
HETATM    5  C   UNL     1     -10.365  11.689  68.869  1.00  0.00    -0.153 A  
HETATM    6  I   UNL     1      -8.315  13.558  67.493  1.00  0.00    -0.184 I  
HETATM    7  C   UNL     1     -10.846  10.535  69.538  1.00  0.00    -0.256 A  
HETATM    8  C   UNL     1     -10.137   9.319  69.451  1.00  0.00    -0.200 A  
HETATM    9  C   UNL     1      -9.136  11.647  68.161  1.00  0.00    -0.183 A  
HETATM   10  I   UNL     1     -12.659  10.721  70.713  1.00  0.00    -0.424 I  
HETATM   11  C   UNL     1      -8.440  10.422  67.994  1.00  0.00    -0.119 A  
HETATM   12  I   UNL     1      -8.235   7.301  68.025  1.00  0.00    -0.119 I  
HETATM   13  C   UNL     1      -8.988   9.258  68.604  1.00  0.00    -0.132 A  
BRANCH   8  14
HETATM   14  C   UNL     1     -10.454   8.162  70.347  1.00  0.00    -0.215 C  
HETATM   15  H   UNL     1     -11.382   6.430  70.390  1.00  0.00     0.000 HD 
HETATM   16  O   UNL     1     -11.182   7.164  69.822  1.00  0.00    -0.243 OA 
BRANCH  14  17
HETATM   17  N   UNL     1     -10.059   8.130  71.564  1.00  0.00    -0.180 NA 
HETATM   18  H   UNL     1     -10.718   7.955  72.323  1.00  0.00     0.000 HD 
BRANCH  17  19
HETATM   19  C   UNL     1      -8.631   8.352  71.842  1.00  0.00    -0.186 C  
BRANCH  19  20
HETATM   20  C   UNL     1      -8.113   7.236  72.758  1.00  0.00    -0.106 C  
HETATM   21  H   UNL     1      -6.363   6.595  73.397  1.00  0.00     0.000 HD 
HETATM   22  O   UNL     1      -6.684   7.287  72.830  1.00  0.00    -0.063 OA 
BRANCH  20  23
HETATM   23  C   UNL     1      -8.728   7.342  74.164  1.00  0.00    -0.224 C  
HETATM   24  O   UNL     1      -9.893   6.528  74.293  1.00  0.00    -0.250 OA 
HETATM   25  H   UNL     1     -10.272   6.594  75.161  1.00  0.00     0.000 HD 
ENDBRANCH  20  23
ENDBRANCH  19  20
ENDBRANCH  17  19
ENDBRANCH  14  17
ENDBRANCH   8  14
BRANCH  11  26
HETATM   26  C   UNL     1      -7.168  10.398  67.196  1.00  0.00    -0.091 C  
HETATM   27  O   UNL     1      -7.013  11.389  66.294  1.00  0.00    -0.335 OA 
HETATM   28  H   UNL     1      -6.208  11.374  65.789  1.00  0.00     0.000 HD 
BRANCH  26  29
HETATM   29  N   UNL     1      -6.296   9.465  67.300  1.00  0.00    -0.061 NA 
HETATM   30  H   UNL     1      -6.379   8.758  68.030  1.00  0.00     0.000 HD 
BRANCH  29  31
HETATM   31  C   UNL     1      -5.173   9.426  66.350  1.00  0.00    -0.043 C  
BRANCH  31  32
HETATM   32  C   UNL     1      -5.567   8.788  64.997  1.00  0.00    -0.047 C  
HETATM   33  O   UNL     1      -6.964   8.460  64.933  1.00  0.00    -0.073 OA 
HETATM   34  H   UNL     1      -7.206   8.067  64.102  1.00  0.00     0.000 HD 
BRANCH  32  35
HETATM   35  C   UNL     1      -5.254   9.755  63.842  1.00  0.00    -0.074 C  
HETATM   36  O   UNL     1      -6.316  10.678  63.602  1.00  0.00    -0.351 OA 
HETATM   37  H   UNL     1      -6.123  11.275  62.888  1.00  0.00     0.000 HD 
ENDBRANCH  32  35
ENDBRANCH  31  32
ENDBRANCH  29  31
ENDBRANCH  26  29
ENDBRANCH  11  26
ENDBRANCH   2   5
BRANCH   4  38
HETATM   38  C   UNL     1     -11.952  12.510  66.561  1.00  0.00    -0.296 C  
HETATM   39  O   UNL     1     -11.930  13.294  65.383  1.00  0.00    -0.352 OA 
HETATM   40  H   UNL     1     -11.985  12.754  64.603  1.00  0.00     0.000 HD 
ENDBRANCH   4  38
TORSDOF 12
ENDMDL
MODEL      192
REMARK 921   NORMALIZED FREE ENERGY PREDICTED BY IDOCK:   -1.56 KCAL/MOL
REMARK 922        TOTAL FREE ENERGY PREDICTED BY IDOCK:   -3.69 KCAL/MOL
REMARK 923 INTER-LIGAND FREE ENERGY PREDICTED BY IDOCK:   -2.98 KCAL/MOL
REMARK 924 INTRA-LIGAND FREE ENERGY PREDICTED BY IDOCK:   -0.70 KCAL/MOL
REMARK 927      BINDING AFFINITY PREDICTED BY RF-SCORE:    0.00 PKD
ROOT
HETATM    1  C   UNL     1     -11.002   7.486  71.464  1.00  0.00    -0.229 C  
HETATM    2  N   UNL     1      -9.936   6.597  71.012  1.00  0.00    -0.183 N  
HETATM    3  O   UNL     1     -10.774   4.779  72.144  1.00  0.00    -0.174 OA 
HETATM    4  C   UNL     1      -9.900   5.265  71.431  1.00  0.00    -0.174 C  
ENDROOT
BRANCH   2   5
HETATM    5  C   UNL     1      -8.973   7.172  70.123  1.00  0.00    -0.145 A  
HETATM    6  I   UNL     1     -10.874   5.941  68.011  1.00  0.00     0.102 I  
HETATM    7  C   UNL     1      -7.943   7.999  70.638  1.00  0.00    -0.096 A  
HETATM    8  C   UNL     1      -6.953   8.517  69.777  1.00  0.00    -0.047 A  
HETATM    9  C   UNL     1      -9.052   6.909  68.731  1.00  0.00    -0.133 A  
HETATM   10  I   UNL     1      -7.973   8.465  72.755  1.00  0.00     0.060 I  
HETATM   11  C   UNL     1      -8.031   7.353  67.852  1.00  0.00    -0.119 A  
HETATM   12  I   UNL     1      -5.165   8.434  67.224  1.00  0.00    -0.034 I  
HETATM   13  C   UNL     1      -6.961   8.112  68.406  1.00  0.00    -0.073 A  
BRANCH   8  14
HETATM   14  C   UNL     1      -6.018   9.598  70.219  1.00  0.00    -0.054 C  
HETATM   15  H   UNL     1      -4.560   9.982  71.481  1.00  0.00     0.000 HD 
HETATM   16  O   UNL     1      -5.154   9.296  71.200  1.00  0.00    -0.028 OA 
BRANCH  14  17
HETATM   17  N   UNL     1      -6.047  10.765  69.693  1.00  0.00    -0.059 NA 
HETATM   18  H   UNL     1      -5.196  11.198  69.333  1.00  0.00     0.000 HD 
BRANCH  17  19
HETATM   19  C   UNL     1      -7.338  11.467  69.621  1.00  0.00     0.171 C  
BRANCH  19  20
HETATM   20  C   UNL     1      -7.208  12.673  68.683  1.00  0.00    -0.108 C  
HETATM   21  H   UNL     1      -6.009  14.225  68.492  1.00  0.00     0.000 HD 
HETATM   22  O   UNL     1      -6.089  13.477  69.073  1.00  0.00    -0.077 OA 
BRANCH  20  23
HETATM   23  C   UNL     1      -7.065  12.225  67.218  1.00  0.00    -0.138 C  
HETATM   24  O   UNL     1      -5.703  12.241  66.793  1.00  0.00    -0.430 OA 
HETATM   25  H   UNL     1      -5.614  11.964  65.889  1.00  0.00     0.000 HD 
ENDBRANCH  20  23
ENDBRANCH  19  20
ENDBRANCH  17  19
ENDBRANCH  14  17
ENDBRANCH   8  14
BRANCH  11  26
HETATM   26  C   UNL     1      -8.116   7.017  66.390  1.00  0.00    -0.112 C  
HETATM   27  O   UNL     1      -8.889   7.828  65.638  1.00  0.00    -0.282 OA 
HETATM   28  H   UNL     1      -8.942   7.616  64.713  1.00  0.00     0.000 HD 
BRANCH  26  29
HETATM   29  N   UNL     1      -7.551   5.989  65.876  1.00  0.00    -0.085 NA 
HETATM   30  H   UNL     1      -6.560   6.008  65.637  1.00  0.00     0.000 HD 
BRANCH  29  31
HETATM   31  C   UNL     1      -8.352   4.778  65.636  1.00  0.00    -0.118 C  
BRANCH  31  32
HETATM   32  C   UNL     1      -7.919   3.597  66.536  1.00  0.00    -0.089 C  
HETATM   33  O   UNL     1      -8.443   2.340  66.081  1.00  0.00    -0.091 OA 
HETATM   34  H   UNL     1      -8.178   1.615  66.634  1.00  0.00     0.000 HD 
BRANCH  32  35
HETATM   35  C   UNL     1      -6.385   3.487  66.569  1.00  0.00    -0.036 C  
HETATM   36  O   UNL     1      -5.804   4.270  67.611  1.00  0.00    -0.021 OA 
HETATM   37  H   UNL     1      -4.857   4.202  67.631  1.00  0.00     0.000 HD 
ENDBRANCH  32  35
ENDBRANCH  31  32
ENDBRANCH  29  31
ENDBRANCH  26  29
ENDBRANCH  11  26
ENDBRANCH   2   5
BRANCH   4  38
HETATM   38  C   UNL     1      -8.703   4.400  70.997  1.00  0.00    -0.104 C  
HETATM   39  O   UNL     1      -7.688   4.383  71.983  1.00  0.00    -0.077 OA 
HETATM   40  H   UNL     1      -6.949   3.849  71.715  1.00  0.00     0.000 HD 
ENDBRANCH   4  38
TORSDOF 12
ENDMDL
MODEL      193
REMARK 921   NORMALIZED FREE ENERGY PREDICTED BY IDOCK:   -1.51 KCAL/MOL
REMARK 922        TOTAL FREE ENERGY PREDICTED BY IDOCK:   -3.60 KCAL/MOL
REMARK 923 INTER-LIGAND FREE ENERGY PREDICTED BY IDOCK:   -3.87 KCAL/MOL
REMARK 924 INTRA-LIGAND FREE ENERGY PREDICTED BY IDOCK:    0.27 KCAL/MOL
REMARK 927      BINDING AFFINITY PREDICTED BY RF-SCORE:    0.00 PKD
ROOT
HETATM    1  C   UNL     1      -7.787   9.575  70.355  1.00  0.00    -0.172 C  
HETATM    2  N   UNL     1      -7.097  10.071  69.169  1.00  0.00    -0.064 N  
HETATM    3  O   UNL     1      -5.597  11.320  70.387  1.00  0.00    -0.104 OA 
HETATM    4  C   UNL     1      -6.027  10.962  69.294  1.00  0.00    -0.044 C  
ENDROOT
BRANCH   2   5
HETATM    5  C   UNL     1      -7.572   9.579  67.913  1.00  0.00    -0.087 A  
HETATM    6  I   UNL     1      -5.721   7.213  68.664  1.00  0.00    -0.024 I  
HETATM    7  C   UNL     1      -8.599  10.275  67.225  1.00  0.00    -0.125 A  
HETATM    8  C   UNL     1      -9.028   9.832  65.957  1.00  0.00    -0.186 A  
HETATM    9  C   UNL     1      -7.014   8.397  67.360  1.00  0.00    -0.071 A  
HETATM   10  I   UNL     1      -9.495  11.992  68.200  1.00  0.00    -0.157 I  
HETATM   11  C   UNL     1      -7.372   7.969  66.056  1.00  0.00    -0.073 A  
HETATM   12  I   UNL     1      -8.604   8.407  63.215  1.00  0.00     0.556 I  
HETATM   13  C   UNL     1      -8.344   8.734  65.350  1.00  0.00    -0.151 A  
BRANCH   8  14
HETATM   14  C   UNL     1     -10.275  10.363  65.322  1.00  0.00    -0.262 C  
HETATM   15  H   UNL     1     -12.214  10.536  65.593  1.00  0.00     0.000 HD 
HETATM   16  O   UNL     1     -11.423  10.198  65.997  1.00  0.00     0.768 OA 
BRANCH  14  17
HETATM   17  N   UNL     1     -10.251  10.939  64.179  1.00  0.00    -0.341 NA 
HETATM   18  H   UNL     1     -10.112  10.399  63.324  1.00  0.00     0.000 HD 
BRANCH  17  19
HETATM   19  C   UNL     1     -10.428  12.399  64.127  1.00  0.00    -0.389 C  
BRANCH  19  20
HETATM   20  C   UNL     1     -11.766  12.724  63.453  1.00  0.00    -0.488 C  
HETATM   21  H   UNL     1     -13.500  11.827  63.188  1.00  0.00     0.000 HD 
HETATM   22  O   UNL     1     -12.671  11.625  63.606  1.00  0.00    -0.400 OA 
BRANCH  20  23
HETATM   23  C   UNL     1     -12.380  14.011  64.032  1.00  0.00    -0.298 C  
HETATM   24  O   UNL     1     -13.168  13.744  65.191  1.00  0.00    -0.757 OA 
HETATM   25  H   UNL     1     -13.547  14.539  65.548  1.00  0.00     0.000 HD 
ENDBRANCH  20  23
ENDBRANCH  19  20
ENDBRANCH  17  19
ENDBRANCH  14  17
ENDBRANCH   8  14
BRANCH  11  26
HETATM   26  C   UNL     1      -6.727   6.743  65.477  1.00  0.00    -0.051 C  
HETATM   27  O   UNL     1      -5.445   6.878  65.078  1.00  0.00    -0.026 OA 
HETATM   28  H   UNL     1      -5.036   6.102  64.711  1.00  0.00     0.000 HD 
BRANCH  26  29
HETATM   29  N   UNL     1      -7.355   5.640  65.301  1.00  0.00    -0.070 NA 
HETATM   30  H   UNL     1      -8.163   5.598  64.681  1.00  0.00     0.000 HD 
BRANCH  29  31
HETATM   31  C   UNL     1      -6.894   4.434  66.007  1.00  0.00    -0.058 C  
BRANCH  31  32
HETATM   32  C   UNL     1      -7.715   3.179  65.628  1.00  0.00    -0.081 C  
HETATM   33  O   UNL     1      -7.290   2.009  66.344  1.00  0.00    -0.058 OA 
HETATM   34  H   UNL     1      -7.794   1.238  66.111  1.00  0.00     0.000 HD 
BRANCH  32  35
HETATM   35  C   UNL     1      -9.205   3.406  65.934  1.00  0.00    -0.156 C  
HETATM   36  O   UNL     1      -9.542   3.072  67.280  1.00  0.00    -0.370 OA 
HETATM   37  H   UNL     1     -10.462   3.212  67.469  1.00  0.00     0.000 HD 
ENDBRANCH  32  35
ENDBRANCH  31  32
ENDBRANCH  29  31
ENDBRANCH  26  29
ENDBRANCH  11  26
ENDBRANCH   2   5
BRANCH   4  38
HETATM   38  C   UNL     1      -5.397  11.523  68.006  1.00  0.00    -0.044 C  
HETATM   39  O   UNL     1      -5.523  12.930  67.935  1.00  0.00    -0.091 OA 
HETATM   40  H   UNL     1      -5.134  13.277  67.140  1.00  0.00     0.000 HD 
ENDBRANCH   4  38
TORSDOF 12
ENDMDL
MODEL      194
REMARK 921   NORMALIZED FREE ENERGY PREDICTED BY IDOCK:   -1.49 KCAL/MOL
REMARK 922        TOTAL FREE ENERGY PREDICTED BY IDOCK:   -3.57 KCAL/MOL
REMARK 923 INTER-LIGAND FREE ENERGY PREDICTED BY IDOCK:   -4.86 KCAL/MOL
REMARK 924 INTRA-LIGAND FREE ENERGY PREDICTED BY IDOCK:    1.29 KCAL/MOL
REMARK 927      BINDING AFFINITY PREDICTED BY RF-SCORE:    0.00 PKD
ROOT
HETATM    1  C   UNL     1     -10.846  15.813  65.598  1.00  0.00    -0.307 C  
HETATM    2  N   UNL     1     -10.686  15.094  66.859  1.00  0.00    -0.303 N  
HETATM    3  O   UNL     1     -12.368  16.264  67.906  1.00  0.00     0.792 OA 
HETATM    4  C   UNL     1     -11.482  15.415  67.962  1.00  0.00    -0.326 C  
ENDROOT
BRANCH   2   5
HETATM    5  C   UNL     1      -9.697  14.061  66.872  1.00  0.00    -0.271 A  
HETATM    6  I   UNL     1     -11.573  12.877  64.711  1.00  0.00    -0.474 I  
HETATM    7  C   UNL     1      -8.511  14.228  67.632  1.00  0.00    -0.180 A  
HETATM    8  C   UNL     1      -7.562  13.188  67.701  1.00  0.00    -0.171 A  
HETATM    9  C   UNL     1      -9.908  12.872  66.126  1.00  0.00    -0.270 A  
HETATM   10  I   UNL     1      -8.201  16.128  68.630  1.00  0.00    -0.235 I  
HETATM   11  C   UNL     1      -9.008  11.781  66.235  1.00  0.00    -0.176 A  
HETATM   12  I   UNL     1      -6.707  10.190  67.632  1.00  0.00    -0.076 I  
HETATM   13  C   UNL     1      -7.867  11.942  67.071  1.00  0.00    -0.152 A  
BRANCH   8  14
HETATM   14  C   UNL     1      -6.191  13.414  68.258  1.00  0.00    -0.102 C  
HETATM   15  H   UNL     1      -4.281  13.221  67.833  1.00  0.00     0.000 HD 
HETATM   16  O   UNL     1      -5.151  13.078  67.479  1.00  0.00    -0.237 OA 
BRANCH  14  17
HETATM   17  N   UNL     1      -6.017  13.895  69.432  1.00  0.00    -0.093 NA 
HETATM   18  H   UNL     1      -6.461  14.770  69.709  1.00  0.00     0.000 HD 
BRANCH  17  19
HETATM   19  C   UNL     1      -5.160  13.154  70.371  1.00  0.00    -0.100 C  
BRANCH  19  20
HETATM   20  C   UNL     1      -5.210  13.831  71.746  1.00  0.00    -0.201 C  
HETATM   21  H   UNL     1      -6.431  15.039  72.711  1.00  0.00     0.000 HD 
HETATM   22  O   UNL     1      -6.400  14.620  71.859  1.00  0.00     0.368 OA 
BRANCH  20  23
HETATM   23  C   UNL     1      -5.143  12.792  72.878  1.00  0.00     0.211 C  
HETATM   24  O   UNL     1      -5.265  11.460  72.379  1.00  0.00    -0.320 OA 
HETATM   25  H   UNL     1      -5.224  10.818  73.079  1.00  0.00     0.000 HD 
ENDBRANCH  20  23
ENDBRANCH  19  20
ENDBRANCH  17  19
ENDBRANCH  14  17
ENDBRANCH   8  14
BRANCH  11  26
HETATM   26  C   UNL     1      -9.284  10.516  65.473  1.00  0.00    -0.188 C  
HETATM   27  O   UNL     1      -8.674  10.400  64.275  1.00  0.00    -0.181 OA 
HETATM   28  H   UNL     1      -8.848   9.600  63.792  1.00  0.00     0.000 HD 
BRANCH  26  29
HETATM   29  N   UNL     1     -10.098   9.616  65.884  1.00  0.00    -0.273 NA 
HETATM   30  H   UNL     1     -11.023   9.874  66.228  1.00  0.00     0.000 HD 
BRANCH  29  31
HETATM   31  C   UNL     1      -9.681   8.206  65.851  1.00  0.00     0.145 C  
BRANCH  31  32
HETATM   32  C   UNL     1      -9.831   7.515  67.227  1.00  0.00    -0.179 C  
HETATM   33  O   UNL     1     -11.141   7.692  67.788  1.00  0.00    -0.489 OA 
HETATM   34  H   UNL     1     -11.234   7.268  68.634  1.00  0.00     0.000 HD 
BRANCH  32  35
HETATM   35  C   UNL     1      -9.573   6.004  67.095  1.00  0.00    -0.123 C  
HETATM   36  O   UNL     1     -10.412   5.392  66.114  1.00  0.00    -0.394 OA 
HETATM   37  H   UNL     1     -10.253   4.460  66.033  1.00  0.00     0.000 HD 
ENDBRANCH  32  35
ENDBRANCH  31  32
ENDBRANCH  29  31
ENDBRANCH  26  29
ENDBRANCH  11  26
ENDBRANCH   2   5
BRANCH   4  38
HETATM   38  C   UNL     1     -11.206  14.688  69.290  1.00  0.00    -0.282 C  
HETATM   39  O   UNL     1     -12.009  15.196  70.338  1.00  0.00    -0.274 OA 
HETATM   40  H   UNL     1     -11.839  14.747  71.159  1.00  0.00     0.000 HD 
ENDBRANCH   4  38
TORSDOF 12
ENDMDL
MODEL      195
REMARK 921   NORMALIZED FREE ENERGY PREDICTED BY IDOCK:   -1.47 KCAL/MOL
REMARK 922        TOTAL FREE ENERGY PREDICTED BY IDOCK:   -3.55 KCAL/MOL
REMARK 923 INTER-LIGAND FREE ENERGY PREDICTED BY IDOCK:   -4.99 KCAL/MOL
REMARK 924 INTRA-LIGAND FREE ENERGY PREDICTED BY IDOCK:    1.44 KCAL/MOL
REMARK 927      BINDING AFFINITY PREDICTED BY RF-SCORE:    0.00 PKD
ROOT
HETATM    1  C   UNL     1      -7.361  11.868  66.456  1.00  0.00     0.175 C  
HETATM    2  N   UNL     1      -7.126  12.704  67.629  1.00  0.00    -0.125 N  
HETATM    3  O   UNL     1      -5.511  11.306  68.482  1.00  0.00    -0.043 OA 
HETATM    4  C   UNL     1      -6.195  12.319  68.597  1.00  0.00    -0.067 C  
ENDROOT
BRANCH   2   5
HETATM    5  C   UNL     1      -7.885  13.915  67.700  1.00  0.00    -0.179 A  
HETATM    6  I   UNL     1     -10.019  11.968  68.815  1.00  0.00     0.179 I  
HETATM    7  C   UNL     1      -7.259  15.157  67.420  1.00  0.00    -0.199 A  
HETATM    8  C   UNL     1      -8.015  16.347  67.425  1.00  0.00    -0.179 A  
HETATM    9  C   UNL     1      -9.260  13.868  68.048  1.00  0.00    -0.193 A  
HETATM   10  I   UNL     1      -5.126  15.158  67.034  1.00  0.00     1.829 I  
HETATM   11  C   UNL     1     -10.061  15.037  67.989  1.00  0.00    -0.223 A  
HETATM   12  I   UNL     1     -10.655  17.970  67.082  1.00  0.00    -0.106 I  
HETATM   13  C   UNL     1      -9.427  16.258  67.623  1.00  0.00    -0.221 A  
BRANCH   8  14
HETATM   14  C   UNL     1      -7.358  17.692  67.404  1.00  0.00    -0.185 C  
HETATM   15  H   UNL     1      -7.676  19.578  66.950  1.00  0.00     0.000 HD 
HETATM   16  O   UNL     1      -8.093  18.725  66.963  1.00  0.00    -0.248 OA 
BRANCH  14  17
HETATM   17  N   UNL     1      -6.144  17.850  67.779  1.00  0.00    -0.153 NA 
HETATM   18  H   UNL     1      -5.415  17.204  67.475  1.00  0.00     0.000 HD 
BRANCH  17  19
HETATM   19  C   UNL     1      -5.826  18.986  68.657  1.00  0.00    -0.211 C  
BRANCH  19  20
HETATM   20  C   UNL     1      -5.981  18.556  70.121  1.00  0.00    -0.143 C  
HETATM   21  H   UNL     1      -5.594  16.953  71.199  1.00  0.00     0.000 HD 
HETATM   22  O   UNL     1      -5.497  17.220  70.292  1.00  0.00    -0.221 OA 
BRANCH  20  23
HETATM   23  C   UNL     1      -5.243  19.521  71.064  1.00  0.00    -0.251 C  
HETATM   24  O   UNL     1      -5.834  19.543  72.363  1.00  0.00    -0.180 OA 
HETATM   25  H   UNL     1      -5.378  20.139  72.946  1.00  0.00     0.000 HD 
ENDBRANCH  20  23
ENDBRANCH  19  20
ENDBRANCH  17  19
ENDBRANCH  14  17
ENDBRANCH   8  14
BRANCH  11  26
HETATM   26  C   UNL     1     -11.524  14.947  68.314  1.00  0.00    -0.324 C  
HETATM   27  O   UNL     1     -11.908  15.498  69.484  1.00  0.00    -0.334 OA 
HETATM   28  H   UNL     1     -12.834  15.442  69.690  1.00  0.00     0.000 HD 
BRANCH  26  29
HETATM   29  N   UNL     1     -12.368  14.332  67.572  1.00  0.00    -0.587 NA 
HETATM   30  H   UNL     1     -13.092  13.745  67.987  1.00  0.00     0.000 HD 
BRANCH  29  31
HETATM   31  C   UNL     1     -12.280  14.484  66.111  1.00  0.00    -0.251 C  
BRANCH  31  32
HETATM   32  C   UNL     1     -11.792  13.193  65.413  1.00  0.00    -0.372 C  
HETATM   33  O   UNL     1     -12.827  12.561  64.643  1.00  0.00    -0.716 OA 
HETATM   34  H   UNL     1     -12.528  11.768  64.215  1.00  0.00     0.000 HD 
BRANCH  32  35
HETATM   35  C   UNL     1     -10.624  13.510  64.464  1.00  0.00    -0.424 C  
HETATM   36  O   UNL     1     -10.269  14.893  64.480  1.00  0.00    -0.417 OA 
HETATM   37  H   UNL     1      -9.547  15.089  63.894  1.00  0.00     0.000 HD 
ENDBRANCH  32  35
ENDBRANCH  31  32
ENDBRANCH  29  31
ENDBRANCH  26  29
ENDBRANCH  11  26
ENDBRANCH   2   5
BRANCH   4  38
HETATM   38  C   UNL     1      -6.057  13.193  69.857  1.00  0.00    -0.128 C  
HETATM   39  O   UNL     1      -6.234  12.434  71.039  1.00  0.00    -0.487 OA 
HETATM   40  H   UNL     1      -6.149  12.974  71.817  1.00  0.00     0.000 HD 
ENDBRANCH   4  38
TORSDOF 12
ENDMDL
MODEL      196
REMARK 921   NORMALIZED FREE ENERGY PREDICTED BY IDOCK:   -1.39 KCAL/MOL
REMARK 922        TOTAL FREE ENERGY PREDICTED BY IDOCK:   -3.40 KCAL/MOL
REMARK 923 INTER-LIGAND FREE ENERGY PREDICTED BY IDOCK:   -5.21 KCAL/MOL
REMARK 924 INTRA-LIGAND FREE ENERGY PREDICTED BY IDOCK:    1.81 KCAL/MOL
REMARK 927      BINDING AFFINITY PREDICTED BY RF-SCORE:    0.00 PKD
ROOT
HETATM    1  C   UNL     1      -7.500  16.413  68.180  1.00  0.00    -0.149 C  
HETATM    2  N   UNL     1      -7.326  15.250  69.046  1.00  0.00    -0.142 N  
HETATM    3  O   UNL     1      -5.996  16.383  70.543  1.00  0.00    -0.071 OA 
HETATM    4  C   UNL     1      -6.532  15.335  70.193  1.00  0.00    -0.089 C  
ENDROOT
BRANCH   2   5
HETATM    5  C   UNL     1      -8.022  14.064  68.653  1.00  0.00    -0.122 A  
HETATM    6  I   UNL     1      -5.130  13.113  68.085  1.00  0.00    -0.095 I  
HETATM    7  C   UNL     1      -9.418  13.958  68.876  1.00  0.00     0.053 A  
HETATM    8  C   UNL     1     -10.121  12.818  68.434  1.00  0.00    -0.226 A  
HETATM    9  C   UNL     1      -7.311  12.999  68.040  1.00  0.00    -0.123 A  
HETATM   10  I   UNL     1     -10.404  15.567  69.943  1.00  0.00    -0.129 I  
HETATM   11  C   UNL     1      -8.002  11.875  67.518  1.00  0.00    -0.155 A  
HETATM   12  I   UNL     1     -10.570  10.389  66.532  1.00  0.00    -0.030 I  
HETATM   13  C   UNL     1      -9.416  11.831  67.680  1.00  0.00    -0.180 A  
BRANCH   8  14
HETATM   14  C   UNL     1     -11.523  12.541  68.879  1.00  0.00    -0.307 C  
HETATM   15  H   UNL     1     -13.397  12.640  68.291  1.00  0.00     0.000 HD 
HETATM   16  O   UNL     1     -12.507  12.816  68.008  1.00  0.00    -0.006 OA 
BRANCH  14  17
HETATM   17  N   UNL     1     -11.776  12.074  70.044  1.00  0.00    -0.477 NA 
HETATM   18  H   UNL     1     -12.252  12.644  70.743  1.00  0.00     0.000 HD 
BRANCH  17  19
HETATM   19  C   UNL     1     -11.362  10.696  70.349  1.00  0.00    -0.304 C  
BRANCH  19  20
HETATM   20  C   UNL     1     -12.272  10.123  71.443  1.00  0.00    -0.397 C  
HETATM   21  H   UNL     1     -14.168   9.616  71.619  1.00  0.00     0.000 HD 
HETATM   22  O   UNL     1     -13.604   9.971  70.941  1.00  0.00    -0.297 OA 
BRANCH  20  23
HETATM   23  C   UNL     1     -11.735   8.778  71.962  1.00  0.00    -0.372 C  
HETATM   24  O   UNL     1     -12.564   8.243  72.993  1.00  0.00    -0.680 OA 
HETATM   25  H   UNL     1     -12.233   7.412  73.314  1.00  0.00     0.000 HD 
ENDBRANCH  20  23
ENDBRANCH  19  20
ENDBRANCH  17  19
ENDBRANCH  14  17
ENDBRANCH   8  14
BRANCH  11  26
HETATM   26  C   UNL     1      -7.229  10.787  66.829  1.00  0.00    -0.128 C  
HETATM   27  O   UNL     1      -6.129  11.177  66.152  1.00  0.00    -0.213 OA 
HETATM   28  H   UNL     1      -5.639  10.489  65.716  1.00  0.00     0.000 HD 
BRANCH  26  29
HETATM   29  N   UNL     1      -7.607   9.563  66.815  1.00  0.00    -0.097 NA 
HETATM   30  H   UNL     1      -8.242   9.226  66.091  1.00  0.00     0.000 HD 
BRANCH  29  31
HETATM   31  C   UNL     1      -7.112   8.650  67.857  1.00  0.00    -0.083 C  
BRANCH  31  32
HETATM   32  C   UNL     1      -8.051   7.440  68.073  1.00  0.00    -0.124 C  
HETATM   33  O   UNL     1      -8.753   7.070  66.876  1.00  0.00    -0.117 OA 
HETATM   34  H   UNL     1      -9.330   6.327  67.009  1.00  0.00     0.000 HD 
BRANCH  32  35
HETATM   35  C   UNL     1      -7.244   6.218  68.545  1.00  0.00    -0.085 C  
HETATM   36  O   UNL     1      -5.849   6.347  68.270  1.00  0.00    -0.014 OA 
HETATM   37  H   UNL     1      -5.351   5.593  68.561  1.00  0.00     0.000 HD 
ENDBRANCH  32  35
ENDBRANCH  31  32
ENDBRANCH  29  31
ENDBRANCH  26  29
ENDBRANCH  11  26
ENDBRANCH   2   5
BRANCH   4  38
HETATM   38  C   UNL     1      -6.310  14.054  71.017  1.00  0.00     0.138 C  
HETATM   39  O   UNL     1      -5.647  14.327  72.236  1.00  0.00    -0.185 OA 
HETATM   40  H   UNL     1      -5.510  13.536  72.745  1.00  0.00     0.000 HD 
ENDBRANCH   4  38
TORSDOF 12
ENDMDL
MODEL      197
REMARK 921   NORMALIZED FREE ENERGY PREDICTED BY IDOCK:   -1.22 KCAL/MOL
REMARK 922        TOTAL FREE ENERGY PREDICTED BY IDOCK:   -3.12 KCAL/MOL
REMARK 923 INTER-LIGAND FREE ENERGY PREDICTED BY IDOCK:   -4.38 KCAL/MOL
REMARK 924 INTRA-LIGAND FREE ENERGY PREDICTED BY IDOCK:    1.26 KCAL/MOL
REMARK 927      BINDING AFFINITY PREDICTED BY RF-SCORE:    0.00 PKD
ROOT
HETATM    1  C   UNL     1      -7.374   7.738  66.570  1.00  0.00    -0.087 C  
HETATM    2  N   UNL     1      -7.151   8.441  67.831  1.00  0.00    -0.081 N  
HETATM    3  O   UNL     1      -5.330   7.152  68.394  1.00  0.00    -0.019 OA 
HETATM    4  C   UNL     1      -6.115   8.051  68.684  1.00  0.00    -0.044 C  
ENDROOT
BRANCH   2   5
HETATM    5  C   UNL     1      -8.034   9.532  68.107  1.00  0.00    -0.094 A  
HETATM    6  I   UNL     1      -5.745  11.122  66.758  1.00  0.00    -0.138 I  
HETATM    7  C   UNL     1      -9.335   9.276  68.612  1.00  0.00    -0.139 A  
HETATM    8  C   UNL     1     -10.187  10.348  68.947  1.00  0.00    -0.220 A  
HETATM    9  C   UNL     1      -7.604  10.864  67.876  1.00  0.00    -0.095 A  
HETATM   10  I   UNL     1      -9.965   7.210  68.805  1.00  0.00    -0.192 I  
HETATM   11  C   UNL     1      -8.410  11.962  68.272  1.00  0.00    -0.159 A  
HETATM   12  I   UNL     1     -10.752  13.269  69.881  1.00  0.00     1.522 I  
HETATM   13  C   UNL     1      -9.678  11.680  68.856  1.00  0.00    -0.013 A  
BRANCH   8  14
HETATM   14  C   UNL     1     -11.643  10.135  69.222  1.00  0.00    -0.055 C  
HETATM   15  H   UNL     1     -13.438  10.732  68.686  1.00  0.00     0.000 HD 
HETATM   16  O   UNL     1     -12.514  10.867  68.511  1.00  0.00    -0.375 OA 
BRANCH  14  17
HETATM   17  N   UNL     1     -12.042   9.299  70.107  1.00  0.00    -0.411 NA 
HETATM   18  H   UNL     1     -12.669   8.534  69.858  1.00  0.00     0.000 HD 
BRANCH  17  19
HETATM   19  C   UNL     1     -11.574   9.470  71.491  1.00  0.00    -0.395 C  
BRANCH  19  20
HETATM   20  C   UNL     1     -10.428   8.488  71.764  1.00  0.00    -0.300 C  
HETATM   21  H   UNL     1      -8.625   8.564  72.553  1.00  0.00     0.000 HD 
HETATM   22  O   UNL     1      -9.334   9.172  72.384  1.00  0.00    -0.174 OA 
BRANCH  20  23
HETATM   23  C   UNL     1     -10.899   7.317  72.644  1.00  0.00    -0.290 C  
HETATM   24  O   UNL     1     -11.157   7.735  73.984  1.00  0.00    -0.136 OA 
HETATM   25  H   UNL     1     -11.448   7.012  74.527  1.00  0.00     0.000 HD 
ENDBRANCH  20  23
ENDBRANCH  19  20
ENDBRANCH  17  19
ENDBRANCH  14  17
ENDBRANCH   8  14
BRANCH  11  26
HETATM   26  C   UNL     1      -7.907  13.362  68.062  1.00  0.00    -0.148 C  
HETATM   27  O   UNL     1      -7.434  13.994  69.156  1.00  0.00    -0.241 OA 
HETATM   28  H   UNL     1      -7.115  14.880  69.023  1.00  0.00     0.000 HD 
BRANCH  26  29
HETATM   29  N   UNL     1      -7.973  13.966  66.934  1.00  0.00    -0.360 NA 
HETATM   30  H   UNL     1      -7.353  13.702  66.169  1.00  0.00     0.000 HD 
BRANCH  29  31
HETATM   31  C   UNL     1      -8.958  15.045  66.758  1.00  0.00    -0.265 C  
BRANCH  31  32
HETATM   32  C   UNL     1     -10.319  14.523  66.242  1.00  0.00    -0.294 C  
HETATM   33  O   UNL     1     -11.019  15.501  65.457  1.00  0.00    -0.338 OA 
HETATM   34  H   UNL     1     -11.856  15.180  65.140  1.00  0.00     0.000 HD 
BRANCH  32  35
HETATM   35  C   UNL     1     -10.113  13.273  65.368  1.00  0.00    -0.253 C  
HETATM   36  O   UNL     1     -10.740  13.393  64.091  1.00  0.00    -0.505 OA 
HETATM   37  H   UNL     1     -10.613  12.621  63.551  1.00  0.00     0.000 HD 
ENDBRANCH  32  35
ENDBRANCH  31  32
ENDBRANCH  29  31
ENDBRANCH  26  29
ENDBRANCH  11  26
ENDBRANCH   2   5
BRANCH   4  38
HETATM   38  C   UNL     1      -5.985   8.768  70.040  1.00  0.00    -0.030 C  
HETATM   39  O   UNL     1      -7.166   8.642  70.810  1.00  0.00    -0.053 OA 
HETATM   40  H   UNL     1      -7.085   9.084  71.648  1.00  0.00     0.000 HD 
ENDBRANCH   4  38
TORSDOF 12
ENDMDL
MODEL      198
REMARK 921   NORMALIZED FREE ENERGY PREDICTED BY IDOCK:   -1.21 KCAL/MOL
REMARK 922        TOTAL FREE ENERGY PREDICTED BY IDOCK:   -3.10 KCAL/MOL
REMARK 923 INTER-LIGAND FREE ENERGY PREDICTED BY IDOCK:   -3.74 KCAL/MOL
REMARK 924 INTRA-LIGAND FREE ENERGY PREDICTED BY IDOCK:    0.64 KCAL/MOL
REMARK 927      BINDING AFFINITY PREDICTED BY RF-SCORE:    0.00 PKD
ROOT
HETATM    1  C   UNL     1     -11.655   7.021  68.311  1.00  0.00     0.710 C  
HETATM    2  N   UNL     1     -10.825   7.664  69.326  1.00  0.00    -0.157 N  
HETATM    3  O   UNL     1     -12.229   7.082  71.052  1.00  0.00    -0.361 OA 
HETATM    4  C   UNL     1     -11.215   7.659  70.667  1.00  0.00    -0.266 C  
ENDROOT
BRANCH   2   5
HETATM    5  C   UNL     1      -9.613   8.265  68.858  1.00  0.00    -0.153 A  
HETATM    6  I   UNL     1      -8.748   5.296  68.701  1.00  0.00    -0.113 I  
HETATM    7  C   UNL     1      -9.567   9.660  68.609  1.00  0.00    -0.150 A  
HETATM    8  C   UNL     1      -8.360  10.269  68.209  1.00  0.00    -0.116 A  
HETATM    9  C   UNL     1      -8.463   7.461  68.647  1.00  0.00    -0.129 A  
HETATM   10  I   UNL     1     -11.404  10.793  68.821  1.00  0.00    -0.327 I  
HETATM   11  C   UNL     1      -7.217   8.054  68.318  1.00  0.00    -0.093 A  
HETATM   12  I   UNL     1      -5.250  10.476  68.098  1.00  0.00    -0.031 I  
HETATM   13  C   UNL     1      -7.177   9.468  68.156  1.00  0.00    -0.080 A  
BRANCH   8  14
HETATM   14  C   UNL     1      -8.325  11.668  67.680  1.00  0.00    -0.142 C  
HETATM   15  H   UNL     1      -7.780  13.500  68.143  1.00  0.00     0.000 HD 
HETATM   16  O   UNL     1      -7.802  12.612  68.479  1.00  0.00    -0.137 OA 
BRANCH  14  17
HETATM   17  N   UNL     1      -8.786  11.957  66.521  1.00  0.00    -0.232 NA 
HETATM   18  H   UNL     1      -8.843  12.927  66.208  1.00  0.00     0.000 HD 
BRANCH  17  19
HETATM   19  C   UNL     1      -9.233  10.858  65.652  1.00  0.00    -0.203 C  
BRANCH  19  20
HETATM   20  C   UNL     1      -9.505  11.401  64.244  1.00  0.00    -0.133 C  
HETATM   21  H   UNL     1     -10.134  10.684  62.521  1.00  0.00     0.000 HD 
HETATM   22  O   UNL     1      -9.966  10.346  63.393  1.00  0.00    -0.267 OA 
BRANCH  20  23
HETATM   23  C   UNL     1     -10.529  12.549  64.281  1.00  0.00    -0.378 C  
HETATM   24  O   UNL     1      -9.980  13.726  64.874  1.00  0.00    -0.591 OA 
HETATM   25  H   UNL     1     -10.613  14.434  64.897  1.00  0.00     0.000 HD 
ENDBRANCH  20  23
ENDBRANCH  19  20
ENDBRANCH  17  19
ENDBRANCH  14  17
ENDBRANCH   8  14
BRANCH  11  26
HETATM   26  C   UNL     1      -6.005   7.184  68.151  1.00  0.00    -0.030 C  
HETATM   27  O   UNL     1      -5.337   7.312  66.985  1.00  0.00    -0.020 OA 
HETATM   28  H   UNL     1      -4.570   6.761  66.879  1.00  0.00     0.000 HD 
BRANCH  26  29
HETATM   29  N   UNL     1      -5.643   6.315  69.021  1.00  0.00    -0.015 NA 
HETATM   30  H   UNL     1      -5.693   5.319  68.809  1.00  0.00     0.000 HD 
BRANCH  29  31
HETATM   31  C   UNL     1      -5.152   6.776  70.329  1.00  0.00    -0.015 C  
BRANCH  31  32
HETATM   32  C   UNL     1      -5.981   6.203  71.503  1.00  0.00    -0.035 C  
HETATM   33  O   UNL     1      -7.287   6.793  71.591  1.00  0.00    -0.083 OA 
HETATM   34  H   UNL     1      -7.796   6.442  72.312  1.00  0.00     0.000 HD 
BRANCH  32  35
HETATM   35  C   UNL     1      -6.157   4.684  71.339  1.00  0.00    -0.018 C  
HETATM   36  O   UNL     1      -5.558   3.947  72.405  1.00  0.00    -0.003 OA 
HETATM   37  H   UNL     1      -5.667   3.009  72.304  1.00  0.00     0.000 HD 
ENDBRANCH  32  35
ENDBRANCH  31  32
ENDBRANCH  29  31
ENDBRANCH  26  29
ENDBRANCH  11  26
ENDBRANCH   2   5
BRANCH   4  38
HETATM   38  C   UNL     1     -10.348   8.432  71.678  1.00  0.00    -0.243 C  
HETATM   39  O   UNL     1     -11.139   9.074  72.659  1.00  0.00     0.071 OA 
HETATM   40  H   UNL     1     -10.604   9.551  73.283  1.00  0.00     0.000 HD 
ENDBRANCH   4  38
TORSDOF 12
ENDMDL
MODEL      199
REMARK 921   NORMALIZED FREE ENERGY PREDICTED BY IDOCK:   -1.15 KCAL/MOL
REMARK 922        TOTAL FREE ENERGY PREDICTED BY IDOCK:   -2.99 KCAL/MOL
REMARK 923 INTER-LIGAND FREE ENERGY PREDICTED BY IDOCK:   -4.56 KCAL/MOL
REMARK 924 INTRA-LIGAND FREE ENERGY PREDICTED BY IDOCK:    1.57 KCAL/MOL
REMARK 927      BINDING AFFINITY PREDICTED BY RF-SCORE:    0.00 PKD
ROOT
HETATM    1  C   UNL     1      -5.450  13.426  68.374  1.00  0.00    -0.088 C  
HETATM    2  N   UNL     1      -6.881  13.408  68.666  1.00  0.00    -0.092 N  
HETATM    3  O   UNL     1      -6.860  15.500  69.623  1.00  0.00    -0.172 OA 
HETATM    4  C   UNL     1      -7.484  14.487  69.318  1.00  0.00    -0.102 C  
ENDROOT
BRANCH   2   5
HETATM    5  C   UNL     1      -7.596  12.247  68.232  1.00  0.00    -0.133 A  
HETATM    6  I   UNL     1      -8.776  14.292  66.229  1.00  0.00     0.961 I  
HETATM    7  C   UNL     1      -7.276  10.977  68.776  1.00  0.00    -0.091 A  
HETATM    8  C   UNL     1      -8.019   9.838  68.401  1.00  0.00    -0.089 A  
HETATM    9  C   UNL     1      -8.623  12.372  67.261  1.00  0.00    -0.185 A  
HETATM   10  I   UNL     1      -5.602  10.849  70.149  1.00  0.00    -0.121 I  
HETATM   11  C   UNL     1      -9.435  11.261  66.920  1.00  0.00    -0.193 A  
HETATM   12  I   UNL     1     -10.606   8.403  67.415  1.00  0.00     0.014 I  
HETATM   13  C   UNL     1      -9.149  10.013  67.543  1.00  0.00    -0.134 A  
BRANCH   8  14
HETATM   14  C   UNL     1      -7.554   8.455  68.733  1.00  0.00    -0.101 C  
HETATM   15  H   UNL     1      -7.795   6.996  70.028  1.00  0.00     0.000 HD 
HETATM   16  O   UNL     1      -8.090   7.874  69.818  1.00  0.00    -0.112 OA 
BRANCH  14  17
HETATM   17  N   UNL     1      -6.674   7.856  68.022  1.00  0.00    -0.066 NA 
HETATM   18  H   UNL     1      -5.692   7.852  68.299  1.00  0.00     0.000 HD 
BRANCH  17  19
HETATM   19  C   UNL     1      -7.114   7.172  66.796  1.00  0.00    -0.078 C  
BRANCH  19  20
HETATM   20  C   UNL     1      -7.548   5.742  67.140  1.00  0.00    -0.099 C  
HETATM   21  H   UNL     1      -9.097   4.581  66.774  1.00  0.00     0.000 HD 
HETATM   22  O   UNL     1      -8.828   5.467  66.560  1.00  0.00    -0.117 OA 
BRANCH  20  23
HETATM   23  C   UNL     1      -6.508   4.715  66.660  1.00  0.00    -0.041 C  
HETATM   24  O   UNL     1      -5.176   5.139  66.950  1.00  0.00    -0.007 OA 
HETATM   25  H   UNL     1      -4.534   4.505  66.653  1.00  0.00     0.000 HD 
ENDBRANCH  20  23
ENDBRANCH  19  20
ENDBRANCH  17  19
ENDBRANCH  14  17
ENDBRANCH   8  14
BRANCH  11  26
HETATM   26  C   UNL     1     -10.548  11.435  65.927  1.00  0.00    -0.263 C  
HETATM   27  O   UNL     1     -10.320  10.950  64.688  1.00  0.00    -0.319 OA 
HETATM   28  H   UNL     1     -11.024  11.060  64.059  1.00  0.00     0.000 HD 
BRANCH  26  29
HETATM   29  N   UNL     1     -11.633  12.061  66.196  1.00  0.00    -0.463 NA 
HETATM   30  H   UNL     1     -11.940  12.172  67.162  1.00  0.00     0.000 HD 
BRANCH  29  31
HETATM   31  C   UNL     1     -12.430  12.618  65.091  1.00  0.00    -0.463 C  
BRANCH  31  32
HETATM   32  C   UNL     1     -11.612  13.587  64.205  1.00  0.00    -0.376 C  
HETATM   33  O   UNL     1     -12.007  13.532  62.825  1.00  0.00    -0.705 OA 
HETATM   34  H   UNL     1     -11.504  14.127  62.280  1.00  0.00     0.000 HD 
BRANCH  32  35
HETATM   35  C   UNL     1     -11.793  15.035  64.692  1.00  0.00    -0.375 C  
HETATM   36  O   UNL     1     -12.447  15.857  63.725  1.00  0.00    -0.997 OA 
HETATM   37  H   UNL     1     -12.558  16.751  64.026  1.00  0.00     0.000 HD 
ENDBRANCH  32  35
ENDBRANCH  31  32
ENDBRANCH  29  31
ENDBRANCH  26  29
ENDBRANCH  11  26
ENDBRANCH   2   5
BRANCH   4  38
HETATM   38  C   UNL     1      -8.976  14.372  69.681  1.00  0.00     0.605 C  
HETATM   39  O   UNL     1      -9.507  15.616  70.095  1.00  0.00    -0.154 OA 
HETATM   40  H   UNL     1     -10.428  15.545  70.320  1.00  0.00     0.000 HD 
ENDBRANCH   4  38
TORSDOF 12
ENDMDL
MODEL      200
REMARK 921   NORMALIZED FREE ENERGY PREDICTED BY IDOCK:   -1.13 KCAL/MOL
REMARK 922        TOTAL FREE ENERGY PREDICTED BY IDOCK:   -2.96 KCAL/MOL
REMARK 923 INTER-LIGAND FREE ENERGY PREDICTED BY IDOCK:   -3.84 KCAL/MOL
REMARK 924 INTRA-LIGAND FREE ENERGY PREDICTED BY IDOCK:    0.88 KCAL/MOL
REMARK 927      BINDING AFFINITY PREDICTED BY RF-SCORE:    0.00 PKD
ROOT
HETATM    1  C   UNL     1      -6.216   5.862  63.722  1.00  0.00    -0.025 C  
HETATM    2  N   UNL     1      -7.454   5.601  64.451  1.00  0.00    -0.068 N  
HETATM    3  O   UNL     1      -7.935   3.702  63.244  1.00  0.00    -0.073 OA 
HETATM    4  C   UNL     1      -8.255   4.506  64.115  1.00  0.00    -0.106 C  
ENDROOT
BRANCH   2   5
HETATM    5  C   UNL     1      -7.764   6.512  65.509  1.00  0.00    -0.097 A  
HETATM    6  I   UNL     1      -6.511   4.245  67.204  1.00  0.00    -0.044 I  
HETATM    7  C   UNL     1      -8.242   7.813  65.204  1.00  0.00    -0.132 A  
HETATM    8  C   UNL     1      -8.610   8.693  66.242  1.00  0.00    -0.151 A  
HETATM    9  C   UNL     1      -7.594   6.110  66.859  1.00  0.00    -0.099 A  
HETATM   10  I   UNL     1      -8.341   8.397  63.118  1.00  0.00     0.163 I  
HETATM   11  C   UNL     1      -8.025   6.945  67.922  1.00  0.00    -0.114 A  
HETATM   12  I   UNL     1      -9.656   9.335  69.108  1.00  0.00    -0.192 I  
HETATM   13  C   UNL     1      -8.580   8.213  67.588  1.00  0.00    -0.130 A  
BRANCH   8  14
HETATM   14  C   UNL     1      -8.858  10.147  65.985  1.00  0.00    -0.143 C  
HETATM   15  H   UNL     1      -8.018  11.769  65.259  1.00  0.00     0.000 HD 
HETATM   16  O   UNL     1      -7.861  10.847  65.422  1.00  0.00    -0.065 OA 
BRANCH  14  17
HETATM   17  N   UNL     1      -9.967  10.702  66.299  1.00  0.00    -0.214 NA 
HETATM   18  H   UNL     1     -10.075  11.186  67.191  1.00  0.00     0.000 HD 
BRANCH  17  19
HETATM   19  C   UNL     1     -11.083  10.626  65.344  1.00  0.00     0.373 C  
BRANCH  19  20
HETATM   20  C   UNL     1     -11.387  12.029  64.805  1.00  0.00    -0.313 C  
HETATM   21  H   UNL     1     -11.276  13.881  65.468  1.00  0.00     0.000 HD 
HETATM   22  O   UNL     1     -11.088  13.011  65.802  1.00  0.00    -0.275 OA 
BRANCH  20  23
HETATM   23  C   UNL     1     -10.596  12.311  63.516  1.00  0.00    -0.448 C  
HETATM   24  O   UNL     1     -10.089  11.110  62.935  1.00  0.00    -0.539 OA 
HETATM   25  H   UNL     1      -9.600  11.285  62.139  1.00  0.00     0.000 HD 
ENDBRANCH  20  23
ENDBRANCH  19  20
ENDBRANCH  17  19
ENDBRANCH  14  17
ENDBRANCH   8  14
BRANCH  11  26
HETATM   26  C   UNL     1      -7.878   6.472  69.340  1.00  0.00    -0.106 C  
HETATM   27  O   UNL     1      -8.811   5.599  69.774  1.00  0.00    -0.121 OA 
HETATM   28  H   UNL     1      -8.719   5.300  70.672  1.00  0.00     0.000 HD 
BRANCH  26  29
HETATM   29  N   UNL     1      -6.969   6.906  70.131  1.00  0.00    -0.064 NA 
HETATM   30  H   UNL     1      -6.013   6.556  70.063  1.00  0.00     0.000 HD 
BRANCH  29  31
HETATM   31  C   UNL     1      -7.321   7.918  71.139  1.00  0.00    -0.063 C  
BRANCH  31  32
HETATM   32  C   UNL     1      -6.577   7.701  72.477  1.00  0.00    -0.061 C  
HETATM   33  O   UNL     1      -5.974   6.401  72.564  1.00  0.00    -0.038 OA 
HETATM   34  H   UNL     1      -5.517   6.267  73.386  1.00  0.00     0.000 HD 
BRANCH  32  35
HETATM   35  C   UNL     1      -5.465   8.751  72.644  1.00  0.00    -0.061 C  
HETATM   36  O   UNL     1      -5.964  10.087  72.586  1.00  0.00    -0.120 OA 
HETATM   37  H   UNL     1      -5.277  10.735  72.688  1.00  0.00     0.000 HD 
ENDBRANCH  32  35
ENDBRANCH  31  32
ENDBRANCH  29  31
ENDBRANCH  26  29
ENDBRANCH  11  26
ENDBRANCH   2   5
BRANCH   4  38
HETATM   38  C   UNL     1      -9.594   4.335  64.855  1.00  0.00    -0.173 C  
HETATM   39  O   UNL     1     -10.217   3.107  64.527  1.00  0.00    -0.345 OA 
HETATM   40  H   UNL     1     -11.043   3.001  64.984  1.00  0.00     0.000 HD 
ENDBRANCH   4  38
TORSDOF 12
ENDMDL
MODEL      201
REMARK 921   NORMALIZED FREE ENERGY PREDICTED BY IDOCK:   -0.85 KCAL/MOL
REMARK 922        TOTAL FREE ENERGY PREDICTED BY IDOCK:   -2.49 KCAL/MOL
REMARK 923 INTER-LIGAND FREE ENERGY PREDICTED BY IDOCK:   -4.39 KCAL/MOL
REMARK 924 INTRA-LIGAND FREE ENERGY PREDICTED BY IDOCK:    1.90 KCAL/MOL
REMARK 927      BINDING AFFINITY PREDICTED BY RF-SCORE:    0.00 PKD
ROOT
HETATM    1  C   UNL     1     -11.307  11.493  71.036  1.00  0.00     1.371 C  
HETATM    2  N   UNL     1     -12.066  12.657  70.589  1.00  0.00    -0.315 N  
HETATM    3  O   UNL     1     -13.583  12.511  72.312  1.00  0.00    -0.530 OA 
HETATM    4  C   UNL     1     -13.206  13.069  71.285  1.00  0.00    -0.105 C  
ENDROOT
BRANCH   2   5
HETATM    5  C   UNL     1     -11.561  13.330  69.432  1.00  0.00    -0.305 A  
HETATM    6  I   UNL     1     -11.192  15.612  71.493  1.00  0.00     0.047 I  
HETATM    7  C   UNL     1     -11.386  12.616  68.220  1.00  0.00    -0.295 A  
HETATM    8  C   UNL     1     -10.948  13.287  67.059  1.00  0.00    -0.291 A  
HETATM    9  C   UNL     1     -11.238  14.710  69.503  1.00  0.00    -0.269 A  
HETATM   10  I   UNL     1     -11.768  10.482  68.231  1.00  0.00     0.784 I  
HETATM   11  C   UNL     1     -10.869  15.428  68.337  1.00  0.00    -0.268 A  
HETATM   12  I   UNL     1     -10.664  15.803  65.239  1.00  0.00    -0.242 I  
HETATM   13  C   UNL     1     -10.781  14.705  67.113  1.00  0.00    -0.292 A  
BRANCH   8  14
HETATM   14  C   UNL     1     -10.495  12.538  65.845  1.00  0.00    -0.265 C  
HETATM   15  H   UNL     1     -11.160  11.593  64.255  1.00  0.00     0.000 HD 
HETATM   16  O   UNL     1     -11.448  12.068  65.025  1.00  0.00    -0.320 OA 
BRANCH  14  17
HETATM   17  N   UNL     1      -9.253  12.343  65.604  1.00  0.00    -0.435 NA 
HETATM   18  H   UNL     1      -8.588  13.117  65.628  1.00  0.00     0.000 HD 
BRANCH  17  19
HETATM   19  C   UNL     1      -8.808  10.977  65.290  1.00  0.00    -0.129 C  
BRANCH  19  20
HETATM   20  C   UNL     1      -8.729  10.159  66.585  1.00  0.00    -0.126 C  
HETATM   21  H   UNL     1      -8.610   8.256  67.081  1.00  0.00     0.000 HD 
HETATM   22  O   UNL     1      -8.659   8.762  66.278  1.00  0.00    -0.120 OA 
BRANCH  20  23
HETATM   23  C   UNL     1      -7.521  10.585  67.437  1.00  0.00    -0.094 C  
HETATM   24  O   UNL     1      -6.409  10.959  66.625  1.00  0.00    -0.091 OA 
HETATM   25  H   UNL     1      -5.663  11.222  67.152  1.00  0.00     0.000 HD 
ENDBRANCH  20  23
ENDBRANCH  19  20
ENDBRANCH  17  19
ENDBRANCH  14  17
ENDBRANCH   8  14
BRANCH  11  26
HETATM   26  C   UNL     1     -10.582  16.899  68.433  1.00  0.00    -0.365 C  
HETATM   27  O   UNL     1     -11.651  17.701  68.621  1.00  0.00     0.387 OA 
HETATM   28  H   UNL     1     -11.470  18.632  68.682  1.00  0.00     0.000 HD 
BRANCH  26  29
HETATM   29  N   UNL     1      -9.410  17.394  68.283  1.00  0.00    -0.270 NA 
HETATM   30  H   UNL     1      -8.667  16.843  67.855  1.00  0.00     0.000 HD 
BRANCH  29  31
HETATM   31  C   UNL     1      -9.151  18.769  68.738  1.00  0.00    -0.293 C  
BRANCH  31  32
HETATM   32  C   UNL     1      -8.216  19.541  67.777  1.00  0.00    -0.298 C  
HETATM   33  O   UNL     1      -6.953  18.883  67.596  1.00  0.00    -0.205 OA 
HETATM   34  H   UNL     1      -6.378  19.357  67.006  1.00  0.00     0.000 HD 
BRANCH  32  35
HETATM   35  C   UNL     1      -8.877  19.686  66.395  1.00  0.00    -0.376 C  
HETATM   36  O   UNL     1      -9.790  20.782  66.340  1.00  0.00    -0.583 OA 
HETATM   37  H   UNL     1     -10.198  20.872  65.487  1.00  0.00     0.000 HD 
ENDBRANCH  32  35
ENDBRANCH  31  32
ENDBRANCH  29  31
ENDBRANCH  26  29
ENDBRANCH  11  26
ENDBRANCH   2   5
BRANCH   4  38
HETATM   38  C   UNL     1     -14.018  14.245  70.714  1.00  0.00     0.404 C  
HETATM   39  O   UNL     1     -14.356  15.181  71.720  1.00  0.00    -0.499 OA 
HETATM   40  H   UNL     1     -14.857  15.908  71.368  1.00  0.00     0.000 HD 
ENDBRANCH   4  38
TORSDOF 12
ENDMDL
MODEL      202
REMARK 921   NORMALIZED FREE ENERGY PREDICTED BY IDOCK:   -0.80 KCAL/MOL
REMARK 922        TOTAL FREE ENERGY PREDICTED BY IDOCK:   -2.41 KCAL/MOL
REMARK 923 INTER-LIGAND FREE ENERGY PREDICTED BY IDOCK:   -3.98 KCAL/MOL
REMARK 924 INTRA-LIGAND FREE ENERGY PREDICTED BY IDOCK:    1.57 KCAL/MOL
REMARK 927      BINDING AFFINITY PREDICTED BY RF-SCORE:    0.00 PKD
ROOT
HETATM    1  C   UNL     1     -11.482   6.972  67.827  1.00  0.00     0.442 C  
HETATM    2  N   UNL     1     -10.298   7.377  68.580  1.00  0.00    -0.195 N  
HETATM    3  O   UNL     1     -10.904   6.186  70.453  1.00  0.00    -0.261 OA 
HETATM    4  C   UNL     1     -10.117   6.948  69.898  1.00  0.00    -0.188 C  
ENDROOT
BRANCH   2   5
HETATM    5  C   UNL     1      -9.362   8.204  67.883  1.00  0.00    -0.134 A  
HETATM    6  I   UNL     1      -8.355   5.443  66.908  1.00  0.00    -0.105 I  
HETATM    7  C   UNL     1      -9.516   9.614  67.900  1.00  0.00    -0.131 A  
HETATM    8  C   UNL     1      -8.562  10.438  67.268  1.00  0.00    -0.126 A  
HETATM    9  C   UNL     1      -8.283   7.610  67.178  1.00  0.00    -0.118 A  
HETATM   10  I   UNL     1     -11.267  10.435  68.880  1.00  0.00    -0.213 I  
HETATM   11  C   UNL     1      -7.269   8.413  66.598  1.00  0.00    -0.077 A  
HETATM   12  I   UNL     1      -5.691  11.090  66.241  1.00  0.00    -0.056 I  
HETATM   13  C   UNL     1      -7.401   9.827  66.701  1.00  0.00    -0.094 A  
BRANCH   8  14
HETATM   14  C   UNL     1      -8.820  11.893  67.029  1.00  0.00    -0.190 C  
HETATM   15  H   UNL     1      -9.328  13.179  65.632  1.00  0.00     0.000 HD 
HETATM   16  O   UNL     1      -9.165  12.256  65.784  1.00  0.00    -0.120 OA 
BRANCH  14  17
HETATM   17  N   UNL     1      -8.704  12.756  67.967  1.00  0.00    -0.187 NA 
HETATM   18  H   UNL     1      -8.998  12.537  68.919  1.00  0.00     0.000 HD 
BRANCH  17  19
HETATM   19  C   UNL     1      -8.136  14.073  67.639  1.00  0.00    -0.174 C  
BRANCH  19  20
HETATM   20  C   UNL     1      -8.891  15.159  68.415  1.00  0.00    -0.174 C  
HETATM   21  H   UNL     1     -10.551  15.284  69.469  1.00  0.00     0.000 HD 
HETATM   22  O   UNL     1     -10.083  14.611  68.988  1.00  0.00    -0.229 OA 
BRANCH  20  23
HETATM   23  C   UNL     1      -8.003  15.778  69.508  1.00  0.00    -0.145 C  
HETATM   24  O   UNL     1      -7.347  16.959  69.048  1.00  0.00    -0.232 OA 
HETATM   25  H   UNL     1      -6.799  17.342  69.723  1.00  0.00     0.000 HD 
ENDBRANCH  20  23
ENDBRANCH  19  20
ENDBRANCH  17  19
ENDBRANCH  14  17
ENDBRANCH   8  14
BRANCH  11  26
HETATM   26  C   UNL     1      -6.112   7.755  65.902  1.00  0.00    -0.038 C  
HETATM   27  O   UNL     1      -5.131   7.282  66.698  1.00  0.00    -0.021 OA 
HETATM   28  H   UNL     1      -4.398   6.866  66.259  1.00  0.00     0.000 HD 
BRANCH  26  29
HETATM   29  N   UNL     1      -6.007   7.693  64.627  1.00  0.00    -0.038 NA 
HETATM   30  H   UNL     1      -5.159   8.014  64.161  1.00  0.00     0.000 HD 
BRANCH  29  31
HETATM   31  C   UNL     1      -7.128   7.152  63.843  1.00  0.00    -0.061 C  
BRANCH  31  32
HETATM   32  C   UNL     1      -7.816   8.231  62.975  1.00  0.00    -0.148 C  
HETATM   33  O   UNL     1      -9.090   8.631  63.505  1.00  0.00    -0.279 OA 
HETATM   34  H   UNL     1      -9.513   9.294  62.972  1.00  0.00     0.000 HD 
BRANCH  32  35
HETATM   35  C   UNL     1      -6.929   9.484  62.881  1.00  0.00    -0.099 C  
HETATM   36  O   UNL     1      -7.603  10.664  63.319  1.00  0.00    -0.330 OA 
HETATM   37  H   UNL     1      -7.055  11.437  63.260  1.00  0.00     0.000 HD 
ENDBRANCH  32  35
ENDBRANCH  31  32
ENDBRANCH  29  31
ENDBRANCH  26  29
ENDBRANCH  11  26
ENDBRANCH   2   5
BRANCH   4  38
HETATM   38  C   UNL     1      -8.898   7.480  70.672  1.00  0.00    -0.146 C  
HETATM   39  O   UNL     1      -8.188   8.448  69.923  1.00  0.00    -0.116 OA 
HETATM   40  H   UNL     1      -7.435   8.777  70.401  1.00  0.00     0.000 HD 
ENDBRANCH   4  38
TORSDOF 12
ENDMDL
MODEL      203
REMARK 921   NORMALIZED FREE ENERGY PREDICTED BY IDOCK:   -0.56 KCAL/MOL
REMARK 922        TOTAL FREE ENERGY PREDICTED BY IDOCK:   -2.00 KCAL/MOL
REMARK 923 INTER-LIGAND FREE ENERGY PREDICTED BY IDOCK:   -3.12 KCAL/MOL
REMARK 924 INTRA-LIGAND FREE ENERGY PREDICTED BY IDOCK:    1.13 KCAL/MOL
REMARK 927      BINDING AFFINITY PREDICTED BY RF-SCORE:    0.00 PKD
ROOT
HETATM    1  C   UNL     1     -10.636   9.755  69.531  1.00  0.00    -0.233 C  
HETATM    2  N   UNL     1     -10.625   8.448  70.183  1.00  0.00    -0.229 N  
HETATM    3  O   UNL     1     -12.701   8.742  71.129  1.00  0.00    -0.255 OA 
HETATM    4  C   UNL     1     -11.699   8.047  70.982  1.00  0.00    -0.277 C  
ENDROOT
BRANCH   2   5
HETATM    5  C   UNL     1      -9.478   7.631  69.933  1.00  0.00    -0.160 A  
HETATM    6  I   UNL     1      -8.911   8.331  72.896  1.00  0.00    -0.079 I  
HETATM    7  C   UNL     1      -9.363   6.932  68.705  1.00  0.00    -0.135 A  
HETATM    8  C   UNL     1      -8.206   6.175  68.426  1.00  0.00    -0.115 A  
HETATM    9  C   UNL     1      -8.460   7.524  70.916  1.00  0.00    -0.125 A  
HETATM   10  I   UNL     1     -11.024   7.035  67.315  1.00  0.00     0.130 I  
HETATM   11  C   UNL     1      -7.253   6.833  70.635  1.00  0.00    -0.070 A  
HETATM   12  I   UNL     1      -5.167   5.531  68.703  1.00  0.00     0.000 I  
HETATM   13  C   UNL     1      -7.126   6.210  69.361  1.00  0.00    -0.069 A  
BRANCH   8  14
HETATM   14  C   UNL     1      -8.155   5.216  67.278  1.00  0.00    -0.104 C  
HETATM   15  H   UNL     1      -7.399   4.972  65.480  1.00  0.00     0.000 HD 
HETATM   16  O   UNL     1      -7.431   5.581  66.208  1.00  0.00    -0.084 OA 
BRANCH  14  17
HETATM   17  N   UNL     1      -8.783   4.101  67.309  1.00  0.00    -0.104 NA 
HETATM   18  H   UNL     1      -9.803   4.075  67.287  1.00  0.00     0.000 HD 
BRANCH  17  19
HETATM   19  C   UNL     1      -7.999   2.858  67.378  1.00  0.00    -0.076 C  
BRANCH  19  20
HETATM   20  C   UNL     1      -7.495   2.498  65.975  1.00  0.00    -0.068 C  
HETATM   21  H   UNL     1      -5.940   1.569  65.199  1.00  0.00     0.000 HD 
HETATM   22  O   UNL     1      -6.253   1.792  66.068  1.00  0.00    -0.022 OA 
BRANCH  20  23
HETATM   23  C   UNL     1      -8.534   1.659  65.211  1.00  0.00    -0.098 C  
HETATM   24  O   UNL     1      -9.784   2.340  65.102  1.00  0.00    -0.352 OA 
HETATM   25  H   UNL     1     -10.425   1.822  64.630  1.00  0.00     0.000 HD 
ENDBRANCH  20  23
ENDBRANCH  19  20
ENDBRANCH  17  19
ENDBRANCH  14  17
ENDBRANCH   8  14
BRANCH  11  26
HETATM   26  C   UNL     1      -6.172   6.780  71.676  1.00  0.00    -0.038 C  
HETATM   27  O   UNL     1      -5.885   7.944  72.294  1.00  0.00    -0.039 OA 
HETATM   28  H   UNL     1      -5.200   7.911  72.953  1.00  0.00     0.000 HD 
BRANCH  26  29
HETATM   29  N   UNL     1      -5.502   5.719  71.934  1.00  0.00    -0.020 NA 
HETATM   30  H   UNL     1      -5.008   5.225  71.191  1.00  0.00     0.000 HD 
BRANCH  29  31
HETATM   31  C   UNL     1      -5.455   5.221  73.318  1.00  0.00    -0.022 C  
BRANCH  31  32
HETATM   32  C   UNL     1      -5.913   3.748  73.431  1.00  0.00    -0.008 C  
HETATM   33  O   UNL     1      -6.930   3.565  74.428  1.00  0.00    -0.044 OA 
HETATM   34  H   UNL     1      -7.211   2.660  74.498  1.00  0.00     0.000 HD 
BRANCH  32  35
HETATM   35  C   UNL     1      -6.476   3.261  72.085  1.00  0.00    -0.015 C  
HETATM   36  O   UNL     1      -7.854   3.595  71.918  1.00  0.00    -0.060 OA 
HETATM   37  H   UNL     1      -8.202   3.294  71.087  1.00  0.00     0.000 HD 
ENDBRANCH  32  35
ENDBRANCH  31  32
ENDBRANCH  29  31
ENDBRANCH  26  29
ENDBRANCH  11  26
ENDBRANCH   2   5
BRANCH   4  38
HETATM   38  C   UNL     1     -11.592   6.699  71.717  1.00  0.00    -0.304 C  
HETATM   39  O   UNL     1     -11.467   5.620  70.811  1.00  0.00    -0.047 OA 
HETATM   40  H   UNL     1     -11.400   4.788  71.264  1.00  0.00     0.000 HD 
ENDBRANCH   4  38
TORSDOF 12
ENDMDL
MODEL      204
REMARK 921   NORMALIZED FREE ENERGY PREDICTED BY IDOCK:   -0.31 KCAL/MOL
REMARK 922        TOTAL FREE ENERGY PREDICTED BY IDOCK:   -1.56 KCAL/MOL
REMARK 923 INTER-LIGAND FREE ENERGY PREDICTED BY IDOCK:   -2.18 KCAL/MOL
REMARK 924 INTRA-LIGAND FREE ENERGY PREDICTED BY IDOCK:    0.61 KCAL/MOL
REMARK 927      BINDING AFFINITY PREDICTED BY RF-SCORE:    0.00 PKD
ROOT
HETATM    1  C   UNL     1      -8.692  13.541  65.411  1.00  0.00     1.991 C  
HETATM    2  N   UNL     1      -9.144  12.161  65.267  1.00  0.00     0.232 N  
HETATM    3  O   UNL     1      -9.860  12.468  63.103  1.00  0.00    -0.204 OA 
HETATM    4  C   UNL     1      -9.738  11.731  64.078  1.00  0.00    -0.178 C  
ENDROOT
BRANCH   2   5
HETATM    5  C   UNL     1      -8.922  11.306  66.393  1.00  0.00    -0.188 A  
HETATM    6  I   UNL     1     -11.780  12.267  67.099  1.00  0.00    -0.092 I  
HETATM    7  C   UNL     1      -7.759  10.495  66.445  1.00  0.00    -0.135 A  
HETATM    8  C   UNL     1      -7.502   9.699  67.580  1.00  0.00    -0.091 A  
HETATM    9  C   UNL     1      -9.866  11.274  67.452  1.00  0.00    -0.181 A  
HETATM   10  I   UNL     1      -6.439  10.497  64.725  1.00  0.00     0.299 I  
HETATM   11  C   UNL     1      -9.598  10.542  68.637  1.00  0.00    -0.171 A  
HETATM   12  I   UNL     1      -7.706   9.036  70.620  1.00  0.00    -0.157 I  
HETATM   13  C   UNL     1      -8.383   9.802  68.701  1.00  0.00    -0.111 A  
BRANCH   8  14
HETATM   14  C   UNL     1      -6.447   8.637  67.569  1.00  0.00    -0.058 C  
HETATM   15  H   UNL     1      -4.577   8.290  68.066  1.00  0.00     0.000 HD 
HETATM   16  O   UNL     1      -5.246   8.964  68.073  1.00  0.00    -0.034 OA 
BRANCH  14  17
HETATM   17  N   UNL     1      -6.674   7.472  67.090  1.00  0.00    -0.065 NA 
HETATM   18  H   UNL     1      -6.015   7.035  66.446  1.00  0.00     0.000 HD 
BRANCH  17  19
HETATM   19  C   UNL     1      -7.909   6.780  67.491  1.00  0.00    -0.111 C  
BRANCH  19  20
HETATM   20  C   UNL     1      -8.649   6.296  66.238  1.00  0.00    -0.138 C  
HETATM   21  H   UNL     1     -10.521   6.021  65.689  1.00  0.00     0.000 HD 
HETATM   22  O   UNL     1     -10.062   6.321  66.465  1.00  0.00    -0.167 OA 
BRANCH  20  23
HETATM   23  C   UNL     1      -8.285   7.152  65.013  1.00  0.00    -0.093 C  
HETATM   24  O   UNL     1      -7.376   6.473  64.147  1.00  0.00    -0.064 OA 
HETATM   25  H   UNL     1      -7.151   7.003  63.391  1.00  0.00     0.000 HD 
ENDBRANCH  20  23
ENDBRANCH  19  20
ENDBRANCH  17  19
ENDBRANCH  14  17
ENDBRANCH   8  14
BRANCH  11  26
HETATM   26  C   UNL     1     -10.593  10.567  69.762  1.00  0.00    -0.227 C  
HETATM   27  O   UNL     1     -10.880   9.377  70.328  1.00  0.00    -0.228 OA 
HETATM   28  H   UNL     1     -11.509   9.392  71.040  1.00  0.00     0.000 HD 
BRANCH  26  29
HETATM   29  N   UNL     1     -11.195  11.634  70.138  1.00  0.00    -0.472 NA 
HETATM   30  H   UNL     1     -10.679  12.506  70.255  1.00  0.00     0.000 HD 
BRANCH  29  31
HETATM   31  C   UNL     1     -12.643  11.584  70.398  1.00  0.00    -0.157 C  
BRANCH  31  32
HETATM   32  C   UNL     1     -13.160  12.862  71.098  1.00  0.00    -0.087 C  
HETATM   33  O   UNL     1     -13.745  12.586  72.380  1.00  0.00    -0.572 OA 
HETATM   34  H   UNL     1     -14.064  13.371  72.810  1.00  0.00     0.000 HD 
BRANCH  32  35
HETATM   35  C   UNL     1     -12.006  13.857  71.309  1.00  0.00    -0.038 C  
HETATM   36  O   UNL     1     -12.273  14.785  72.362  1.00  0.00    -0.335 OA 
HETATM   37  H   UNL     1     -11.560  15.399  72.492  1.00  0.00     0.000 HD 
ENDBRANCH  32  35
ENDBRANCH  31  32
ENDBRANCH  29  31
ENDBRANCH  26  29
ENDBRANCH  11  26
ENDBRANCH   2   5
BRANCH   4  38
HETATM   38  C   UNL     1     -10.278  10.291  64.016  1.00  0.00     0.159 C  
HETATM   39  O   UNL     1      -9.551   9.501  63.095  1.00  0.00    -0.505 OA 
HETATM   40  H   UNL     1      -9.884   8.611  63.058  1.00  0.00     0.000 HD 
ENDBRANCH   4  38
TORSDOF 12
ENDMDL
MODEL      205
REMARK 921   NORMALIZED FREE ENERGY PREDICTED BY IDOCK:    0.09 KCAL/MOL
REMARK 922        TOTAL FREE ENERGY PREDICTED BY IDOCK:   -0.88 KCAL/MOL
REMARK 923 INTER-LIGAND FREE ENERGY PREDICTED BY IDOCK:   -2.05 KCAL/MOL
REMARK 924 INTRA-LIGAND FREE ENERGY PREDICTED BY IDOCK:    1.17 KCAL/MOL
REMARK 927      BINDING AFFINITY PREDICTED BY RF-SCORE:    0.00 PKD
ROOT
HETATM    1  C   UNL     1     -11.424  11.718  71.077  1.00  0.00     1.302 C  
HETATM    2  N   UNL     1     -12.095  12.935  70.630  1.00  0.00    -0.314 N  
HETATM    3  O   UNL     1     -13.374  13.103  72.535  1.00  0.00    -0.534 OA 
HETATM    4  C   UNL     1     -13.075  13.535  71.425  1.00  0.00    -0.305 C  
ENDROOT
BRANCH   2   5
HETATM    5  C   UNL     1     -11.674  13.457  69.366  1.00  0.00    -0.325 A  
HETATM    6  I   UNL     1     -10.733  15.793  71.168  1.00  0.00     0.914 I  
HETATM    7  C   UNL     1     -11.762  12.649  68.204  1.00  0.00    -0.347 A  
HETATM    8  C   UNL     1     -11.409  13.178  66.945  1.00  0.00    -0.355 A  
HETATM    9  C   UNL     1     -11.171  14.781  69.281  1.00  0.00    -0.283 A  
HETATM   10  I   UNL     1     -12.409  10.593  68.440  1.00  0.00     2.952 I  
HETATM   11  C   UNL     1     -10.879  15.364  68.022  1.00  0.00    -0.292 A  
HETATM   12  I   UNL     1     -11.062  15.509  64.903  1.00  0.00    -0.133 I  
HETATM   13  C   UNL     1     -11.056  14.560  66.860  1.00  0.00    -0.325 A  
BRANCH   8  14
HETATM   14  C   UNL     1     -11.229  12.298  65.748  1.00  0.00    -0.337 C  
HETATM   15  H   UNL     1     -12.142  11.658  64.129  1.00  0.00     0.000 HD 
HETATM   16  O   UNL     1     -12.256  12.217  64.888  1.00  0.00    -0.410 OA 
BRANCH  14  17
HETATM   17  N   UNL     1     -10.148  11.640  65.558  1.00  0.00    -0.236 NA 
HETATM   18  H   UNL     1      -9.273  11.933  65.994  1.00  0.00     0.000 HD 
BRANCH  17  19
HETATM   19  C   UNL     1     -10.196  10.450  64.694  1.00  0.00    -0.235 C  
BRANCH  19  20
HETATM   20  C   UNL     1      -9.358  10.702  63.435  1.00  0.00    -0.297 C  
HETATM   21  H   UNL     1      -8.788  12.261  62.374  1.00  0.00     0.000 HD 
HETATM   22  O   UNL     1      -9.307  12.105  63.154  1.00  0.00    -0.203 OA 
BRANCH  20  23
HETATM   23  C   UNL     1      -7.937  10.133  63.591  1.00  0.00    -0.160 C  
HETATM   24  O   UNL     1      -7.589   9.954  64.963  1.00  0.00    -0.122 OA 
HETATM   25  H   UNL     1      -6.711   9.602  65.059  1.00  0.00     0.000 HD 
ENDBRANCH  20  23
ENDBRANCH  19  20
ENDBRANCH  17  19
ENDBRANCH  14  17
ENDBRANCH   8  14
BRANCH  11  26
HETATM   26  C   UNL     1     -10.396  16.785  67.959  1.00  0.00    -0.317 C  
HETATM   27  O   UNL     1     -11.300  17.702  67.555  1.00  0.00     0.099 OA 
HETATM   28  H   UNL     1     -10.995  18.602  67.515  1.00  0.00     0.000 HD 
BRANCH  26  29
HETATM   29  N   UNL     1      -9.185  17.123  68.206  1.00  0.00    -0.254 NA 
HETATM   30  H   UNL     1      -8.658  16.656  68.943  1.00  0.00     0.000 HD 
BRANCH  29  31
HETATM   31  C   UNL     1      -8.566  18.195  67.411  1.00  0.00    -0.244 C  
BRANCH  31  32
HETATM   32  C   UNL     1      -7.040  18.001  67.247  1.00  0.00    -0.189 C  
HETATM   33  O   UNL     1      -6.318  18.300  68.452  1.00  0.00    -0.190 OA 
HETATM   34  H   UNL     1      -5.380  18.181  68.352  1.00  0.00     0.000 HD 
BRANCH  32  35
HETATM   35  C   UNL     1      -6.728  16.546  66.857  1.00  0.00    -0.198 C  
HETATM   36  O   UNL     1      -6.529  15.707  67.995  1.00  0.00    -0.116 OA 
HETATM   37  H   UNL     1      -6.336  14.809  67.754  1.00  0.00     0.000 HD 
ENDBRANCH  32  35
ENDBRANCH  31  32
ENDBRANCH  29  31
ENDBRANCH  26  29
ENDBRANCH  11  26
ENDBRANCH   2   5
BRANCH   4  38
HETATM   38  C   UNL     1     -13.814  14.763  70.861  1.00  0.00    -0.086 C  
HETATM   39  O   UNL     1     -14.358  15.563  71.894  1.00  0.00    -0.509 OA 
HETATM   40  H   UNL     1     -14.814  16.321  71.546  1.00  0.00     0.000 HD 
ENDBRANCH   4  38
TORSDOF 12
ENDMDL
MODEL      206
REMARK 921   NORMALIZED FREE ENERGY PREDICTED BY IDOCK:    0.34 KCAL/MOL
REMARK 922        TOTAL FREE ENERGY PREDICTED BY IDOCK:   -0.45 KCAL/MOL
REMARK 923 INTER-LIGAND FREE ENERGY PREDICTED BY IDOCK:   -0.60 KCAL/MOL
REMARK 924 INTRA-LIGAND FREE ENERGY PREDICTED BY IDOCK:    0.15 KCAL/MOL
REMARK 927      BINDING AFFINITY PREDICTED BY RF-SCORE:    0.00 PKD
ROOT
HETATM    1  C   UNL     1     -11.310  12.131  70.747  1.00  0.00     1.354 C  
HETATM    2  N   UNL     1     -11.144  12.171  69.297  1.00  0.00    -0.204 N  
HETATM    3  O   UNL     1     -13.240  11.317  68.887  1.00  0.00     1.214 OA 
HETATM    4  C   UNL     1     -12.162  11.717  68.455  1.00  0.00     0.125 C  
ENDROOT
BRANCH   2   5
HETATM    5  C   UNL     1      -9.907  12.711  68.821  1.00  0.00     0.029 A  
HETATM    6  I   UNL     1      -9.370   9.722  68.215  1.00  0.00    -0.147 I  
HETATM    7  C   UNL     1      -9.730  14.117  68.753  1.00  0.00    -0.148 A  
HETATM    8  C   UNL     1      -8.493  14.655  68.345  1.00  0.00    -0.160 A  
HETATM    9  C   UNL     1      -8.863  11.837  68.421  1.00  0.00    -0.161 A  
HETATM   10  I   UNL     1     -11.421  15.381  69.249  1.00  0.00    -0.424 I  
HETATM   11  C   UNL     1      -7.585  12.348  68.079  1.00  0.00    -0.128 A  
HETATM   12  I   UNL     1      -5.392  14.577  68.027  1.00  0.00     0.021 I  
HETATM   13  C   UNL     1      -7.406  13.760  68.099  1.00  0.00    -0.124 A  
BRANCH   8  14
HETATM   14  C   UNL     1      -8.344  16.105  68.002  1.00  0.00    -0.163 C  
HETATM   15  H   UNL     1      -8.954  17.479  66.736  1.00  0.00     0.000 HD 
HETATM   16  O   UNL     1      -9.048  16.560  66.954  1.00  0.00    -0.204 OA 
BRANCH  14  17
HETATM   17  N   UNL     1      -7.570  16.875  68.669  1.00  0.00    -0.221 NA 
HETATM   18  H   UNL     1      -6.557  16.761  68.629  1.00  0.00     0.000 HD 
BRANCH  17  19
HETATM   19  C   UNL     1      -8.177  17.930  69.496  1.00  0.00     0.664 C  
BRANCH  19  20
HETATM   20  C   UNL     1      -8.191  19.246  68.710  1.00  0.00    -0.355 C  
HETATM   21  H   UNL     1      -9.501  20.654  68.283  1.00  0.00     0.000 HD 
HETATM   22  O   UNL     1      -9.493  19.838  68.771  1.00  0.00    -0.339 OA 
BRANCH  20  23
HETATM   23  C   UNL     1      -7.130  20.223  69.245  1.00  0.00     0.029 C  
HETATM   24  O   UNL     1      -6.327  19.624  70.262  1.00  0.00    -0.264 OA 
HETATM   25  H   UNL     1      -5.671  20.228  70.592  1.00  0.00     0.000 HD 
ENDBRANCH  20  23
ENDBRANCH  19  20
ENDBRANCH  17  19
ENDBRANCH  14  17
ENDBRANCH   8  14
BRANCH  11  26
HETATM   26  C   UNL     1      -6.483  11.396  67.708  1.00  0.00    -0.065 C  
HETATM   27  O   UNL     1      -6.231  11.264  66.389  1.00  0.00    -0.181 OA 
HETATM   28  H   UNL     1      -5.535  10.661  66.154  1.00  0.00     0.000 HD 
BRANCH  26  29
HETATM   29  N   UNL     1      -5.851  10.690  68.570  1.00  0.00    -0.040 NA 
HETATM   30  H   UNL     1      -5.592   9.726  68.360  1.00  0.00     0.000 HD 
BRANCH  29  31
HETATM   31  C   UNL     1      -5.502  11.290  69.868  1.00  0.00    -0.068 C  
BRANCH  31  32
HETATM   32  C   UNL     1      -5.917  10.396  71.060  1.00  0.00     0.012 C  
HETATM   33  O   UNL     1      -7.319  10.083  71.048  1.00  0.00    -0.339 OA 
HETATM   34  H   UNL     1      -7.575   9.535  71.781  1.00  0.00     0.000 HD 
BRANCH  32  35
HETATM   35  C   UNL     1      -5.136   9.071  71.030  1.00  0.00    -0.028 C  
HETATM   36  O   UNL     1      -5.662   8.151  70.073  1.00  0.00    -0.023 OA 
HETATM   37  H   UNL     1      -5.180   7.333  70.055  1.00  0.00     0.000 HD 
ENDBRANCH  32  35
ENDBRANCH  31  32
ENDBRANCH  29  31
ENDBRANCH  26  29
ENDBRANCH  11  26
ENDBRANCH   2   5
BRANCH   4  38
HETATM   38  C   UNL     1     -11.895  11.698  66.939  1.00  0.00     0.093 C  
HETATM   39  O   UNL     1     -12.636  12.698  66.267  1.00  0.00    -0.358 OA 
HETATM   40  H   UNL     1     -12.471  12.687  65.331  1.00  0.00     0.000 HD 
ENDBRANCH   4  38
TORSDOF 12
ENDMDL
MODEL      207
REMARK 921   NORMALIZED FREE ENERGY PREDICTED BY IDOCK:    0.46 KCAL/MOL
REMARK 922        TOTAL FREE ENERGY PREDICTED BY IDOCK:   -0.25 KCAL/MOL
REMARK 923 INTER-LIGAND FREE ENERGY PREDICTED BY IDOCK:   -3.68 KCAL/MOL
REMARK 924 INTRA-LIGAND FREE ENERGY PREDICTED BY IDOCK:    3.43 KCAL/MOL
REMARK 927      BINDING AFFINITY PREDICTED BY RF-SCORE:    0.00 PKD
ROOT
HETATM    1  C   UNL     1      -9.285  11.848  65.052  1.00  0.00     0.195 C  
HETATM    2  N   UNL     1      -9.763  11.450  66.373  1.00  0.00    -0.199 N  
HETATM    3  O   UNL     1     -11.963  11.904  65.873  1.00  0.00    -0.480 OA 
HETATM    4  C   UNL     1     -11.121  11.541  66.691  1.00  0.00    -0.295 C  
ENDROOT
BRANCH   2   5
HETATM    5  C   UNL     1      -8.770  10.961  67.279  1.00  0.00    -0.131 A  
HETATM    6  I   UNL     1      -9.423   8.303  65.832  1.00  0.00     0.263 I  
HETATM    7  C   UNL     1      -8.041  11.872  68.086  1.00  0.00    -0.155 A  
HETATM    8  C   UNL     1      -7.107  11.393  69.027  1.00  0.00    -0.117 A  
HETATM    9  C   UNL     1      -8.521   9.567  67.369  1.00  0.00    -0.125 A  
HETATM   10  I   UNL     1      -8.382  13.993  67.789  1.00  0.00    -0.236 I  
HETATM   11  C   UNL     1      -7.643   9.052  68.356  1.00  0.00    -0.090 A  
HETATM   12  I   UNL     1      -5.995   9.256  71.006  1.00  0.00    -0.069 I  
HETATM   13  C   UNL     1      -6.986   9.981  69.211  1.00  0.00    -0.063 A  
BRANCH   8  14
HETATM   14  C   UNL     1      -6.131  12.309  69.698  1.00  0.00    -0.132 C  
HETATM   15  H   UNL     1      -5.613  13.019  71.457  1.00  0.00     0.000 HD 
HETATM   16  O   UNL     1      -6.232  12.438  71.031  1.00  0.00    -0.064 OA 
BRANCH  14  17
HETATM   17  N   UNL     1      -5.248  12.952  69.031  1.00  0.00    -0.068 NA 
HETATM   18  H   UNL     1      -4.275  12.646  69.023  1.00  0.00     0.000 HD 
BRANCH  17  19
HETATM   19  C   UNL     1      -5.671  14.142  68.277  1.00  0.00    -0.117 C  
BRANCH  19  20
HETATM   20  C   UNL     1      -5.773  15.338  69.231  1.00  0.00    -0.097 C  
HETATM   21  H   UNL     1      -5.216  15.762  71.073  1.00  0.00     0.000 HD 
HETATM   22  O   UNL     1      -5.153  15.020  70.482  1.00  0.00    -0.111 OA 
BRANCH  20  23
HETATM   23  C   UNL     1      -5.132  16.594  68.616  1.00  0.00    -0.121 C  
HETATM   24  O   UNL     1      -5.176  16.564  67.190  1.00  0.00    -0.191 OA 
HETATM   25  H   UNL     1      -4.780  17.340  66.810  1.00  0.00     0.000 HD 
ENDBRANCH  20  23
ENDBRANCH  19  20
ENDBRANCH  17  19
ENDBRANCH  14  17
ENDBRANCH   8  14
BRANCH  11  26
HETATM   26  C   UNL     1      -7.437   7.567  68.460  1.00  0.00    -0.108 C  
HETATM   27  O   UNL     1      -6.398   7.061  67.764  1.00  0.00    -0.039 OA 
HETATM   28  H   UNL     1      -6.268   6.122  67.830  1.00  0.00     0.000 HD 
BRANCH  26  29
HETATM   29  N   UNL     1      -8.227   6.797  69.112  1.00  0.00    -0.120 NA 
HETATM   30  H   UNL     1      -9.233   6.832  68.952  1.00  0.00     0.000 HD 
BRANCH  29  31
HETATM   31  C   UNL     1      -7.661   5.859  70.095  1.00  0.00    -0.095 C  
BRANCH  31  32
HETATM   32  C   UNL     1      -8.504   4.569  70.231  1.00  0.00    -0.074 C  
HETATM   33  O   UNL     1      -9.846   4.738  69.747  1.00  0.00    -0.184 OA 
HETATM   34  H   UNL     1     -10.364   3.946  69.831  1.00  0.00     0.000 HD 
BRANCH  32  35
HETATM   35  C   UNL     1      -7.855   3.423  69.437  1.00  0.00    -0.050 C  
HETATM   36  O   UNL     1      -8.674   2.254  69.399  1.00  0.00    -0.066 OA 
HETATM   37  H   UNL     1      -8.273   1.546  68.909  1.00  0.00     0.000 HD 
ENDBRANCH  32  35
ENDBRANCH  31  32
ENDBRANCH  29  31
ENDBRANCH  26  29
ENDBRANCH  11  26
ENDBRANCH   2   5
BRANCH   4  38
HETATM   38  C   UNL     1     -11.553  11.195  68.127  1.00  0.00    -0.280 C  
HETATM   39  O   UNL     1     -10.887  12.002  69.080  1.00  0.00    -0.264 OA 
HETATM   40  H   UNL     1     -11.154  11.788  69.967  1.00  0.00     0.000 HD 
ENDBRANCH   4  38
TORSDOF 12
ENDMDL
MODEL      208
REMARK 921   NORMALIZED FREE ENERGY PREDICTED BY IDOCK:    0.61 KCAL/MOL
REMARK 922        TOTAL FREE ENERGY PREDICTED BY IDOCK:   -0.01 KCAL/MOL
REMARK 923 INTER-LIGAND FREE ENERGY PREDICTED BY IDOCK:   -0.21 KCAL/MOL
REMARK 924 INTRA-LIGAND FREE ENERGY PREDICTED BY IDOCK:    0.21 KCAL/MOL
REMARK 927      BINDING AFFINITY PREDICTED BY RF-SCORE:    0.00 PKD
ROOT
HETATM    1  C   UNL     1      -9.031  14.151  65.971  1.00  0.00     0.328 C  
HETATM    2  N   UNL     1      -8.299  14.594  67.154  1.00  0.00    -0.211 N  
HETATM    3  O   UNL     1      -6.749  12.900  67.008  1.00  0.00    -0.100 OA 
HETATM    4  C   UNL     1      -7.184  13.882  67.604  1.00  0.00    -0.174 C  
ENDROOT
BRANCH   2   5
HETATM    5  C   UNL     1      -8.784  15.783  67.784  1.00  0.00    -0.170 A  
HETATM    6  I   UNL     1     -10.423  13.706  69.393  1.00  0.00     0.609 I  
HETATM    7  C   UNL     1      -8.197  17.037  67.474  1.00  0.00    -0.180 A  
HETATM    8  C   UNL     1      -8.711  18.220  68.043  1.00  0.00    -0.287 A  
HETATM    9  C   UNL     1      -9.852  15.704  68.716  1.00  0.00    -0.213 A  
HETATM   10  I   UNL     1      -6.481  17.057  66.149  1.00  0.00     0.846 I  
HETATM   11  C   UNL     1     -10.438  16.881  69.246  1.00  0.00    -0.319 A  
HETATM   12  I   UNL     1     -10.995  19.958  69.261  1.00  0.00     2.739 I  
HETATM   13  C   UNL     1      -9.885  18.133  68.854  1.00  0.00    -0.309 A  
BRANCH   8  14
HETATM   14  C   UNL     1      -7.968  19.516  67.961  1.00  0.00    -0.307 C  
HETATM   15  H   UNL     1      -7.872  21.200  66.951  1.00  0.00     0.000 HD 
HETATM   16  O   UNL     1      -8.344  20.378  67.003  1.00  0.00    -0.322 OA 
BRANCH  14  17
HETATM   17  N   UNL     1      -7.006  19.788  68.761  1.00  0.00    -0.327 NA 
HETATM   18  H   UNL     1      -6.142  20.207  68.417  1.00  0.00     0.000 HD 
BRANCH  17  19
HETATM   19  C   UNL     1      -7.178  19.481  70.190  1.00  0.00     0.341 C  
BRANCH  19  20
HETATM   20  C   UNL     1      -6.004  18.618  70.668  1.00  0.00     0.086 C  
HETATM   21  H   UNL     1      -4.438  17.741  69.856  1.00  0.00     0.000 HD 
HETATM   22  O   UNL     1      -5.165  18.276  69.560  1.00  0.00    -0.182 OA 
BRANCH  20  23
HETATM   23  C   UNL     1      -5.191  19.342  71.755  1.00  0.00    -0.332 C  
HETATM   24  O   UNL     1      -5.766  20.603  72.092  1.00  0.00    -0.594 OA 
HETATM   25  H   UNL     1      -5.264  21.050  72.764  1.00  0.00     0.000 HD 
ENDBRANCH  20  23
ENDBRANCH  19  20
ENDBRANCH  17  19
ENDBRANCH  14  17
ENDBRANCH   8  14
BRANCH  11  26
HETATM   26  C   UNL     1     -11.600  16.768  70.191  1.00  0.00     0.633 C  
HETATM   27  O   UNL     1     -11.321  16.944  71.499  1.00  0.00    -0.353 OA 
HETATM   28  H   UNL     1     -12.056  16.872  72.098  1.00  0.00     0.000 HD 
BRANCH  26  29
HETATM   29  N   UNL     1     -12.783  16.457  69.809  1.00  0.00    -0.098 NA 
HETATM   30  H   UNL     1     -13.331  17.106  69.245  1.00  0.00     0.000 HD 
BRANCH  29  31
HETATM   31  C   UNL     1     -13.340  15.151  70.196  1.00  0.00     0.231 C  
BRANCH  31  32
HETATM   32  C   UNL     1     -13.242  14.897  71.718  1.00  0.00    -0.349 C  
HETATM   33  O   UNL     1     -13.937  15.892  72.486  1.00  0.00    -0.511 OA 
HETATM   34  H   UNL     1     -13.877  15.736  73.422  1.00  0.00     0.000 HD 
BRANCH  32  35
HETATM   35  C   UNL     1     -13.842  13.524  72.068  1.00  0.00    -0.436 C  
HETATM   36  O   UNL     1     -13.038  12.799  72.999  1.00  0.00    -0.085 OA 
HETATM   37  H   UNL     1     -13.409  11.952  73.215  1.00  0.00     0.000 HD 
ENDBRANCH  32  35
ENDBRANCH  31  32
ENDBRANCH  29  31
ENDBRANCH  26  29
ENDBRANCH  11  26
ENDBRANCH   2   5
BRANCH   4  38
HETATM   38  C   UNL     1      -6.508  14.343  68.909  1.00  0.00    -0.094 C  
HETATM   39  O   UNL     1      -5.142  13.979  68.944  1.00  0.00    -0.074 OA 
HETATM   40  H   UNL     1      -4.724  14.264  69.749  1.00  0.00     0.000 HD 
ENDBRANCH   4  38
TORSDOF 12
ENDMDL
MODEL      209
REMARK 921   NORMALIZED FREE ENERGY PREDICTED BY IDOCK:    0.86 KCAL/MOL
REMARK 922        TOTAL FREE ENERGY PREDICTED BY IDOCK:    0.42 KCAL/MOL
REMARK 923 INTER-LIGAND FREE ENERGY PREDICTED BY IDOCK:   -3.32 KCAL/MOL
REMARK 924 INTRA-LIGAND FREE ENERGY PREDICTED BY IDOCK:    3.74 KCAL/MOL
REMARK 927      BINDING AFFINITY PREDICTED BY RF-SCORE:    0.00 PKD
ROOT
HETATM    1  C   UNL     1     -11.890  15.898  67.425  1.00  0.00     0.470 C  
HETATM    2  N   UNL     1     -11.344  14.796  68.212  1.00  0.00    -0.287 N  
HETATM    3  O   UNL     1     -13.215  14.623  69.538  1.00  0.00     0.536 OA 
HETATM    4  C   UNL     1     -12.079  14.246  69.265  1.00  0.00    -0.313 C  
ENDROOT
BRANCH   2   5
HETATM    5  C   UNL     1     -10.049  14.328  67.823  1.00  0.00    -0.231 A  
HETATM    6  I   UNL     1     -11.768  12.310  66.223  1.00  0.00    -0.123 I  
HETATM    7  C   UNL     1      -8.892  15.056  68.202  1.00  0.00    -0.167 A  
HETATM    8  C   UNL     1      -7.610  14.568  67.877  1.00  0.00    -0.153 A  
HETATM    9  C   UNL     1      -9.928  13.137  67.061  1.00  0.00    -0.244 A  
HETATM   10  I   UNL     1      -9.169  16.938  69.243  1.00  0.00     0.429 I  
HETATM   11  C   UNL     1      -8.652  12.582  66.785  1.00  0.00    -0.109 A  
HETATM   12  I   UNL     1      -5.574  12.288  67.257  1.00  0.00     0.077 I  
HETATM   13  C   UNL     1      -7.506  13.288  67.249  1.00  0.00    -0.055 A  
BRANCH   8  14
HETATM   14  C   UNL     1      -6.388  15.421  68.014  1.00  0.00    -0.139 C  
HETATM   15  H   UNL     1      -4.433  15.392  67.817  1.00  0.00     0.000 HD 
HETATM   16  O   UNL     1      -5.208  14.850  67.730  1.00  0.00    -0.243 OA 
BRANCH  14  17
HETATM   17  N   UNL     1      -6.463  16.640  68.399  1.00  0.00    -0.132 NA 
HETATM   18  H   UNL     1      -7.353  17.040  68.697  1.00  0.00     0.000 HD 
BRANCH  17  19
HETATM   19  C   UNL     1      -5.235  17.449  68.400  1.00  0.00    -0.141 C  
BRANCH  19  20
HETATM   20  C   UNL     1      -5.601  18.928  68.221  1.00  0.00    -0.191 C  
HETATM   21  H   UNL     1      -7.238  19.977  67.904  1.00  0.00     0.000 HD 
HETATM   22  O   UNL     1      -7.011  19.061  68.015  1.00  0.00    -0.226 OA 
BRANCH  20  23
HETATM   23  C   UNL     1      -5.152  19.761  69.434  1.00  0.00    -0.180 C  
HETATM   24  O   UNL     1      -5.672  19.236  70.655  1.00  0.00    -0.230 OA 
HETATM   25  H   UNL     1      -5.395  19.751  71.404  1.00  0.00     0.000 HD 
ENDBRANCH  20  23
ENDBRANCH  19  20
ENDBRANCH  17  19
ENDBRANCH  14  17
ENDBRANCH   8  14
BRANCH  11  26
HETATM   26  C   UNL     1      -8.556  11.293  66.020  1.00  0.00    -0.130 C  
HETATM   27  O   UNL     1      -8.909  11.347  64.718  1.00  0.00    -0.384 OA 
HETATM   28  H   UNL     1      -8.849  10.531  64.234  1.00  0.00     0.000 HD 
BRANCH  26  29
HETATM   29  N   UNL     1      -8.226  10.181  66.564  1.00  0.00    -0.122 NA 
HETATM   30  H   UNL     1      -8.542   9.952  67.506  1.00  0.00     0.000 HD 
BRANCH  29  31
HETATM   31  C   UNL     1      -7.384   9.239  65.810  1.00  0.00    -0.094 C  
BRANCH  31  32
HETATM   32  C   UNL     1      -7.294   9.600  64.308  1.00  0.00    -0.122 C  
HETATM   33  O   UNL     1      -5.938   9.668  63.841  1.00  0.00    -0.089 OA 
HETATM   34  H   UNL     1      -5.883   9.890  62.919  1.00  0.00     0.000 HD 
BRANCH  32  35
HETATM   35  C   UNL     1      -8.034   8.549  63.463  1.00  0.00    -0.161 C  
HETATM   36  O   UNL     1      -9.286   9.028  62.972  1.00  0.00    -0.438 OA 
HETATM   37  H   UNL     1      -9.743   8.379  62.451  1.00  0.00     0.000 HD 
ENDBRANCH  32  35
ENDBRANCH  31  32
ENDBRANCH  29  31
ENDBRANCH  26  29
ENDBRANCH  11  26
ENDBRANCH   2   5
BRANCH   4  38
HETATM   38  C   UNL     1     -11.415  13.149  70.117  1.00  0.00     0.055 C  
HETATM   39  O   UNL     1     -11.926  13.134  71.437  1.00  0.00    -0.186 OA 
HETATM   40  H   UNL     1     -11.515  12.457  71.963  1.00  0.00     0.000 HD 
ENDBRANCH   4  38
TORSDOF 12
ENDMDL
MODEL      210
REMARK 921   NORMALIZED FREE ENERGY PREDICTED BY IDOCK:    0.97 KCAL/MOL
REMARK 922        TOTAL FREE ENERGY PREDICTED BY IDOCK:    0.62 KCAL/MOL
REMARK 923 INTER-LIGAND FREE ENERGY PREDICTED BY IDOCK:   -3.63 KCAL/MOL
REMARK 924 INTRA-LIGAND FREE ENERGY PREDICTED BY IDOCK:    4.25 KCAL/MOL
REMARK 927      BINDING AFFINITY PREDICTED BY RF-SCORE:    0.00 PKD
ROOT
HETATM    1  C   UNL     1      -5.628  10.334  68.776  1.00  0.00    -0.037 C  
HETATM    2  N   UNL     1      -6.966  10.292  69.359  1.00  0.00    -0.071 N  
HETATM    3  O   UNL     1      -6.402   8.679  70.900  1.00  0.00    -0.037 OA 
HETATM    4  C   UNL     1      -7.255   9.409  70.403  1.00  0.00    -0.111 C  
ENDROOT
BRANCH   2   5
HETATM    5  C   UNL     1      -7.920  11.205  68.810  1.00  0.00    -0.144 A  
HETATM    6  I   UNL     1      -6.257  13.219  70.473  1.00  0.00     0.638 I  
HETATM    7  C   UNL     1      -8.842  10.758  67.829  1.00  0.00    -0.130 A  
HETATM    8  C   UNL     1      -9.826  11.636  67.330  1.00  0.00    -0.203 A  
HETATM    9  C   UNL     1      -7.941  12.554  69.251  1.00  0.00     0.607 A  
HETATM   10  I   UNL     1      -8.653   8.722  67.108  1.00  0.00    -0.130 I  
HETATM   11  C   UNL     1      -8.964  13.439  68.823  1.00  0.00     0.119 A  
HETATM   12  I   UNL     1     -11.751  14.078  67.557  1.00  0.00    -0.404 I  
HETATM   13  C   UNL     1      -9.929  12.942  67.901  1.00  0.00    -0.233 A  
BRANCH   8  14
HETATM   14  C   UNL     1     -10.634  11.298  66.116  1.00  0.00    -0.258 C  
HETATM   15  H   UNL     1     -12.379  11.612  65.266  1.00  0.00     0.000 HD 
HETATM   16  O   UNL     1     -11.866  11.826  66.036  1.00  0.00    -0.446 OA 
BRANCH  14  17
HETATM   17  N   UNL     1     -10.177  10.530  65.200  1.00  0.00    -0.306 NA 
HETATM   18  H   UNL     1     -10.806  10.075  64.538  1.00  0.00     0.000 HD 
BRANCH  17  19
HETATM   19  C   UNL     1      -8.723  10.319  65.125  1.00  0.00    -0.175 C  
BRANCH  19  20
HETATM   20  C   UNL     1      -8.245  10.581  63.692  1.00  0.00    -0.076 C  
HETATM   21  H   UNL     1      -8.391  12.033  62.369  1.00  0.00     0.000 HD 
HETATM   22  O   UNL     1      -8.687  11.871  63.257  1.00  0.00     0.241 OA 
BRANCH  20  23
HETATM   23  C   UNL     1      -6.714  10.472  63.589  1.00  0.00     0.075 C  
HETATM   24  O   UNL     1      -6.235  10.950  62.333  1.00  0.00    -0.247 OA 
HETATM   25  H   UNL     1      -5.289  10.883  62.270  1.00  0.00     0.000 HD 
ENDBRANCH  20  23
ENDBRANCH  19  20
ENDBRANCH  17  19
ENDBRANCH  14  17
ENDBRANCH   8  14
BRANCH  11  26
HETATM   26  C   UNL     1      -8.991  14.846  69.346  1.00  0.00    -0.041 C  
HETATM   27  O   UNL     1      -9.791  15.070  70.409  1.00  0.00    -0.444 OA 
HETATM   28  H   UNL     1      -9.808  15.961  70.740  1.00  0.00     0.000 HD 
BRANCH  26  29
HETATM   29  N   UNL     1      -8.352  15.809  68.792  1.00  0.00    -0.180 NA 
HETATM   30  H   UNL     1      -8.073  16.625  69.336  1.00  0.00     0.000 HD 
BRANCH  29  31
HETATM   31  C   UNL     1      -8.025  15.721  67.360  1.00  0.00    -0.168 C  
BRANCH  31  32
HETATM   32  C   UNL     1      -7.144  16.899  66.883  1.00  0.00    -0.216 C  
HETATM   33  O   UNL     1      -7.789  17.691  65.873  1.00  0.00    -0.523 OA 
HETATM   34  H   UNL     1      -7.248  18.415  65.580  1.00  0.00     0.000 HD 
BRANCH  32  35
HETATM   35  C   UNL     1      -6.806  17.824  68.066  1.00  0.00    -0.191 C  
HETATM   36  O   UNL     1      -7.956  18.497  68.577  1.00  0.00    -0.308 OA 
HETATM   37  H   UNL     1      -7.747  19.068  69.306  1.00  0.00     0.000 HD 
ENDBRANCH  32  35
ENDBRANCH  31  32
ENDBRANCH  29  31
ENDBRANCH  26  29
ENDBRANCH  11  26
ENDBRANCH   2   5
BRANCH   4  38
HETATM   38  C   UNL     1      -8.706   9.343  70.916  1.00  0.00    -0.081 C  
HETATM   39  O   UNL     1      -9.247   8.043  70.783  1.00  0.00    -0.153 OA 
HETATM   40  H   UNL     1     -10.142   8.002  71.099  1.00  0.00     0.000 HD 
ENDBRANCH   4  38
TORSDOF 12
ENDMDL
MODEL      211
REMARK 921   NORMALIZED FREE ENERGY PREDICTED BY IDOCK:    1.38 KCAL/MOL
REMARK 922        TOTAL FREE ENERGY PREDICTED BY IDOCK:    1.31 KCAL/MOL
REMARK 923 INTER-LIGAND FREE ENERGY PREDICTED BY IDOCK:   -1.09 KCAL/MOL
REMARK 924 INTRA-LIGAND FREE ENERGY PREDICTED BY IDOCK:    2.41 KCAL/MOL
REMARK 927      BINDING AFFINITY PREDICTED BY RF-SCORE:    0.00 PKD
ROOT
HETATM    1  C   UNL     1     -11.859  12.548  67.277  1.00  0.00    -0.311 C  
HETATM    2  N   UNL     1     -11.079  12.171  68.452  1.00  0.00    -0.227 N  
HETATM    3  O   UNL     1     -12.523  10.481  69.047  1.00  0.00    -0.217 OA 
HETATM    4  C   UNL     1     -11.513  11.137  69.287  1.00  0.00    -0.294 C  
ENDROOT
BRANCH   2   5
HETATM    5  C   UNL     1      -9.870  12.904  68.666  1.00  0.00    -0.067 A  
HETATM    6  I   UNL     1      -8.634  10.279  67.584  1.00  0.00    -0.117 I  
HETATM    7  C   UNL     1      -9.929  14.272  69.035  1.00  0.00    -0.097 A  
HETATM    8  C   UNL     1      -8.743  14.984  69.309  1.00  0.00    -0.161 A  
HETATM    9  C   UNL     1      -8.616  12.258  68.508  1.00  0.00    -0.068 A  
HETATM   10  I   UNL     1     -11.877  15.220  69.118  1.00  0.00    -0.241 I  
HETATM   11  C   UNL     1      -7.411  12.926  68.848  1.00  0.00     0.020 A  
HETATM   12  I   UNL     1      -5.777  15.195  70.249  1.00  0.00    -0.096 I  
HETATM   13  C   UNL     1      -7.503  14.274  69.298  1.00  0.00    -0.022 A  
BRANCH   8  14
HETATM   14  C   UNL     1      -8.736  16.475  69.435  1.00  0.00     0.066 C  
HETATM   15  H   UNL     1      -9.286  17.944  70.620  1.00  0.00     0.000 HD 
HETATM   16  O   UNL     1      -9.291  16.998  70.540  1.00  0.00     2.276 OA 
BRANCH  14  17
HETATM   17  N   UNL     1      -8.234  17.222  68.525  1.00  0.00    -0.259 NA 
HETATM   18  H   UNL     1      -8.815  17.888  68.016  1.00  0.00     0.000 HD 
BRANCH  17  19
HETATM   19  C   UNL     1      -6.799  17.095  68.229  1.00  0.00    -0.177 C  
BRANCH  19  20
HETATM   20  C   UNL     1      -6.606  16.904  66.720  1.00  0.00    -0.225 C  
HETATM   21  H   UNL     1      -6.888  15.466  65.403  1.00  0.00     0.000 HD 
HETATM   22  O   UNL     1      -7.008  15.584  66.339  1.00  0.00     0.321 OA 
BRANCH  20  23
HETATM   23  C   UNL     1      -7.394  17.958  65.922  1.00  0.00    -0.212 C  
HETATM   24  O   UNL     1      -6.541  18.717  65.066  1.00  0.00    -0.496 OA 
HETATM   25  H   UNL     1      -7.028  19.368  64.574  1.00  0.00     0.000 HD 
ENDBRANCH  20  23
ENDBRANCH  19  20
ENDBRANCH  17  19
ENDBRANCH  14  17
ENDBRANCH   8  14
BRANCH  11  26
HETATM   26  C   UNL     1      -6.102  12.200  68.720  1.00  0.00    -0.067 C  
HETATM   27  O   UNL     1      -5.330  12.549  67.669  1.00  0.00    -0.091 OA 
HETATM   28  H   UNL     1      -4.502  12.091  67.588  1.00  0.00     0.000 HD 
BRANCH  26  29
HETATM   29  N   UNL     1      -5.746  11.256  69.509  1.00  0.00    -0.055 NA 
HETATM   30  H   UNL     1      -4.761  11.014  69.615  1.00  0.00     0.000 HD 
BRANCH  29  31
HETATM   31  C   UNL     1      -6.778  10.527  70.263  1.00  0.00    -0.123 C  
BRANCH  31  32
HETATM   32  C   UNL     1      -6.460   9.018  70.388  1.00  0.00    -0.046 C  
HETATM   33  O   UNL     1      -5.246   8.773  71.115  1.00  0.00    -0.028 OA 
HETATM   34  H   UNL     1      -5.051   7.846  71.192  1.00  0.00     0.000 HD 
BRANCH  32  35
HETATM   35  C   UNL     1      -7.604   8.292  71.117  1.00  0.00    -0.082 C  
HETATM   36  O   UNL     1      -8.166   9.078  72.167  1.00  0.00    -0.359 OA 
HETATM   37  H   UNL     1      -8.872   8.630  72.617  1.00  0.00     0.000 HD 
ENDBRANCH  32  35
ENDBRANCH  31  32
ENDBRANCH  29  31
ENDBRANCH  26  29
ENDBRANCH  11  26
ENDBRANCH   2   5
BRANCH   4  38
HETATM   38  C   UNL     1     -10.699  10.845  70.561  1.00  0.00     0.648 C  
HETATM   39  O   UNL     1     -10.714   9.468  70.884  1.00  0.00    -0.285 OA 
HETATM   40  H   UNL     1     -10.212   9.287  71.670  1.00  0.00     0.000 HD 
ENDBRANCH   4  38
TORSDOF 12
ENDMDL
MODEL      212
REMARK 921   NORMALIZED FREE ENERGY PREDICTED BY IDOCK:    1.46 KCAL/MOL
REMARK 922        TOTAL FREE ENERGY PREDICTED BY IDOCK:    1.45 KCAL/MOL
REMARK 923 INTER-LIGAND FREE ENERGY PREDICTED BY IDOCK:   -1.42 KCAL/MOL
REMARK 924 INTRA-LIGAND FREE ENERGY PREDICTED BY IDOCK:    2.86 KCAL/MOL
REMARK 927      BINDING AFFINITY PREDICTED BY RF-SCORE:    0.00 PKD
ROOT
HETATM    1  C   UNL     1     -11.317  12.135  70.763  1.00  0.00     1.354 C  
HETATM    2  N   UNL     1     -11.119  12.233  69.320  1.00  0.00    -0.199 N  
HETATM    3  O   UNL     1     -13.197  11.375  68.830  1.00  0.00     1.294 OA 
HETATM    4  C   UNL     1     -12.114  11.801  68.438  1.00  0.00    -0.029 C  
ENDROOT
BRANCH   2   5
HETATM    5  C   UNL     1      -9.878  12.801  68.893  1.00  0.00     0.156 A  
HETATM    6  I   UNL     1      -9.313   9.849  68.149  1.00  0.00    -0.151 I  
HETATM    7  C   UNL     1      -9.708  14.209  68.898  1.00  0.00    -0.080 A  
HETATM    8  C   UNL     1      -8.467  14.774  68.539  1.00  0.00    -0.159 A  
HETATM    9  C   UNL     1      -8.822  11.954  68.469  1.00  0.00    -0.108 A  
HETATM   10  I   UNL     1     -11.414  15.439  69.426  1.00  0.00    -0.428 I  
HETATM   11  C   UNL     1      -7.540  12.487  68.175  1.00  0.00    -0.127 A  
HETATM   12  I   UNL     1      -5.360  14.727  68.273  1.00  0.00    -0.106 I  
HETATM   13  C   UNL     1      -7.371  13.897  68.268  1.00  0.00    -0.117 A  
BRANCH   8  14
HETATM   14  C   UNL     1      -8.320  16.239  68.271  1.00  0.00    -0.185 C  
HETATM   15  H   UNL     1      -7.141  17.777  68.600  1.00  0.00     0.000 HD 
HETATM   16  O   UNL     1      -7.233  16.847  68.771  1.00  0.00    -0.197 OA 
BRANCH  14  17
HETATM   17  N   UNL     1      -9.199  16.888  67.604  1.00  0.00    -0.227 NA 
HETATM   18  H   UNL     1      -9.122  17.898  67.482  1.00  0.00     0.000 HD 
BRANCH  17  19
HETATM   19  C   UNL     1     -10.324  16.142  67.018  1.00  0.00    -0.290 C  
BRANCH  19  20
HETATM   20  C   UNL     1     -10.006  15.811  65.554  1.00  0.00    -0.306 C  
HETATM   21  H   UNL     1     -10.054  14.218  64.396  1.00  0.00     0.000 HD 
HETATM   22  O   UNL     1     -10.252  14.423  65.303  1.00  0.00    -0.356 OA 
BRANCH  20  23
HETATM   23  C   UNL     1     -10.830  16.687  64.596  1.00  0.00     0.105 C  
HETATM   24  O   UNL     1     -11.349  17.843  65.252  1.00  0.00     0.052 OA 
HETATM   25  H   UNL     1     -11.859  18.384  64.660  1.00  0.00     0.000 HD 
ENDBRANCH  20  23
ENDBRANCH  19  20
ENDBRANCH  17  19
ENDBRANCH  14  17
ENDBRANCH   8  14
BRANCH  11  26
HETATM   26  C   UNL     1      -6.427  11.560  67.778  1.00  0.00    -0.064 C  
HETATM   27  O   UNL     1      -6.156  11.490  66.458  1.00  0.00    -0.221 OA 
HETATM   28  H   UNL     1      -5.451  10.903  66.206  1.00  0.00     0.000 HD 
BRANCH  26  29
HETATM   29  N   UNL     1      -5.802  10.820  68.615  1.00  0.00    -0.040 NA 
HETATM   30  H   UNL     1      -5.537   9.867  68.367  1.00  0.00     0.000 HD 
BRANCH  29  31
HETATM   31  C   UNL     1      -5.470  11.364  69.942  1.00  0.00    -0.075 C  
BRANCH  31  32
HETATM   32  C   UNL     1      -5.903  10.422  71.090  1.00  0.00     0.026 C  
HETATM   33  O   UNL     1      -7.306  10.116  71.048  1.00  0.00    -0.334 OA 
HETATM   34  H   UNL     1      -7.572   9.538  71.753  1.00  0.00     0.000 HD 
BRANCH  32  35
HETATM   35  C   UNL     1      -5.127   9.096  71.012  1.00  0.00    -0.029 C  
HETATM   36  O   UNL     1      -5.579   8.262  69.945  1.00  0.00    -0.026 OA 
HETATM   37  H   UNL     1      -5.100   7.443  69.898  1.00  0.00     0.000 HD 
ENDBRANCH  32  35
ENDBRANCH  31  32
ENDBRANCH  29  31
ENDBRANCH  26  29
ENDBRANCH  11  26
ENDBRANCH   2   5
BRANCH   4  38
HETATM   38  C   UNL     1     -11.812  11.843  66.929  1.00  0.00    -0.096 C  
HETATM   39  O   UNL     1     -12.438  12.947  66.304  1.00  0.00    -0.453 OA 
HETATM   40  H   UNL     1     -12.251  12.973  65.372  1.00  0.00     0.000 HD 
ENDBRANCH   4  38
TORSDOF 12
ENDMDL
MODEL      213
REMARK 921   NORMALIZED FREE ENERGY PREDICTED BY IDOCK:    1.80 KCAL/MOL
REMARK 922        TOTAL FREE ENERGY PREDICTED BY IDOCK:    2.02 KCAL/MOL
REMARK 923 INTER-LIGAND FREE ENERGY PREDICTED BY IDOCK:   -1.94 KCAL/MOL
REMARK 924 INTRA-LIGAND FREE ENERGY PREDICTED BY IDOCK:    3.96 KCAL/MOL
REMARK 927      BINDING AFFINITY PREDICTED BY RF-SCORE:    0.00 PKD
ROOT
HETATM    1  C   UNL     1      -8.798  13.492  65.509  1.00  0.00     1.386 C  
HETATM    2  N   UNL     1      -9.417  12.178  65.358  1.00  0.00    -0.097 N  
HETATM    3  O   UNL     1      -9.974  12.534  63.154  1.00  0.00    -0.258 OA 
HETATM    4  C   UNL     1     -10.000  11.806  64.143  1.00  0.00    -0.272 C  
ENDROOT
BRANCH   2   5
HETATM    5  C   UNL     1      -9.367  11.324  66.505  1.00  0.00    -0.185 A  
HETATM    6  I   UNL     1     -12.049  12.750  67.108  1.00  0.00     0.396 I  
HETATM    7  C   UNL     1      -8.353  10.338  66.606  1.00  0.00    -0.125 A  
HETATM    8  C   UNL     1      -8.260   9.535  67.762  1.00  0.00    -0.114 A  
HETATM    9  C   UNL     1     -10.332  11.469  67.536  1.00  0.00    -0.194 A  
HETATM   10  I   UNL     1      -7.005  10.087  64.927  1.00  0.00    -0.078 I  
HETATM   11  C   UNL     1     -10.219  10.729  68.740  1.00  0.00    -0.207 A  
HETATM   12  I   UNL     1      -8.650   8.982  70.806  1.00  0.00    -0.225 I  
HETATM   13  C   UNL     1      -9.142   9.805  68.854  1.00  0.00    -0.148 A  
BRANCH   8  14
HETATM   14  C   UNL     1      -7.391   8.317  67.801  1.00  0.00    -0.093 C  
HETATM   15  H   UNL     1      -6.883   6.727  66.763  1.00  0.00     0.000 HD 
HETATM   16  O   UNL     1      -7.435   7.500  66.738  1.00  0.00    -0.089 OA 
BRANCH  14  17
HETATM   17  N   UNL     1      -6.647   8.058  68.811  1.00  0.00    -0.048 NA 
HETATM   18  H   UNL     1      -6.678   7.143  69.262  1.00  0.00     0.000 HD 
BRANCH  17  19
HETATM   19  C   UNL     1      -5.747   9.112  69.304  1.00  0.00    -0.035 C  
BRANCH  19  20
HETATM   20  C   UNL     1      -5.176   8.695  70.666  1.00  0.00    -0.021 C  
HETATM   21  H   UNL     1      -4.885   9.537  72.423  1.00  0.00     0.000 HD 
HETATM   22  O   UNL     1      -5.239   9.795  71.579  1.00  0.00    -0.064 OA 
BRANCH  20  23
HETATM   23  C   UNL     1      -5.929   7.479  71.234  1.00  0.00    -0.035 C  
HETATM   24  O   UNL     1      -6.145   7.603  72.639  1.00  0.00    -0.043 OA 
HETATM   25  H   UNL     1      -6.610   6.852  72.990  1.00  0.00     0.000 HD 
ENDBRANCH  20  23
ENDBRANCH  19  20
ENDBRANCH  17  19
ENDBRANCH  14  17
ENDBRANCH   8  14
BRANCH  11  26
HETATM   26  C   UNL     1     -11.225  10.941  69.835  1.00  0.00    -0.282 C  
HETATM   27  O   UNL     1     -11.722   9.825  70.409  1.00  0.00    -0.281 OA 
HETATM   28  H   UNL     1     -12.359   9.958  71.102  1.00  0.00     0.000 HD 
BRANCH  26  29
HETATM   29  N   UNL     1     -11.653  12.099  70.177  1.00  0.00    -0.536 NA 
HETATM   30  H   UNL     1     -11.019  12.897  70.205  1.00  0.00     0.000 HD 
BRANCH  29  31
HETATM   31  C   UNL     1     -13.073  12.262  70.527  1.00  0.00     0.497 C  
BRANCH  31  32
HETATM   32  C   UNL     1     -13.378  13.663  71.109  1.00  0.00    -0.117 C  
HETATM   33  O   UNL     1     -14.050  13.594  72.377  1.00  0.00    -0.637 OA 
HETATM   34  H   UNL     1     -14.238  14.454  72.734  1.00  0.00     0.000 HD 
BRANCH  32  35
HETATM   35  C   UNL     1     -12.074  14.454  71.306  1.00  0.00    -0.335 C  
HETATM   36  O   UNL     1     -12.240  15.568  72.183  1.00  0.00    -0.330 OA 
HETATM   37  H   UNL     1     -11.434  16.057  72.304  1.00  0.00     0.000 HD 
ENDBRANCH  32  35
ENDBRANCH  31  32
ENDBRANCH  29  31
ENDBRANCH  26  29
ENDBRANCH  11  26
ENDBRANCH   2   5
BRANCH   4  38
HETATM   38  C   UNL     1     -10.719  10.447  64.071  1.00  0.00     0.809 C  
HETATM   39  O   UNL     1      -9.966   9.498  63.340  1.00  0.00    -0.183 OA 
HETATM   40  H   UNL     1     -10.410   8.659  63.295  1.00  0.00     0.000 HD 
ENDBRANCH   4  38
TORSDOF 12
ENDMDL
MODEL      214
REMARK 921   NORMALIZED FREE ENERGY PREDICTED BY IDOCK:    2.09 KCAL/MOL
REMARK 922        TOTAL FREE ENERGY PREDICTED BY IDOCK:    2.51 KCAL/MOL
REMARK 923 INTER-LIGAND FREE ENERGY PREDICTED BY IDOCK:   -2.07 KCAL/MOL
REMARK 924 INTRA-LIGAND FREE ENERGY PREDICTED BY IDOCK:    4.58 KCAL/MOL
REMARK 927      BINDING AFFINITY PREDICTED BY RF-SCORE:    0.00 PKD
ROOT
HETATM    1  C   UNL     1     -10.347  17.569  65.416  1.00  0.00     0.122 C  
HETATM    2  N   UNL     1      -9.991  17.521  66.831  1.00  0.00    -0.300 N  
HETATM    3  O   UNL     1     -10.792  19.636  67.253  1.00  0.00    -0.474 OA 
HETATM    4  C   UNL     1     -10.234  18.620  67.659  1.00  0.00    -0.384 C  
ENDROOT
BRANCH   2   5
HETATM    5  C   UNL     1      -9.411  16.297  67.292  1.00  0.00    -0.224 A  
HETATM    6  I   UNL     1     -12.393  15.479  67.443  1.00  0.00     2.097 I  
HETATM    7  C   UNL     1      -8.003  16.127  67.259  1.00  0.00    -0.174 A  
HETATM    8  C   UNL     1      -7.420  14.949  67.770  1.00  0.00    -0.179 A  
HETATM    9  C   UNL     1     -10.246  15.260  67.782  1.00  0.00    -0.237 A  
HETATM   10  I   UNL     1      -6.808  17.701  66.367  1.00  0.00    -0.329 I  
HETATM   11  C   UNL     1      -9.686  14.098  68.371  1.00  0.00    -0.226 A  
HETATM   12  I   UNL     1      -7.347  12.476  69.668  1.00  0.00     1.403 I  
HETATM   13  C   UNL     1      -8.267  13.987  68.402  1.00  0.00    -0.150 A  
BRANCH   8  14
HETATM   14  C   UNL     1      -5.985  14.611  67.514  1.00  0.00     0.092 C  
HETATM   15  H   UNL     1      -4.264  15.402  66.987  1.00  0.00     0.000 HD 
HETATM   16  O   UNL     1      -5.175  15.617  67.149  1.00  0.00    -0.331 OA 
BRANCH  14  17
HETATM   17  N   UNL     1      -5.549  13.412  67.627  1.00  0.00    -0.294 NA 
HETATM   18  H   UNL     1      -5.284  13.036  68.537  1.00  0.00     0.000 HD 
BRANCH  17  19
HETATM   19  C   UNL     1      -5.441  12.591  66.411  1.00  0.00     1.403 C  
BRANCH  19  20
HETATM   20  C   UNL     1      -6.334  11.353  66.553  1.00  0.00    -0.095 C  
HETATM   21  H   UNL     1      -8.260  10.979  66.723  1.00  0.00     0.000 HD 
HETATM   22  O   UNL     1      -7.707  11.747  66.634  1.00  0.00    -0.119 OA 
BRANCH  20  23
HETATM   23  C   UNL     1      -6.121  10.378  65.382  1.00  0.00    -0.132 C  
HETATM   24  O   UNL     1      -5.152   9.379  65.697  1.00  0.00    -0.034 OA 
HETATM   25  H   UNL     1      -5.021   8.777  64.973  1.00  0.00     0.000 HD 
ENDBRANCH  20  23
ENDBRANCH  19  20
ENDBRANCH  17  19
ENDBRANCH  14  17
ENDBRANCH   8  14
BRANCH  11  26
HETATM   26  C   UNL     1     -10.595  13.039  68.927  1.00  0.00    -0.127 C  
HETATM   27  O   UNL     1     -10.088  11.790  68.983  1.00  0.00    -0.393 OA 
HETATM   28  H   UNL     1     -10.663  11.120  69.334  1.00  0.00     0.000 HD 
BRANCH  26  29
HETATM   29  N   UNL     1     -11.806  13.270  69.274  1.00  0.00    -0.322 NA 
HETATM   30  H   UNL     1     -12.493  13.576  68.585  1.00  0.00     0.000 HD 
BRANCH  29  31
HETATM   31  C   UNL     1     -12.195  13.088  70.681  1.00  0.00    -0.307 C  
BRANCH  31  32
HETATM   32  C   UNL     1     -11.927  14.350  71.535  1.00  0.00    -0.226 C  
HETATM   33  O   UNL     1     -10.897  15.180  70.977  1.00  0.00    -0.531 OA 
HETATM   34  H   UNL     1     -10.732  15.955  71.502  1.00  0.00     0.000 HD 
BRANCH  32  35
HETATM   35  C   UNL     1     -13.207  15.196  71.649  1.00  0.00    -0.409 C  
HETATM   36  O   UNL     1     -14.147  14.904  70.614  1.00  0.00    -0.553 OA 
HETATM   37  H   UNL     1     -14.937  15.427  70.684  1.00  0.00     0.000 HD 
ENDBRANCH  32  35
ENDBRANCH  31  32
ENDBRANCH  29  31
ENDBRANCH  26  29
ENDBRANCH  11  26
ENDBRANCH   2   5
BRANCH   4  38
HETATM   38  C   UNL     1      -9.754  18.546  69.120  1.00  0.00    -0.143 C  
HETATM   39  O   UNL     1     -10.286  19.603  69.897  1.00  0.00    -0.493 OA 
HETATM   40  H   UNL     1      -9.990  19.557  70.799  1.00  0.00     0.000 HD 
ENDBRANCH   4  38
TORSDOF 12
ENDMDL
MODEL      215
REMARK 921   NORMALIZED FREE ENERGY PREDICTED BY IDOCK:    2.25 KCAL/MOL
REMARK 922        TOTAL FREE ENERGY PREDICTED BY IDOCK:    2.79 KCAL/MOL
REMARK 923 INTER-LIGAND FREE ENERGY PREDICTED BY IDOCK:   -2.82 KCAL/MOL
REMARK 924 INTRA-LIGAND FREE ENERGY PREDICTED BY IDOCK:    5.60 KCAL/MOL
REMARK 927      BINDING AFFINITY PREDICTED BY RF-SCORE:    0.00 PKD
ROOT
HETATM    1  C   UNL     1     -11.426  16.518  67.876  1.00  0.00     0.071 C  
HETATM    2  N   UNL     1     -11.270  15.364  68.757  1.00  0.00    -0.282 N  
HETATM    3  O   UNL     1     -13.512  15.263  69.262  1.00  0.00     1.325 OA 
HETATM    4  C   UNL     1     -12.375  14.828  69.423  1.00  0.00    -0.149 C  
ENDROOT
BRANCH   2   5
HETATM    5  C   UNL     1      -9.946  14.833  68.868  1.00  0.00    -0.233 A  
HETATM    6  I   UNL     1     -11.432  12.220  68.125  1.00  0.00    -0.410 I  
HETATM    7  C   UNL     1      -8.847  15.710  69.059  1.00  0.00    -0.243 A  
HETATM    8  C   UNL     1      -7.548  15.189  69.232  1.00  0.00    -0.201 A  
HETATM    9  C   UNL     1      -9.739  13.431  68.787  1.00  0.00     0.010 A  
HETATM   10  I   UNL     1      -9.231  17.843  69.030  1.00  0.00     0.262 I  
HETATM   11  C   UNL     1      -8.457  12.875  69.032  1.00  0.00     0.454 A  
HETATM   12  I   UNL     1      -5.527  12.987  70.120  1.00  0.00    -0.158 I  
HETATM   13  C   UNL     1      -7.385  13.771  69.305  1.00  0.00     0.091 A  
BRANCH   8  14
HETATM   14  C   UNL     1      -6.338  16.067  69.166  1.00  0.00    -0.151 C  
HETATM   15  H   UNL     1      -4.374  16.015  69.099  1.00  0.00     0.000 HD 
HETATM   16  O   UNL     1      -5.142  15.458  69.141  1.00  0.00    -0.095 OA 
BRANCH  14  17
HETATM   17  N   UNL     1      -6.436  17.343  69.147  1.00  0.00    -0.229 NA 
HETATM   18  H   UNL     1      -7.349  17.796  69.105  1.00  0.00     0.000 HD 
BRANCH  17  19
HETATM   19  C   UNL     1      -5.201  18.140  69.189  1.00  0.00    -0.187 C  
BRANCH  19  20
HETATM   20  C   UNL     1      -5.451  19.499  68.524  1.00  0.00    -0.200 C  
HETATM   21  H   UNL     1      -6.600  20.210  67.090  1.00  0.00     0.000 HD 
HETATM   22  O   UNL     1      -6.445  19.368  67.502  1.00  0.00    -0.205 OA 
BRANCH  20  23
HETATM   23  C   UNL     1      -5.879  20.553  69.560  1.00  0.00    -0.352 C  
HETATM   24  O   UNL     1      -5.148  20.422  70.778  1.00  0.00    -0.222 OA 
HETATM   25  H   UNL     1      -5.412  21.073  71.418  1.00  0.00     0.000 HD 
ENDBRANCH  20  23
ENDBRANCH  19  20
ENDBRANCH  17  19
ENDBRANCH  14  17
ENDBRANCH   8  14
BRANCH  11  26
HETATM   26  C   UNL     1      -8.278  11.384  68.990  1.00  0.00     0.020 C  
HETATM   27  O   UNL     1      -8.138  10.769  70.183  1.00  0.00    -0.308 OA 
HETATM   28  H   UNL     1      -8.024   9.826  70.157  1.00  0.00     0.000 HD 
BRANCH  26  29
HETATM   29  N   UNL     1      -8.194  10.721  67.897  1.00  0.00    -0.111 NA 
HETATM   30  H   UNL     1      -7.708  11.113  67.091  1.00  0.00     0.000 HD 
BRANCH  29  31
HETATM   31  C   UNL     1      -8.808   9.386  67.822  1.00  0.00    -0.123 C  
BRANCH  31  32
HETATM   32  C   UNL     1      -8.964   8.891  66.365  1.00  0.00    -0.158 C  
HETATM   33  O   UNL     1      -9.432   9.924  65.483  1.00  0.00    -0.210 OA 
HETATM   34  H   UNL     1      -9.529   9.620  64.588  1.00  0.00     0.000 HD 
BRANCH  32  35
HETATM   35  C   UNL     1      -7.615   8.385  65.827  1.00  0.00    -0.085 C  
HETATM   36  O   UNL     1      -6.628   8.271  66.852  1.00  0.00    -0.056 OA 
HETATM   37  H   UNL     1      -5.795   7.959  66.520  1.00  0.00     0.000 HD 
ENDBRANCH  32  35
ENDBRANCH  31  32
ENDBRANCH  29  31
ENDBRANCH  26  29
ENDBRANCH  11  26
ENDBRANCH   2   5
BRANCH   4  38
HETATM   38  C   UNL     1     -12.135  13.670  70.410  1.00  0.00    -0.351 C  
HETATM   39  O   UNL     1     -13.192  13.553  71.342  1.00  0.00    -0.331 OA 
HETATM   40  H   UNL     1     -13.044  12.838  71.951  1.00  0.00     0.000 HD 
ENDBRANCH   4  38
TORSDOF 12
ENDMDL
MODEL      216
REMARK 921   NORMALIZED FREE ENERGY PREDICTED BY IDOCK:    3.94 KCAL/MOL
REMARK 922        TOTAL FREE ENERGY PREDICTED BY IDOCK:    5.66 KCAL/MOL
REMARK 923 INTER-LIGAND FREE ENERGY PREDICTED BY IDOCK:    5.04 KCAL/MOL
REMARK 924 INTRA-LIGAND FREE ENERGY PREDICTED BY IDOCK:    0.62 KCAL/MOL
REMARK 927      BINDING AFFINITY PREDICTED BY RF-SCORE:    0.00 PKD
ROOT
HETATM    1  C   UNL     1      -7.392  12.693  71.480  1.00  0.00     7.407 C  
HETATM    2  N   UNL     1      -6.787  12.426  70.178  1.00  0.00     0.488 N  
HETATM    3  O   UNL     1      -5.128  13.993  70.466  1.00  0.00    -0.093 OA 
HETATM    4  C   UNL     1      -5.669  13.151  69.756  1.00  0.00    -0.116 C  
ENDROOT
BRANCH   2   5
HETATM    5  C   UNL     1      -7.394  11.388  69.403  1.00  0.00     0.015 A  
HETATM    6  I   UNL     1      -5.521   9.634  71.136  1.00  0.00    -0.063 I  
HETATM    7  C   UNL     1      -8.471  11.695  68.533  1.00  0.00    -0.135 A  
HETATM    8  C   UNL     1      -9.033  10.690  67.719  1.00  0.00    -0.140 A  
HETATM    9  C   UNL     1      -6.916  10.056  69.508  1.00  0.00    -0.078 A  
HETATM   10  I   UNL     1      -9.234  13.725  68.535  1.00  0.00     0.071 I  
HETATM   11  C   UNL     1      -7.409   9.041  68.650  1.00  0.00    -0.077 A  
HETATM   12  I   UNL     1      -8.911   8.028  66.100  1.00  0.00    -0.149 I  
HETATM   13  C   UNL     1      -8.433   9.393  67.725  1.00  0.00    -0.116 A  
BRANCH   8  14
HETATM   14  C   UNL     1     -10.327  10.899  66.997  1.00  0.00    -0.231 C  
HETATM   15  H   UNL     1     -12.152  11.592  67.231  1.00  0.00     0.000 HD 
HETATM   16  O   UNL     1     -11.331  11.459  67.690  1.00  0.00    -0.272 OA 
BRANCH  14  17
HETATM   17  N   UNL     1     -10.475  10.548  65.775  1.00  0.00    -0.190 NA 
HETATM   18  H   UNL     1     -10.922   9.662  65.536  1.00  0.00     0.000 HD 
BRANCH  17  19
HETATM   19  C   UNL     1      -9.986  11.452  64.723  1.00  0.00    -0.267 C  
BRANCH  19  20
HETATM   20  C   UNL     1     -11.161  12.265  64.165  1.00  0.00    -0.366 C  
HETATM   21  H   UNL     1     -11.460  13.535  62.689  1.00  0.00     0.000 HD 
HETATM   22  O   UNL     1     -10.731  13.032  63.035  1.00  0.00     0.356 OA 
BRANCH  20  23
HETATM   23  C   UNL     1     -12.335  11.349  63.779  1.00  0.00     0.282 C  
HETATM   24  O   UNL     1     -13.520  12.096  63.509  1.00  0.00    -0.411 OA 
HETATM   25  H   UNL     1     -14.245  11.530  63.271  1.00  0.00     0.000 HD 
ENDBRANCH  20  23
ENDBRANCH  19  20
ENDBRANCH  17  19
ENDBRANCH  14  17
ENDBRANCH   8  14
BRANCH  11  26
HETATM   26  C   UNL     1      -6.848   7.651  68.749  1.00  0.00    -0.065 C  
HETATM   27  O   UNL     1      -5.653   7.450  68.154  1.00  0.00    -0.024 OA 
HETATM   28  H   UNL     1      -5.298   6.570  68.216  1.00  0.00     0.000 HD 
BRANCH  26  29
HETATM   29  N   UNL     1      -7.476   6.682  69.302  1.00  0.00    -0.092 NA 
HETATM   30  H   UNL     1      -8.456   6.784  69.566  1.00  0.00     0.000 HD 
BRANCH  29  31
HETATM   31  C   UNL     1      -6.765   5.418  69.550  1.00  0.00    -0.055 C  
BRANCH  31  32
HETATM   32  C   UNL     1      -7.178   4.304  68.559  1.00  0.00    -0.056 C  
HETATM   33  O   UNL     1      -8.526   4.462  68.088  1.00  0.00    -0.093 OA 
HETATM   34  H   UNL     1      -8.780   3.778  67.480  1.00  0.00     0.000 HD 
BRANCH  32  35
HETATM   35  C   UNL     1      -6.246   4.309  67.335  1.00  0.00    -0.036 C  
HETATM   36  O   UNL     1      -6.296   5.542  66.617  1.00  0.00    -0.033 OA 
HETATM   37  H   UNL     1      -5.720   5.544  65.862  1.00  0.00     0.000 HD 
ENDBRANCH  32  35
ENDBRANCH  31  32
ENDBRANCH  29  31
ENDBRANCH  26  29
ENDBRANCH  11  26
ENDBRANCH   2   5
BRANCH   4  38
HETATM   38  C   UNL     1      -5.130  12.890  68.337  1.00  0.00    -0.069 C  
HETATM   39  O   UNL     1      -5.731  13.748  67.386  1.00  0.00    -0.354 OA 
HETATM   40  H   UNL     1      -5.398  13.587  66.511  1.00  0.00     0.000 HD 
ENDBRANCH   4  38
TORSDOF 12
ENDMDL
MODEL      217
REMARK 921   NORMALIZED FREE ENERGY PREDICTED BY IDOCK:    4.18 KCAL/MOL
REMARK 922        TOTAL FREE ENERGY PREDICTED BY IDOCK:    6.08 KCAL/MOL
REMARK 923 INTER-LIGAND FREE ENERGY PREDICTED BY IDOCK:    2.81 KCAL/MOL
REMARK 924 INTRA-LIGAND FREE ENERGY PREDICTED BY IDOCK:    3.27 KCAL/MOL
REMARK 927      BINDING AFFINITY PREDICTED BY RF-SCORE:    0.00 PKD
ROOT
HETATM    1  C   UNL     1      -5.346  12.477  69.184  1.00  0.00    -0.068 C  
HETATM    2  N   UNL     1      -6.800  12.350  69.190  1.00  0.00    -0.095 N  
HETATM    3  O   UNL     1      -7.123  14.431  70.117  1.00  0.00    -0.010 OA 
HETATM    4  C   UNL     1      -7.598  13.377  69.703  1.00  0.00     0.771 C  
ENDROOT
BRANCH   2   5
HETATM    5  C   UNL     1      -7.328  11.143  68.634  1.00  0.00    -0.110 A  
HETATM    6  I   UNL     1      -8.203  13.101  66.401  1.00  0.00     1.468 I  
HETATM    7  C   UNL     1      -7.041   9.897  69.250  1.00  0.00    -0.069 A  
HETATM    8  C   UNL     1      -7.610   8.710  68.744  1.00  0.00    -0.096 A  
HETATM    9  C   UNL     1      -8.137  11.196  67.469  1.00  0.00    -0.119 A  
HETATM   10  I   UNL     1      -5.685   9.887  70.942  1.00  0.00    -0.051 I  
HETATM   11  C   UNL     1      -8.781  10.030  66.982  1.00  0.00    -0.137 A  
HETATM   12  I   UNL     1      -9.829   7.097  67.263  1.00  0.00    -0.297 I  
HETATM   13  C   UNL     1      -8.546   8.805  67.668  1.00  0.00    -0.128 A  
BRANCH   8  14
HETATM   14  C   UNL     1      -7.130   7.362  69.185  1.00  0.00    -0.079 C  
HETATM   15  H   UNL     1      -7.619   5.819  70.300  1.00  0.00     0.000 HD 
HETATM   16  O   UNL     1      -7.923   6.674  70.020  1.00  0.00    -0.112 OA 
BRANCH  14  17
HETATM   17  N   UNL     1      -6.006   6.891  68.793  1.00  0.00    -0.025 NA 
HETATM   18  H   UNL     1      -5.282   6.639  69.466  1.00  0.00     0.000 HD 
BRANCH  17  19
HETATM   19  C   UNL     1      -5.785   6.720  67.349  1.00  0.00    -0.013 C  
BRANCH  19  20
HETATM   20  C   UNL     1      -6.501   5.450  66.872  1.00  0.00    -0.044 C  
HETATM   21  H   UNL     1      -6.649   4.425  65.196  1.00  0.00     0.000 HD 
HETATM   22  O   UNL     1      -6.206   5.212  65.491  1.00  0.00    -0.032 OA 
BRANCH  20  23
HETATM   23  C   UNL     1      -6.101   4.235  67.726  1.00  0.00    -0.032 C  
HETATM   24  O   UNL     1      -5.847   4.603  69.081  1.00  0.00    -0.016 OA 
HETATM   25  H   UNL     1      -5.600   3.852  69.608  1.00  0.00     0.000 HD 
ENDBRANCH  20  23
ENDBRANCH  19  20
ENDBRANCH  17  19
ENDBRANCH  14  17
ENDBRANCH   8  14
BRANCH  11  26
HETATM   26  C   UNL     1      -9.672  10.127  65.777  1.00  0.00    -0.245 C  
HETATM   27  O   UNL     1     -10.790   9.372  65.802  1.00  0.00     0.427 OA 
HETATM   28  H   UNL     1     -11.354   9.432  65.040  1.00  0.00     0.000 HD 
BRANCH  26  29
HETATM   29  N   UNL     1      -9.378  10.826  64.745  1.00  0.00    -0.213 NA 
HETATM   30  H   UNL     1      -9.296  11.841  64.813  1.00  0.00     0.000 HD 
BRANCH  29  31
HETATM   31  C   UNL     1      -9.159  10.146  63.459  1.00  0.00    -0.275 C  
BRANCH  31  32
HETATM   32  C   UNL     1      -8.917   8.628  63.629  1.00  0.00     0.480 C  
HETATM   33  O   UNL     1      -9.359   7.872  62.491  1.00  0.00     0.195 OA 
HETATM   34  H   UNL     1      -9.211   6.939  62.595  1.00  0.00     0.000 HD 
BRANCH  32  35
HETATM   35  C   UNL     1      -7.418   8.347  63.831  1.00  0.00    -0.116 C  
HETATM   36  O   UNL     1      -6.778   7.916  62.629  1.00  0.00    -0.082 OA 
HETATM   37  H   UNL     1      -5.853   7.742  62.754  1.00  0.00     0.000 HD 
ENDBRANCH  32  35
ENDBRANCH  31  32
ENDBRANCH  29  31
ENDBRANCH  26  29
ENDBRANCH  11  26
ENDBRANCH   2   5
BRANCH   4  38
HETATM   38  C   UNL     1      -9.119  13.148  69.768  1.00  0.00     2.347 C  
HETATM   39  O   UNL     1      -9.836  14.283  69.321  1.00  0.00    -0.417 OA 
HETATM   40  H   UNL     1     -10.775  14.142  69.361  1.00  0.00     0.000 HD 
ENDBRANCH   4  38
TORSDOF 12
ENDMDL
MODEL      218
REMARK 921   NORMALIZED FREE ENERGY PREDICTED BY IDOCK:    5.17 KCAL/MOL
REMARK 922        TOTAL FREE ENERGY PREDICTED BY IDOCK:    7.76 KCAL/MOL
REMARK 923 INTER-LIGAND FREE ENERGY PREDICTED BY IDOCK:   -1.37 KCAL/MOL
REMARK 924 INTRA-LIGAND FREE ENERGY PREDICTED BY IDOCK:    9.13 KCAL/MOL
REMARK 927      BINDING AFFINITY PREDICTED BY RF-SCORE:    0.00 PKD
ROOT
HETATM    1  C   UNL     1     -10.527  17.796  65.617  1.00  0.00    -0.128 C  
HETATM    2  N   UNL     1     -10.446  17.503  67.045  1.00  0.00    -0.319 N  
HETATM    3  O   UNL     1     -11.115  19.616  67.664  1.00  0.00    -0.310 OA 
HETATM    4  C   UNL     1     -10.738  18.493  67.988  1.00  0.00    -0.232 C  
ENDROOT
BRANCH   2   5
HETATM    5  C   UNL     1     -10.076  16.166  67.393  1.00  0.00    -0.257 A  
HETATM    6  I   UNL     1      -8.107  17.684  69.238  1.00  0.00     0.738 I  
HETATM    7  C   UNL     1     -10.829  15.073  66.893  1.00  0.00    -0.315 A  
HETATM    8  C   UNL     1     -10.432  13.750  67.178  1.00  0.00    -0.272 A  
HETATM    9  C   UNL     1      -8.956  15.939  68.234  1.00  0.00    -0.184 A  
HETATM   10  I   UNL     1     -12.606  15.507  65.729  1.00  0.00     2.252 I  
HETATM   11  C   UNL     1      -8.489  14.622  68.478  1.00  0.00    -0.161 A  
HETATM   12  I   UNL     1      -8.313  11.563  67.851  1.00  0.00    -0.160 I  
HETATM   13  C   UNL     1      -9.212  13.543  67.895  1.00  0.00    -0.211 A  
BRANCH   8  14
HETATM   14  C   UNL     1     -11.332  12.586  66.906  1.00  0.00    -0.326 C  
HETATM   15  H   UNL     1     -12.731  11.947  65.682  1.00  0.00     0.000 HD 
HETATM   16  O   UNL     1     -12.159  12.686  65.854  1.00  0.00    -0.482 OA 
BRANCH  14  17
HETATM   17  N   UNL     1     -11.323  11.544  67.650  1.00  0.00    -0.329 NA 
HETATM   18  H   UNL     1     -10.636  10.804  67.505  1.00  0.00     0.000 HD 
BRANCH  17  19
HETATM   19  C   UNL     1     -12.327  11.441  68.720  1.00  0.00     0.183 C  
BRANCH  19  20
HETATM   20  C   UNL     1     -11.636  11.582  70.081  1.00  0.00    -0.249 C  
HETATM   21  H   UNL     1     -11.354  13.008  71.411  1.00  0.00     0.000 HD 
HETATM   22  O   UNL     1     -11.783  12.921  70.568  1.00  0.00    -0.165 OA 
BRANCH  20  23
HETATM   23  C   UNL     1     -12.201  10.575  71.098  1.00  0.00    -0.391 C  
HETATM   24  O   UNL     1     -11.428   9.375  71.136  1.00  0.00    -0.293 OA 
HETATM   25  H   UNL     1     -11.778   8.753  71.763  1.00  0.00     0.000 HD 
ENDBRANCH  20  23
ENDBRANCH  19  20
ENDBRANCH  17  19
ENDBRANCH  14  17
ENDBRANCH   8  14
BRANCH  11  26
HETATM   26  C   UNL     1      -7.271  14.416  69.331  1.00  0.00    -0.086 C  
HETATM   27  O   UNL     1      -7.038  13.150  69.738  1.00  0.00    -0.319 OA 
HETATM   28  H   UNL     1      -6.267  13.019  70.278  1.00  0.00     0.000 HD 
BRANCH  26  29
HETATM   29  N   UNL     1      -6.518  15.377  69.719  1.00  0.00    -0.164 NA 
HETATM   30  H   UNL     1      -6.846  16.040  70.422  1.00  0.00     0.000 HD 
BRANCH  29  31
HETATM   31  C   UNL     1      -5.174  15.512  69.137  1.00  0.00    -0.096 C  
BRANCH  31  32
HETATM   32  C   UNL     1      -5.213  15.735  67.607  1.00  0.00    -0.087 C  
HETATM   33  O   UNL     1      -6.146  14.861  66.951  1.00  0.00     0.008 OA 
HETATM   34  H   UNL     1      -6.170  14.997  66.011  1.00  0.00     0.000 HD 
BRANCH  32  35
HETATM   35  C   UNL     1      -5.619  17.184  67.290  1.00  0.00    -0.143 C  
HETATM   36  O   UNL     1      -6.064  17.343  65.943  1.00  0.00    -0.155 OA 
HETATM   37  H   UNL     1      -6.314  18.238  65.747  1.00  0.00     0.000 HD 
ENDBRANCH  32  35
ENDBRANCH  31  32
ENDBRANCH  29  31
ENDBRANCH  26  29
ENDBRANCH  11  26
ENDBRANCH   2   5
BRANCH   4  38
HETATM   38  C   UNL     1     -10.546  18.153  69.478  1.00  0.00     0.718 C  
HETATM   39  O   UNL     1     -10.746  19.287  70.300  1.00  0.00     0.564 OA 
HETATM   40  H   UNL     1     -10.628  19.077  71.219  1.00  0.00     0.000 HD 
ENDBRANCH   4  38
TORSDOF 12
ENDMDL
MODEL      219
REMARK 921   NORMALIZED FREE ENERGY PREDICTED BY IDOCK:    6.66 KCAL/MOL
REMARK 922        TOTAL FREE ENERGY PREDICTED BY IDOCK:   10.29 KCAL/MOL
REMARK 923 INTER-LIGAND FREE ENERGY PREDICTED BY IDOCK:   10.45 KCAL/MOL
REMARK 924 INTRA-LIGAND FREE ENERGY PREDICTED BY IDOCK:   -0.16 KCAL/MOL
REMARK 927      BINDING AFFINITY PREDICTED BY RF-SCORE:    0.00 PKD
ROOT
HETATM    1  C   UNL     1      -8.410  11.405  68.317  1.00  0.00    -0.152 C  
HETATM    2  N   UNL     1      -7.882  12.730  68.005  1.00  0.00    -0.138 N  
HETATM    3  O   UNL     1      -5.689  12.057  68.184  1.00  0.00    -0.047 OA 
HETATM    4  C   UNL     1      -6.503  12.956  67.989  1.00  0.00    -0.108 C  
ENDROOT
BRANCH   2   5
HETATM    5  C   UNL     1      -8.852  13.740  67.710  1.00  0.00    -0.188 A  
HETATM    6  I   UNL     1      -8.632  12.474  64.893  1.00  0.00     3.214 I  
HETATM    7  C   UNL     1      -9.403  14.517  68.760  1.00  0.00    -0.177 A  
HETATM    8  C   UNL     1     -10.311  15.556  68.471  1.00  0.00    -0.225 A  
HETATM    9  C   UNL     1      -9.256  13.960  66.368  1.00  0.00    -0.152 A  
HETATM   10  I   UNL     1      -8.839  14.025  70.795  1.00  0.00     6.672 I  
HETATM   11  C   UNL     1     -10.109  15.044  66.038  1.00  0.00    -0.322 A  
HETATM   12  I   UNL     1     -11.509  17.775  66.637  1.00  0.00     2.547 I  
HETATM   13  C   UNL     1     -10.583  15.863  67.102  1.00  0.00    -0.316 A  
BRANCH   8  14
HETATM   14  C   UNL     1     -11.116  16.216  69.546  1.00  0.00    -0.344 C  
HETATM   15  H   UNL     1     -11.044  17.641  70.899  1.00  0.00     0.000 HD 
HETATM   16  O   UNL     1     -10.533  17.222  70.216  1.00  0.00     0.278 OA 
BRANCH  14  17
HETATM   17  N   UNL     1     -12.305  15.830  69.825  1.00  0.00    -0.470 NA 
HETATM   18  H   UNL     1     -12.832  15.250  69.173  1.00  0.00     0.000 HD 
BRANCH  17  19
HETATM   19  C   UNL     1     -12.891  16.244  71.110  1.00  0.00     0.894 C  
BRANCH  19  20
HETATM   20  C   UNL     1     -12.987  15.028  72.039  1.00  0.00    -0.343 C  
HETATM   21  H   UNL     1     -13.052  13.069  71.844  1.00  0.00     0.000 HD 
HETATM   22  O   UNL     1     -12.992  13.822  71.268  1.00  0.00    -0.338 OA 
BRANCH  20  23
HETATM   23  C   UNL     1     -11.831  15.013  73.054  1.00  0.00    -0.257 C  
HETATM   24  O   UNL     1     -12.294  15.249  74.383  1.00  0.00    -0.633 OA 
HETATM   25  H   UNL     1     -11.580  15.239  75.010  1.00  0.00     0.000 HD 
ENDBRANCH  20  23
ENDBRANCH  19  20
ENDBRANCH  17  19
ENDBRANCH  14  17
ENDBRANCH   8  14
BRANCH  11  26
HETATM   26  C   UNL     1     -10.479  15.284  64.602  1.00  0.00    -0.012 C  
HETATM   27  O   UNL     1     -10.210  16.513  64.116  1.00  0.00     0.715 OA 
HETATM   28  H   UNL     1     -10.444  16.665  63.208  1.00  0.00     0.000 HD 
BRANCH  26  29
HETATM   29  N   UNL     1     -11.076  14.410  63.880  1.00  0.00    -0.183 NA 
HETATM   30  H   UNL     1     -10.640  14.057  63.029  1.00  0.00     0.000 HD 
BRANCH  29  31
HETATM   31  C   UNL     1     -12.401  13.923  64.296  1.00  0.00    -0.348 C  
BRANCH  31  32
HETATM   32  C   UNL     1     -12.720  12.522  63.723  1.00  0.00    -0.311 C  
HETATM   33  O   UNL     1     -11.662  12.015  62.894  1.00  0.00    -0.621 OA 
HETATM   34  H   UNL     1     -11.858  11.154  62.542  1.00  0.00     0.000 HD 
BRANCH  32  35
HETATM   35  C   UNL     1     -12.946  11.518  64.867  1.00  0.00     2.251 C  
HETATM   36  O   UNL     1     -12.040  11.716  65.952  1.00  0.00    -0.252 OA 
HETATM   37  H   UNL     1     -12.180  11.096  66.658  1.00  0.00     0.000 HD 
ENDBRANCH  32  35
ENDBRANCH  31  32
ENDBRANCH  29  31
ENDBRANCH  26  29
ENDBRANCH  11  26
ENDBRANCH   2   5
BRANCH   4  38
HETATM   38  C   UNL     1      -6.007  14.393  67.745  1.00  0.00    -0.096 C  
HETATM   39  O   UNL     1      -5.409  14.942  68.904  1.00  0.00    -0.089 OA 
HETATM   40  H   UNL     1      -5.103  15.829  68.753  1.00  0.00     0.000 HD 
ENDBRANCH   4  38
TORSDOF 12
ENDMDL
MODEL      220
REMARK 921   NORMALIZED FREE ENERGY PREDICTED BY IDOCK:    7.95 KCAL/MOL
REMARK 922        TOTAL FREE ENERGY PREDICTED BY IDOCK:   12.49 KCAL/MOL
REMARK 923 INTER-LIGAND FREE ENERGY PREDICTED BY IDOCK:    7.23 KCAL/MOL
REMARK 924 INTRA-LIGAND FREE ENERGY PREDICTED BY IDOCK:    5.26 KCAL/MOL
REMARK 927      BINDING AFFINITY PREDICTED BY RF-SCORE:    0.00 PKD
ROOT
HETATM    1  C   UNL     1     -11.262  12.581  71.846  1.00  0.00     5.559 C  
HETATM    2  N   UNL     1     -11.355  12.081  70.477  1.00  0.00     0.457 N  
HETATM    3  O   UNL     1     -12.846  10.419  71.033  1.00  0.00    -0.352 OA 
HETATM    4  C   UNL     1     -12.159  10.976  70.182  1.00  0.00    -0.356 C  
ENDROOT
BRANCH   2   5
HETATM    5  C   UNL     1     -10.601  12.795  69.494  1.00  0.00     0.442 A  
HETATM    6  I   UNL     1      -9.060  10.111  69.397  1.00  0.00    -0.121 I  
HETATM    7  C   UNL     1     -11.034  14.077  69.066  1.00  0.00    -0.259 A  
HETATM    8  C   UNL     1     -10.261  14.814  68.145  1.00  0.00    -0.228 A  
HETATM    9  C   UNL     1      -9.423  12.219  68.952  1.00  0.00     0.215 A  
HETATM   10  I   UNL     1     -12.916  14.826  69.838  1.00  0.00     0.780 I  
HETATM   11  C   UNL     1      -8.588  12.965  68.081  1.00  0.00    -0.188 A  
HETATM   12  I   UNL     1      -7.575  15.625  66.785  1.00  0.00     0.472 I  
HETATM   13  C   UNL     1      -9.000  14.283  67.733  1.00  0.00    -0.188 A  
BRANCH   8  14
HETATM   14  C   UNL     1     -10.803  16.033  67.467  1.00  0.00    -0.292 C  
HETATM   15  H   UNL     1     -12.372  16.713  66.497  1.00  0.00     0.000 HD 
HETATM   16  O   UNL     1     -12.028  15.939  66.927  1.00  0.00     0.546 OA 
BRANCH  14  17
HETATM   17  N   UNL     1     -10.124  17.116  67.394  1.00  0.00    -0.292 NA 
HETATM   18  H   UNL     1      -9.356  17.207  66.729  1.00  0.00     0.000 HD 
BRANCH  17  19
HETATM   19  C   UNL     1     -10.478  18.225  68.292  1.00  0.00    -0.301 C  
BRANCH  19  20
HETATM   20  C   UNL     1     -10.767  19.480  67.460  1.00  0.00    -0.440 C  
HETATM   21  H   UNL     1     -10.627  21.431  67.700  1.00  0.00     0.000 HD 
HETATM   22  O   UNL     1     -10.448  20.653  68.216  1.00  0.00    -0.068 OA 
BRANCH  20  23
HETATM   23  C   UNL     1      -9.982  19.462  66.137  1.00  0.00    -0.425 C  
HETATM   24  O   UNL     1      -8.770  18.716  66.254  1.00  0.00    -0.380 OA 
HETATM   25  H   UNL     1      -8.285  18.705  65.437  1.00  0.00     0.000 HD 
ENDBRANCH  20  23
ENDBRANCH  19  20
ENDBRANCH  17  19
ENDBRANCH  14  17
ENDBRANCH   8  14
BRANCH  11  26
HETATM   26  C   UNL     1      -7.321  12.348  67.563  1.00  0.00    -0.146 C  
HETATM   27  O   UNL     1      -7.467  11.398  66.616  1.00  0.00    -0.165 OA 
HETATM   28  H   UNL     1      -6.665  11.007  66.288  1.00  0.00     0.000 HD 
BRANCH  26  29
HETATM   29  N   UNL     1      -6.161  12.641  68.023  1.00  0.00    -0.081 NA 
HETATM   30  H   UNL     1      -5.359  12.044  67.823  1.00  0.00     0.000 HD 
BRANCH  29  31
HETATM   31  C   UNL     1      -6.003  13.851  68.844  1.00  0.00    -0.084 C  
BRANCH  31  32
HETATM   32  C   UNL     1      -6.251  13.581  70.347  1.00  0.00    -0.028 C  
HETATM   33  O   UNL     1      -7.554  13.031  70.597  1.00  0.00     1.969 OA 
HETATM   34  H   UNL     1      -7.706  12.865  71.520  1.00  0.00     0.000 HD 
BRANCH  32  35
HETATM   35  C   UNL     1      -5.207  12.589  70.888  1.00  0.00    -0.159 C  
HETATM   36  O   UNL     1      -5.715  11.258  70.980  1.00  0.00    -0.316 OA 
HETATM   37  H   UNL     1      -5.071  10.646  71.314  1.00  0.00     0.000 HD 
ENDBRANCH  32  35
ENDBRANCH  31  32
ENDBRANCH  29  31
ENDBRANCH  26  29
ENDBRANCH  11  26
ENDBRANCH   2   5
BRANCH   4  38
HETATM   38  C   UNL     1     -12.146  10.437  68.740  1.00  0.00     0.387 C  
HETATM   39  O   UNL     1     -12.891  11.265  67.867  1.00  0.00     1.272 OA 
HETATM   40  H   UNL     1     -12.883  10.932  66.977  1.00  0.00     0.000 HD 
ENDBRANCH   4  38
TORSDOF 12
ENDMDL
MODEL      221
REMARK 921   NORMALIZED FREE ENERGY PREDICTED BY IDOCK:    8.92 KCAL/MOL
REMARK 922        TOTAL FREE ENERGY PREDICTED BY IDOCK:   14.14 KCAL/MOL
REMARK 923 INTER-LIGAND FREE ENERGY PREDICTED BY IDOCK:    5.04 KCAL/MOL
REMARK 924 INTRA-LIGAND FREE ENERGY PREDICTED BY IDOCK:    9.10 KCAL/MOL
REMARK 927      BINDING AFFINITY PREDICTED BY RF-SCORE:    0.00 PKD
ROOT
HETATM    1  C   UNL     1      -6.664  13.722  69.210  1.00  0.00    -0.101 C  
HETATM    2  N   UNL     1      -7.394  12.826  68.318  1.00  0.00    -0.108 N  
HETATM    3  O   UNL     1      -5.863  13.040  66.614  1.00  0.00     0.352 OA 
HETATM    4  C   UNL     1      -6.919  12.571  67.028  1.00  0.00     0.043 C  
ENDROOT
BRANCH   2   5
HETATM    5  C   UNL     1      -8.582  12.236  68.854  1.00  0.00     0.260 A  
HETATM    6  I   UNL     1      -7.107   9.640  68.033  1.00  0.00    -0.080 I  
HETATM    7  C   UNL     1      -9.539  13.050  69.512  1.00  0.00     1.374 A  
HETATM    8  C   UNL     1     -10.741  12.487  69.986  1.00  0.00     1.070 A  
HETATM    9  C   UNL     1      -8.798  10.840  68.723  1.00  0.00    -0.163 A  
HETATM   10  I   UNL     1      -9.070  15.148  69.794  1.00  0.00     0.614 I  
HETATM   11  C   UNL     1     -10.028  10.258  69.122  1.00  0.00    -0.235 A  
HETATM   12  I   UNL     1     -13.049  10.390  69.922  1.00  0.00     1.605 I  
HETATM   13  C   UNL     1     -11.008  11.111  69.704  1.00  0.00    -0.192 A  
BRANCH   8  14
HETATM   14  C   UNL     1     -11.646  13.237  70.913  1.00  0.00     0.725 C  
HETATM   15  H   UNL     1     -13.077  12.989  72.238  1.00  0.00     0.000 HD 
HETATM   16  O   UNL     1     -12.502  12.513  71.651  1.00  0.00    -0.126 OA 
BRANCH  14  17
HETATM   17  N   UNL     1     -11.615  14.514  70.990  1.00  0.00    -0.501 NA 
HETATM   18  H   UNL     1     -11.183  14.979  71.788  1.00  0.00     0.000 HD 
BRANCH  17  19
HETATM   19  C   UNL     1     -12.218  15.295  69.899  1.00  0.00    -0.323 C  
BRANCH  19  20
HETATM   20  C   UNL     1     -11.752  14.730  68.552  1.00  0.00    -0.317 C  
HETATM   21  H   UNL     1     -12.310  13.294  67.323  1.00  0.00     0.000 HD 
HETATM   22  O   UNL     1     -12.599  13.645  68.157  1.00  0.00     0.133 OA 
BRANCH  20  23
HETATM   23  C   UNL     1     -11.735  15.821  67.468  1.00  0.00     0.153 C  
HETATM   24  O   UNL     1     -12.324  17.035  67.932  1.00  0.00     1.391 OA 
HETATM   25  H   UNL     1     -12.314  17.709  67.263  1.00  0.00     0.000 HD 
ENDBRANCH  20  23
ENDBRANCH  19  20
ENDBRANCH  17  19
ENDBRANCH  14  17
ENDBRANCH   8  14
BRANCH  11  26
HETATM   26  C   UNL     1     -10.248   8.786  68.925  1.00  0.00    -0.207 C  
HETATM   27  O   UNL     1      -9.975   7.997  69.985  1.00  0.00    -0.187 OA 
HETATM   28  H   UNL     1     -10.114   7.065  69.861  1.00  0.00     0.000 HD 
BRANCH  26  29
HETATM   29  N   UNL     1     -10.610   8.277  67.806  1.00  0.00    -0.415 NA 
HETATM   30  H   UNL     1     -11.596   8.242  67.549  1.00  0.00     0.000 HD 
BRANCH  29  31
HETATM   31  C   UNL     1      -9.583   7.744  66.897  1.00  0.00    -0.198 C  
BRANCH  31  32
HETATM   32  C   UNL     1      -9.258   6.259  67.182  1.00  0.00    -0.122 C  
HETATM   33  O   UNL     1     -10.286   5.610  67.946  1.00  0.00    -0.159 OA 
HETATM   34  H   UNL     1     -10.086   4.697  68.122  1.00  0.00     0.000 HD 
BRANCH  32  35
HETATM   35  C   UNL     1      -9.091   5.488  65.861  1.00  0.00    -0.155 C  
HETATM   36  O   UNL     1     -10.214   5.645  64.994  1.00  0.00     0.229 OA 
HETATM   37  H   UNL     1     -10.111   5.169  64.178  1.00  0.00     0.000 HD 
ENDBRANCH  32  35
ENDBRANCH  31  32
ENDBRANCH  29  31
ENDBRANCH  26  29
ENDBRANCH  11  26
ENDBRANCH   2   5
BRANCH   4  38
HETATM   38  C   UNL     1      -7.779  11.692  66.101  1.00  0.00     0.245 C  
HETATM   39  O   UNL     1      -8.599  12.475  65.255  1.00  0.00     0.434 OA 
HETATM   40  H   UNL     1      -9.129  11.932  64.682  1.00  0.00     0.000 HD 
ENDBRANCH   4  38
TORSDOF 12
ENDMDL
MODEL      222
REMARK 921   NORMALIZED FREE ENERGY PREDICTED BY IDOCK:    9.60 KCAL/MOL
REMARK 922        TOTAL FREE ENERGY PREDICTED BY IDOCK:   15.30 KCAL/MOL
REMARK 923 INTER-LIGAND FREE ENERGY PREDICTED BY IDOCK:    7.55 KCAL/MOL
REMARK 924 INTRA-LIGAND FREE ENERGY PREDICTED BY IDOCK:    7.75 KCAL/MOL
REMARK 927      BINDING AFFINITY PREDICTED BY RF-SCORE:    0.00 PKD
ROOT
HETATM    1  C   UNL     1     -11.610  11.850  72.474  1.00  0.00     6.236 C  
HETATM    2  N   UNL     1     -12.037  11.659  71.090  1.00  0.00    -0.136 N  
HETATM    3  O   UNL     1     -13.623  10.087  71.644  1.00  0.00    -0.311 OA 
HETATM    4  C   UNL     1     -13.036  10.733  70.780  1.00  0.00    -0.163 C  
ENDROOT
BRANCH   2   5
HETATM    5  C   UNL     1     -11.388  12.479  70.114  1.00  0.00     0.253 A  
HETATM    6  I   UNL     1     -10.667   9.705  68.942  1.00  0.00    -0.129 I  
HETATM    7  C   UNL     1     -11.565  13.886  70.143  1.00  0.00    -0.179 A  
HETATM    8  C   UNL     1     -10.878  14.705  69.223  1.00  0.00    -0.272 A  
HETATM    9  C   UNL     1     -10.569  11.880  69.121  1.00  0.00    -0.044 A  
HETATM   10  I   UNL     1     -12.941  14.709  71.602  1.00  0.00    -0.532 I  
HETATM   11  C   UNL     1      -9.809  12.681  68.231  1.00  0.00    -0.227 A  
HETATM   12  I   UNL     1      -8.492  15.371  67.330  1.00  0.00    -0.275 I  
HETATM   13  C   UNL     1      -9.938  14.095  68.335  1.00  0.00    -0.235 A  
BRANCH   8  14
HETATM   14  C   UNL     1     -11.235  16.147  69.040  1.00  0.00    -0.347 C  
HETATM   15  H   UNL     1     -12.306  17.601  69.816  1.00  0.00     0.000 HD 
HETATM   16  O   UNL     1     -12.080  16.686  69.932  1.00  0.00     0.434 OA 
BRANCH  14  17
HETATM   17  N   UNL     1     -10.765  16.834  68.067  1.00  0.00    -0.352 NA 
HETATM   18  H   UNL     1     -11.208  16.810  67.148  1.00  0.00     0.000 HD 
BRANCH  17  19
HETATM   19  C   UNL     1      -9.571  17.660  68.307  1.00  0.00    -0.306 C  
BRANCH  19  20
HETATM   20  C   UNL     1      -9.861  19.106  67.887  1.00  0.00    -0.341 C  
HETATM   21  H   UNL     1      -8.841  20.624  67.156  1.00  0.00     0.000 HD 
HETATM   22  O   UNL     1      -8.661  19.728  67.417  1.00  0.00    -0.300 OA 
BRANCH  20  23
HETATM   23  C   UNL     1     -10.955  19.160  66.806  1.00  0.00    -0.176 C  
HETATM   24  O   UNL     1     -11.018  17.947  66.058  1.00  0.00    -0.059 OA 
HETATM   25  H   UNL     1     -11.694  17.981  65.391  1.00  0.00     0.000 HD 
ENDBRANCH  20  23
ENDBRANCH  19  20
ENDBRANCH  17  19
ENDBRANCH  14  17
ENDBRANCH   8  14
BRANCH  11  26
HETATM   26  C   UNL     1      -8.912  12.020  67.224  1.00  0.00    -0.180 C  
HETATM   27  O   UNL     1      -9.519  11.220  66.323  1.00  0.00    -0.192 OA 
HETATM   28  H   UNL     1      -8.951  10.801  65.686  1.00  0.00     0.000 HD 
BRANCH  26  29
HETATM   29  N   UNL     1      -7.636  12.141  67.239  1.00  0.00    -0.153 NA 
HETATM   30  H   UNL     1      -7.173  12.811  66.626  1.00  0.00     0.000 HD 
BRANCH  29  31
HETATM   31  C   UNL     1      -6.849  11.300  68.154  1.00  0.00    -0.067 C  
BRANCH  31  32
HETATM   32  C   UNL     1      -6.884   9.805  67.757  1.00  0.00    -0.081 C  
HETATM   33  O   UNL     1      -8.220   9.279  67.718  1.00  0.00    -0.114 OA 
HETATM   34  H   UNL     1      -8.241   8.361  67.474  1.00  0.00     0.000 HD 
BRANCH  32  35
HETATM   35  C   UNL     1      -6.258   9.610  66.365  1.00  0.00    -0.068 C  
HETATM   36  O   UNL     1      -7.241   9.477  65.339  1.00  0.00    -0.090 OA 
HETATM   37  H   UNL     1      -6.855   9.356  64.480  1.00  0.00     0.000 HD 
ENDBRANCH  32  35
ENDBRANCH  31  32
ENDBRANCH  29  31
ENDBRANCH  26  29
ENDBRANCH  11  26
ENDBRANCH   2   5
BRANCH   4  38
HETATM   38  C   UNL     1     -13.380  10.509  69.296  1.00  0.00     2.457 C  
HETATM   39  O   UNL     1     -14.368   9.508  69.136  1.00  0.00     3.499 OA 
HETATM   40  H   UNL     1     -14.580   9.369  68.220  1.00  0.00     0.000 HD 
ENDBRANCH   4  38
TORSDOF 12
ENDMDL
MODEL      223
REMARK 921   NORMALIZED FREE ENERGY PREDICTED BY IDOCK:   11.30 KCAL/MOL
REMARK 922        TOTAL FREE ENERGY PREDICTED BY IDOCK:   18.19 KCAL/MOL
REMARK 923 INTER-LIGAND FREE ENERGY PREDICTED BY IDOCK:   -2.15 KCAL/MOL
REMARK 924 INTRA-LIGAND FREE ENERGY PREDICTED BY IDOCK:   20.34 KCAL/MOL
REMARK 927      BINDING AFFINITY PREDICTED BY RF-SCORE:    0.00 PKD
ROOT
HETATM    1  C   UNL     1      -5.753  10.669  68.872  1.00  0.00    -0.040 C  
HETATM    2  N   UNL     1      -7.190  10.747  68.624  1.00  0.00    -0.083 N  
HETATM    3  O   UNL     1      -7.628   8.748  69.674  1.00  0.00    -0.072 OA 
HETATM    4  C   UNL     1      -8.038   9.720  69.045  1.00  0.00    -0.101 C  
ENDROOT
BRANCH   2   5
HETATM    5  C   UNL     1      -7.649  11.926  67.955  1.00  0.00    -0.122 A  
HETATM    6  I   UNL     1      -5.872  13.276  70.102  1.00  0.00    -0.069 I  
HETATM    7  C   UNL     1      -8.407  11.810  66.762  1.00  0.00    -0.165 A  
HETATM    8  C   UNL     1      -8.916  12.964  66.132  1.00  0.00     0.162 A  
HETATM    9  C   UNL     1      -7.344  13.205  68.489  1.00  0.00    -0.111 A  
HETATM   10  I   UNL     1      -8.709   9.828  65.936  1.00  0.00    -0.204 I  
HETATM   11  C   UNL     1      -7.904  14.378  67.921  1.00  0.00    -0.155 A  
HETATM   12  I   UNL     1      -9.965  15.901  66.129  1.00  0.00    -0.420 I  
HETATM   13  C   UNL     1      -8.732  14.229  66.772  1.00  0.00    -0.134 A  
BRANCH   8  14
HETATM   14  C   UNL     1      -9.481  12.916  64.747  1.00  0.00     0.461 C  
HETATM   15  H   UNL     1     -10.544  13.952  63.458  1.00  0.00     0.000 HD 
HETATM   16  O   UNL     1     -10.186  13.982  64.337  1.00  0.00    -0.310 OA 
BRANCH  14  17
HETATM   17  N   UNL     1      -9.311  11.898  63.990  1.00  0.00    -0.480 NA 
HETATM   18  H   UNL     1      -9.559  11.935  63.001  1.00  0.00     0.000 HD 
BRANCH  17  19
HETATM   19  C   UNL     1      -8.749  10.674  64.580  1.00  0.00    -0.152 C  
BRANCH  19  20
HETATM   20  C   UNL     1      -7.226  10.677  64.402  1.00  0.00     0.223 C  
HETATM   21  H   UNL     1      -5.748   9.393  64.623  1.00  0.00     0.000 HD 
HETATM   22  O   UNL     1      -6.692   9.390  64.733  1.00  0.00    -0.081 OA 
BRANCH  20  23
HETATM   23  C   UNL     1      -6.836  11.069  62.967  1.00  0.00     0.475 C  
HETATM   24  O   UNL     1      -5.447  10.854  62.720  1.00  0.00    -0.200 OA 
HETATM   25  H   UNL     1      -5.206  11.096  61.834  1.00  0.00     0.000 HD 
ENDBRANCH  20  23
ENDBRANCH  19  20
ENDBRANCH  17  19
ENDBRANCH  14  17
ENDBRANCH   8  14
BRANCH  11  26
HETATM   26  C   UNL     1      -7.605  15.714  68.538  1.00  0.00    -0.132 C  
HETATM   27  O   UNL     1      -8.142  15.939  69.756  1.00  0.00    -0.062 OA 
HETATM   28  H   UNL     1      -7.953  16.785  70.147  1.00  0.00     0.000 HD 
BRANCH  26  29
HETATM   29  N   UNL     1      -6.937  16.627  67.938  1.00  0.00    -0.140 NA 
HETATM   30  H   UNL     1      -6.495  17.378  68.467  1.00  0.00     0.000 HD 
BRANCH  29  31
HETATM   31  C   UNL     1      -6.816  16.577  66.472  1.00  0.00    -0.007 C  
BRANCH  31  32
HETATM   32  C   UNL     1      -6.270  17.899  65.881  1.00  0.00    -0.238 C  
HETATM   33  O   UNL     1      -5.188  17.682  64.961  1.00  0.00    -0.034 OA 
HETATM   34  H   UNL     1      -4.852  18.493  64.599  1.00  0.00     0.000 HD 
BRANCH  32  35
HETATM   35  C   UNL     1      -7.385  18.647  65.132  1.00  0.00     0.782 C  
HETATM   36  O   UNL     1      -8.411  19.115  66.008  1.00  0.00    -0.429 OA 
HETATM   37  H   UNL     1      -9.100  19.577  65.545  1.00  0.00     0.000 HD 
ENDBRANCH  32  35
ENDBRANCH  31  32
ENDBRANCH  29  31
ENDBRANCH  26  29
ENDBRANCH  11  26
ENDBRANCH   2   5
BRANCH   4  38
HETATM   38  C   UNL     1      -9.530   9.813  68.675  1.00  0.00    -0.151 C  
HETATM   39  O   UNL     1      -9.882   8.863  67.688  1.00  0.00    -0.164 OA 
HETATM   40  H   UNL     1     -10.802   8.921  67.459  1.00  0.00     0.000 HD 
ENDBRANCH   4  38
TORSDOF 12
ENDMDL
MODEL      224
REMARK 921   NORMALIZED FREE ENERGY PREDICTED BY IDOCK:   13.01 KCAL/MOL
REMARK 922        TOTAL FREE ENERGY PREDICTED BY IDOCK:   21.10 KCAL/MOL
REMARK 923 INTER-LIGAND FREE ENERGY PREDICTED BY IDOCK:    4.65 KCAL/MOL
REMARK 924 INTRA-LIGAND FREE ENERGY PREDICTED BY IDOCK:   16.45 KCAL/MOL
REMARK 927      BINDING AFFINITY PREDICTED BY RF-SCORE:    0.00 PKD
ROOT
HETATM    1  C   UNL     1      -8.469  11.913  65.098  1.00  0.00     0.964 C  
HETATM    2  N   UNL     1      -9.292  11.387  66.183  1.00  0.00    -0.210 N  
HETATM    3  O   UNL     1     -11.211  12.395  65.412  1.00  0.00    -0.298 OA 
HETATM    4  C   UNL     1     -10.649  11.709  66.262  1.00  0.00    -0.258 C  
ENDROOT
BRANCH   2   5
HETATM    5  C   UNL     1      -8.627  10.531  67.117  1.00  0.00    -0.127 A  
HETATM    6  I   UNL     1      -9.350   8.409  64.981  1.00  0.00     1.270 I  
HETATM    7  C   UNL     1      -7.966  11.090  68.241  1.00  0.00    -0.124 A  
HETATM    8  C   UNL     1      -7.364  10.249  69.199  1.00  0.00    -0.096 A  
HETATM    9  C   UNL     1      -8.634   9.126  66.916  1.00  0.00    -0.123 A  
HETATM   10  I   UNL     1      -7.882  13.251  68.401  1.00  0.00    -0.040 I  
HETATM   11  C   UNL     1      -8.103   8.253  67.900  1.00  0.00    -0.127 A  
HETATM   12  I   UNL     1      -7.099   7.577  70.784  1.00  0.00    -0.060 I  
HETATM   13  C   UNL     1      -7.519   8.835  69.060  1.00  0.00    -0.081 A  
BRANCH   8  14
HETATM   14  C   UNL     1      -6.435  10.789  70.241  1.00  0.00    -0.127 C  
HETATM   15  H   UNL     1      -6.002  10.676  72.156  1.00  0.00     0.000 HD 
HETATM   16  O   UNL     1      -6.592  10.333  71.494  1.00  0.00    -0.099 OA 
BRANCH  14  17
HETATM   17  N   UNL     1      -5.539  11.656  69.955  1.00  0.00    -0.089 NA 
HETATM   18  H   UNL     1      -4.558  11.489  70.180  1.00  0.00     0.000 HD 
BRANCH  17  19
HETATM   19  C   UNL     1      -5.957  12.902  69.293  1.00  0.00    -0.093 C  
BRANCH  19  20
HETATM   20  C   UNL     1      -6.690  13.793  70.303  1.00  0.00     0.258 C  
HETATM   21  H   UNL     1      -6.451  15.588  71.078  1.00  0.00     0.000 HD 
HETATM   22  O   UNL     1      -5.997  15.036  70.452  1.00  0.00    -0.144 OA 
BRANCH  20  23
HETATM   23  C   UNL     1      -8.147  14.036  69.874  1.00  0.00     1.147 C  
HETATM   24  O   UNL     1      -8.861  14.802  70.843  1.00  0.00     1.202 OA 
HETATM   25  H   UNL     1      -9.761  14.952  70.578  1.00  0.00     0.000 HD 
ENDBRANCH  20  23
ENDBRANCH  19  20
ENDBRANCH  17  19
ENDBRANCH  14  17
ENDBRANCH   8  14
BRANCH  11  26
HETATM   26  C   UNL     1      -8.169   6.768  67.683  1.00  0.00    -0.119 C  
HETATM   27  O   UNL     1      -7.035   6.179  67.250  1.00  0.00    -0.065 OA 
HETATM   28  H   UNL     1      -7.076   5.240  67.112  1.00  0.00     0.000 HD 
BRANCH  26  29
HETATM   29  N   UNL     1      -9.245   6.088  67.831  1.00  0.00    -0.113 NA 
HETATM   30  H   UNL     1      -9.298   5.349  68.532  1.00  0.00     0.000 HD 
BRANCH  29  31
HETATM   31  C   UNL     1     -10.403   6.387  66.975  1.00  0.00    -0.244 C  
BRANCH  31  32
HETATM   32  C   UNL     1     -10.264   5.777  65.560  1.00  0.00     0.691 C  
HETATM   33  O   UNL     1      -8.895   5.533  65.201  1.00  0.00    -0.227 OA 
HETATM   34  H   UNL     1      -8.809   5.158  64.332  1.00  0.00     0.000 HD 
BRANCH  32  35
HETATM   35  C   UNL     1     -11.020   4.440  65.481  1.00  0.00     0.187 C  
HETATM   36  O   UNL     1     -10.140   3.316  65.477  1.00  0.00    -0.387 OA 
HETATM   37  H   UNL     1     -10.607   2.490  65.427  1.00  0.00     0.000 HD 
ENDBRANCH  32  35
ENDBRANCH  31  32
ENDBRANCH  29  31
ENDBRANCH  26  29
ENDBRANCH  11  26
ENDBRANCH   2   5
BRANCH   4  38
HETATM   38  C   UNL     1     -11.445  11.201  67.478  1.00  0.00    -0.216 C  
HETATM   39  O   UNL     1     -12.840  11.330  67.279  1.00  0.00     2.396 OA 
HETATM   40  H   UNL     1     -13.331  11.016  68.030  1.00  0.00     0.000 HD 
ENDBRANCH   4  38
TORSDOF 12
ENDMDL
MODEL      225
REMARK 921   NORMALIZED FREE ENERGY PREDICTED BY IDOCK:   15.01 KCAL/MOL
REMARK 922        TOTAL FREE ENERGY PREDICTED BY IDOCK:   24.50 KCAL/MOL
REMARK 923 INTER-LIGAND FREE ENERGY PREDICTED BY IDOCK:    2.42 KCAL/MOL
REMARK 924 INTRA-LIGAND FREE ENERGY PREDICTED BY IDOCK:   22.08 KCAL/MOL
REMARK 927      BINDING AFFINITY PREDICTED BY RF-SCORE:    0.00 PKD
ROOT
HETATM    1  C   UNL     1     -10.307  15.006  70.905  1.00  0.00     0.515 C  
HETATM    2  N   UNL     1     -10.693  14.974  69.497  1.00  0.00    -0.250 N  
HETATM    3  O   UNL     1     -10.426  17.243  69.223  1.00  0.00    -0.338 OA 
HETATM    4  C   UNL     1     -10.744  16.155  68.751  1.00  0.00    -0.294 C  
ENDROOT
BRANCH   2   5
HETATM    5  C   UNL     1     -10.987  13.683  68.955  1.00  0.00    -0.234 A  
HETATM    6  I   UNL     1     -11.824  13.153  71.889  1.00  0.00     3.227 I  
HETATM    7  C   UNL     1     -10.900  13.469  67.556  1.00  0.00    -0.264 A  
HETATM    8  C   UNL     1     -11.126  12.184  67.021  1.00  0.00    -0.347 A  
HETATM    9  C   UNL     1     -11.362  12.623  69.820  1.00  0.00    -0.038 A  
HETATM   10  I   UNL     1     -10.456  15.173  66.291  1.00  0.00    -0.368 I  
HETATM   11  C   UNL     1     -11.522  11.305  69.321  1.00  0.00    -0.369 A  
HETATM   12  I   UNL     1     -11.135   9.069  67.169  1.00  0.00     1.611 I  
HETATM   13  C   UNL     1     -11.347  11.098  67.923  1.00  0.00    -0.309 A  
BRANCH   8  14
HETATM   14  C   UNL     1     -11.310  11.968  65.551  1.00  0.00    -0.328 C  
HETATM   15  H   UNL     1     -12.209  10.808  64.244  1.00  0.00     0.000 HD 
HETATM   16  O   UNL     1     -12.093  10.944  65.177  1.00  0.00     1.003 OA 
BRANCH  14  17
HETATM   17  N   UNL     1     -10.737  12.719  64.688  1.00  0.00    -0.318 NA 
HETATM   18  H   UNL     1     -11.274  13.162  63.942  1.00  0.00     0.000 HD 
BRANCH  17  19
HETATM   19  C   UNL     1      -9.285  12.928  64.797  1.00  0.00     0.965 C  
BRANCH  19  20
HETATM   20  C   UNL     1      -8.591  11.576  65.001  1.00  0.00     0.454 C  
HETATM   21  H   UNL     1      -7.597  10.671  66.441  1.00  0.00     0.000 HD 
HETATM   22  O   UNL     1      -8.027  11.509  66.315  1.00  0.00    -0.103 OA 
BRANCH  20  23
HETATM   23  C   UNL     1      -9.570  10.411  64.776  1.00  0.00    -0.293 C  
HETATM   24  O   UNL     1      -9.504   9.918  63.438  1.00  0.00    -0.374 OA 
HETATM   25  H   UNL     1     -10.109   9.199  63.299  1.00  0.00     0.000 HD 
ENDBRANCH  20  23
ENDBRANCH  19  20
ENDBRANCH  17  19
ENDBRANCH  14  17
ENDBRANCH   8  14
BRANCH  11  26
HETATM   26  C   UNL     1     -11.870  10.193  70.269  1.00  0.00    -0.261 C  
HETATM   27  O   UNL     1     -13.015   9.527  70.008  1.00  0.00    -0.008 OA 
HETATM   28  H   UNL     1     -13.235   8.823  70.607  1.00  0.00     0.000 HD 
BRANCH  26  29
HETATM   29  N   UNL     1     -11.173   9.916  71.307  1.00  0.00    -0.344 NA 
HETATM   30  H   UNL     1     -10.904  10.651  71.961  1.00  0.00     0.000 HD 
BRANCH  29  31
HETATM   31  C   UNL     1     -10.767   8.522  71.546  1.00  0.00    -0.261 C  
BRANCH  31  32
HETATM   32  C   UNL     1      -9.406   8.185  70.892  1.00  0.00    -0.151 C  
HETATM   33  O   UNL     1      -9.526   7.199  69.855  1.00  0.00    -0.154 OA 
HETATM   34  H   UNL     1      -8.690   6.991  69.453  1.00  0.00     0.000 HD 
BRANCH  32  35
HETATM   35  C   UNL     1      -8.785   9.449  70.274  1.00  0.00    -0.230 C  
HETATM   36  O   UNL     1      -8.252  10.333  71.260  1.00  0.00     0.613 OA 
HETATM   37  H   UNL     1      -7.869  11.113  70.879  1.00  0.00     0.000 HD 
ENDBRANCH  32  35
ENDBRANCH  31  32
ENDBRANCH  29  31
ENDBRANCH  26  29
ENDBRANCH  11  26
ENDBRANCH   2   5
BRANCH   4  38
HETATM   38  C   UNL     1     -11.246  16.072  67.298  1.00  0.00    -0.041 C  
HETATM   39  O   UNL     1     -10.198  16.286  66.372  1.00  0.00    -0.287 OA 
HETATM   40  H   UNL     1     -10.507  16.234  65.475  1.00  0.00     0.000 HD 
ENDBRANCH   4  38
TORSDOF 12
ENDMDL
MODEL      226
REMARK 921   NORMALIZED FREE ENERGY PREDICTED BY IDOCK:   16.81 KCAL/MOL
REMARK 922        TOTAL FREE ENERGY PREDICTED BY IDOCK:   27.57 KCAL/MOL
REMARK 923 INTER-LIGAND FREE ENERGY PREDICTED BY IDOCK:    8.91 KCAL/MOL
REMARK 924 INTRA-LIGAND FREE ENERGY PREDICTED BY IDOCK:   18.66 KCAL/MOL
REMARK 927      BINDING AFFINITY PREDICTED BY RF-SCORE:    0.00 PKD
ROOT
HETATM    1  C   UNL     1      -5.358  13.388  68.360  1.00  0.00    -0.093 C  
HETATM    2  N   UNL     1      -6.805  13.242  68.484  1.00  0.00    -0.091 N  
HETATM    3  O   UNL     1      -7.087  15.347  69.370  1.00  0.00    -0.162 OA 
HETATM    4  C   UNL     1      -7.576  14.274  69.026  1.00  0.00    -0.084 C  
ENDROOT
BRANCH   2   5
HETATM    5  C   UNL     1      -7.356  12.011  68.007  1.00  0.00    -0.102 A  
HETATM    6  I   UNL     1      -7.581  13.659  65.395  1.00  0.00    10.103 I  
HETATM    7  C   UNL     1      -7.330  10.859  68.835  1.00  0.00    -0.111 A  
HETATM    8  C   UNL     1      -7.927   9.659  68.397  1.00  0.00    -0.096 A  
HETATM    9  C   UNL     1      -7.927  11.948  66.710  1.00  0.00    -0.087 A  
HETATM   10  I   UNL     1      -6.316  11.001  70.746  1.00  0.00     1.080 I  
HETATM   11  C   UNL     1      -8.600  10.779  66.272  1.00  0.00    -0.163 A  
HETATM   12  I   UNL     1     -10.008   8.027  66.745  1.00  0.00    -0.255 I  
HETATM   13  C   UNL     1      -8.634   9.662  67.155  1.00  0.00    -0.132 A  
BRANCH   8  14
HETATM   14  C   UNL     1      -7.692   8.363  69.107  1.00  0.00    -0.092 C  
HETATM   15  H   UNL     1      -7.347   7.595  70.884  1.00  0.00     0.000 HD 
HETATM   16  O   UNL     1      -7.497   8.418  70.433  1.00  0.00    -0.062 OA 
BRANCH  14  17
HETATM   17  N   UNL     1      -7.665   7.249  68.475  1.00  0.00    -0.118 NA 
HETATM   18  H   UNL     1      -6.928   6.566  68.651  1.00  0.00     0.000 HD 
BRANCH  17  19
HETATM   19  C   UNL     1      -8.724   6.979  67.490  1.00  0.00    -0.120 C  
BRANCH  19  20
HETATM   20  C   UNL     1     -10.077   6.901  68.208  1.00  0.00    -0.167 C  
HETATM   21  H   UNL     1     -11.916   7.531  67.885  1.00  0.00     0.000 HD 
HETATM   22  O   UNL     1     -11.077   7.579  67.440  1.00  0.00    -0.159 OA 
BRANCH  20  23
HETATM   23  C   UNL     1     -10.489   5.440  68.459  1.00  0.00    -0.122 C  
HETATM   24  O   UNL     1     -10.056   4.582  67.404  1.00  0.00    -0.151 OA 
HETATM   25  H   UNL     1     -10.310   3.680  67.558  1.00  0.00     0.000 HD 
ENDBRANCH  20  23
ENDBRANCH  19  20
ENDBRANCH  17  19
ENDBRANCH  14  17
ENDBRANCH   8  14
BRANCH  11  26
HETATM   26  C   UNL     1      -9.239  10.759  64.913  1.00  0.00    -0.212 C  
HETATM   27  O   UNL     1     -10.523  10.346  64.866  1.00  0.00    -0.263 OA 
HETATM   28  H   UNL     1     -10.928  10.333  64.007  1.00  0.00     0.000 HD 
BRANCH  26  29
HETATM   29  N   UNL     1      -8.605  11.049  63.838  1.00  0.00    -0.376 NA 
HETATM   30  H   UNL     1      -8.323  12.010  63.647  1.00  0.00     0.000 HD 
BRANCH  29  31
HETATM   31  C   UNL     1      -8.287   9.975  62.884  1.00  0.00    -0.166 C  
BRANCH  31  32
HETATM   32  C   UNL     1      -8.597   8.570  63.452  1.00  0.00     0.055 C  
HETATM   33  O   UNL     1      -9.613   7.887  62.702  1.00  0.00     0.971 OA 
HETATM   34  H   UNL     1      -9.804   7.025  63.052  1.00  0.00     0.000 HD 
BRANCH  32  35
HETATM   35  C   UNL     1      -7.329   7.698  63.436  1.00  0.00    -0.090 C  
HETATM   36  O   UNL     1      -7.313   6.782  62.341  1.00  0.00    -0.052 OA 
HETATM   37  H   UNL     1      -6.531   6.244  62.330  1.00  0.00     0.000 HD 
ENDBRANCH  32  35
ENDBRANCH  31  32
ENDBRANCH  29  31
ENDBRANCH  26  29
ENDBRANCH  11  26
ENDBRANCH   2   5
BRANCH   4  38
HETATM   38  C   UNL     1      -9.084  14.028  69.217  1.00  0.00     0.441 C  
HETATM   39  O   UNL     1      -9.855  14.787  68.305  1.00  0.00    -0.211 OA 
HETATM   40  H   UNL     1     -10.786  14.634  68.423  1.00  0.00     0.000 HD 
ENDBRANCH   4  38
TORSDOF 12
ENDMDL
MODEL      227
REMARK 921   NORMALIZED FREE ENERGY PREDICTED BY IDOCK:   21.96 KCAL/MOL
REMARK 922        TOTAL FREE ENERGY PREDICTED BY IDOCK:   36.32 KCAL/MOL
REMARK 923 INTER-LIGAND FREE ENERGY PREDICTED BY IDOCK:   19.40 KCAL/MOL
REMARK 924 INTRA-LIGAND FREE ENERGY PREDICTED BY IDOCK:   16.92 KCAL/MOL
REMARK 927      BINDING AFFINITY PREDICTED BY RF-SCORE:    0.00 PKD
ROOT
HETATM    1  C   UNL     1      -8.696  11.906  70.805  1.00  0.00     7.626 C  
HETATM    2  N   UNL     1      -8.010  12.969  70.076  1.00  0.00     2.088 N  
HETATM    3  O   UNL     1      -5.917  12.134  70.538  1.00  0.00    -0.207 OA 
HETATM    4  C   UNL     1      -6.614  13.005  70.025  1.00  0.00     0.200 C  
ENDROOT
BRANCH   2   5
HETATM    5  C   UNL     1      -8.849  13.928  69.426  1.00  0.00     0.716 A  
HETATM    6  I   UNL     1      -7.213  13.003  66.965  1.00  0.00     0.924 I  
HETATM    7  C   UNL     1      -9.910  14.539  70.143  1.00  0.00     0.823 A  
HETATM    8  C   UNL     1     -10.701  15.531  69.528  1.00  0.00    -0.272 A  
HETATM    9  C   UNL     1      -8.616  14.264  68.067  1.00  0.00    -0.169 A  
HETATM   10  I   UNL     1     -10.287  13.869  72.170  1.00  0.00     9.719 I  
HETATM   11  C   UNL     1      -9.346  15.310  67.446  1.00  0.00    -0.202 A  
HETATM   12  I   UNL     1     -11.180  17.842  67.490  1.00  0.00     1.250 I  
HETATM   13  C   UNL     1     -10.349  15.967  68.213  1.00  0.00    -0.242 A  
BRANCH   8  14
HETATM   14  C   UNL     1     -11.982  16.004  70.142  1.00  0.00    -0.195 C  
HETATM   15  H   UNL     1     -12.700  17.097  71.609  1.00  0.00     0.000 HD 
HETATM   16  O   UNL     1     -11.887  16.797  71.220  1.00  0.00     0.080 OA 
BRANCH  14  17
HETATM   17  N   UNL     1     -13.119  15.657  69.667  1.00  0.00    -0.266 NA 
HETATM   18  H   UNL     1     -13.224  15.422  68.680  1.00  0.00     0.000 HD 
BRANCH  17  19
HETATM   19  C   UNL     1     -14.271  15.606  70.581  1.00  0.00     0.935 C  
BRANCH  19  20
HETATM   20  C   UNL     1     -13.787  15.820  72.021  1.00  0.00    -0.303 C  
HETATM   21  H   UNL     1     -13.842  14.824  73.720  1.00  0.00     0.000 HD 
HETATM   22  O   UNL     1     -14.142  14.692  72.828  1.00  0.00    -0.498 OA 
BRANCH  20  23
HETATM   23  C   UNL     1     -12.268  16.058  72.066  1.00  0.00    -0.506 C  
HETATM   24  O   UNL     1     -11.905  16.943  73.124  1.00  0.00    -0.367 OA 
HETATM   25  H   UNL     1     -10.967  17.091  73.152  1.00  0.00     0.000 HD 
ENDBRANCH  20  23
ENDBRANCH  19  20
ENDBRANCH  17  19
ENDBRANCH  14  17
ENDBRANCH   8  14
BRANCH  11  26
HETATM   26  C   UNL     1      -9.043  15.678  66.021  1.00  0.00    -0.311 C  
HETATM   27  O   UNL     1      -8.392  16.845  65.835  1.00  0.00    -0.498 OA 
HETATM   28  H   UNL     1      -8.200  17.079  64.934  1.00  0.00     0.000 HD 
BRANCH  26  29
HETATM   29  N   UNL     1      -9.426  14.975  65.021  1.00  0.00    -0.099 NA 
HETATM   30  H   UNL     1      -9.170  15.244  64.071  1.00  0.00     0.000 HD 
BRANCH  29  31
HETATM   31  C   UNL     1     -10.241  13.774  65.262  1.00  0.00    -0.335 C  
BRANCH  31  32
HETATM   32  C   UNL     1     -11.758  14.074  65.228  1.00  0.00    -0.346 C  
HETATM   33  O   UNL     1     -12.102  15.241  65.991  1.00  0.00     0.166 OA 
HETATM   34  H   UNL     1     -13.034  15.425  65.971  1.00  0.00     0.000 HD 
BRANCH  32  35
HETATM   35  C   UNL     1     -12.223  14.301  63.780  1.00  0.00    -0.063 C  
HETATM   36  O   UNL     1     -13.067  15.446  63.652  1.00  0.00    -0.044 OA 
HETATM   37  H   UNL     1     -13.355  15.586  62.758  1.00  0.00     0.000 HD 
ENDBRANCH  32  35
ENDBRANCH  31  32
ENDBRANCH  29  31
ENDBRANCH  26  29
ENDBRANCH  11  26
ENDBRANCH   2   5
BRANCH   4  38
HETATM   38  C   UNL     1      -5.945  14.199  69.320  1.00  0.00    -0.097 C  
HETATM   39  O   UNL     1      -5.225  15.005  70.232  1.00  0.00    -0.106 OA 
HETATM   40  H   UNL     1      -4.812  15.742  69.797  1.00  0.00     0.000 HD 
ENDBRANCH   4  38
TORSDOF 12
ENDMDL
MODEL      228
REMARK 921   NORMALIZED FREE ENERGY PREDICTED BY IDOCK:   26.56 KCAL/MOL
REMARK 922        TOTAL FREE ENERGY PREDICTED BY IDOCK:   44.15 KCAL/MOL
REMARK 923 INTER-LIGAND FREE ENERGY PREDICTED BY IDOCK:   34.59 KCAL/MOL
REMARK 924 INTRA-LIGAND FREE ENERGY PREDICTED BY IDOCK:    9.55 KCAL/MOL
REMARK 927      BINDING AFFINITY PREDICTED BY RF-SCORE:    0.00 PKD
ROOT
HETATM    1  C   UNL     1      -8.606  15.434  65.952  1.00  0.00     0.503 C  
HETATM    2  N   UNL     1      -9.496  14.279  66.031  1.00  0.00    -0.234 N  
HETATM    3  O   UNL     1     -10.311  14.580  63.900  1.00  0.00     0.807 OA 
HETATM    4  C   UNL     1     -10.328  13.953  64.956  1.00  0.00    -0.396 C  
ENDROOT
BRANCH   2   5
HETATM    5  C   UNL     1      -9.441  13.524  67.244  1.00  0.00    -0.230 A  
HETATM    6  I   UNL     1     -11.032  15.964  68.292  1.00  0.00    -0.323 I  
HETATM    7  C   UNL     1      -8.914  12.207  67.232  1.00  0.00    -0.184 A  
HETATM    8  C   UNL     1      -8.797  11.480  68.435  1.00  0.00    -0.163 A  
HETATM    9  C   UNL     1      -9.911  14.096  68.455  1.00  0.00    -0.231 A  
HETATM   10  I   UNL     1      -8.347  11.354  65.321  1.00  0.00     0.849 I  
HETATM   11  C   UNL     1      -9.738  13.420  69.689  1.00  0.00     1.353 A  
HETATM   12  I   UNL     1      -8.434  11.248  71.523  1.00  0.00    13.620 I  
HETATM   13  C   UNL     1      -9.130  12.133  69.662  1.00  0.00     1.851 A  
BRANCH   8  14
HETATM   14  C   UNL     1      -8.506  10.012  68.438  1.00  0.00    -0.112 C  
HETATM   15  H   UNL     1      -7.961   8.531  69.610  1.00  0.00     0.000 HD 
HETATM   16  O   UNL     1      -8.145   9.463  69.609  1.00  0.00    -0.100 OA 
BRANCH  14  17
HETATM   17  N   UNL     1      -8.585   9.312  67.370  1.00  0.00    -0.122 NA 
HETATM   18  H   UNL     1      -8.172   9.641  66.497  1.00  0.00     0.000 HD 
BRANCH  17  19
HETATM   19  C   UNL     1      -9.287   8.020  67.431  1.00  0.00    -0.145 C  
BRANCH  19  20
HETATM   20  C   UNL     1     -10.627   8.204  68.153  1.00  0.00    -0.110 C  
HETATM   21  H   UNL     1     -11.237   8.838  69.916  1.00  0.00     0.000 HD 
HETATM   22  O   UNL     1     -10.407   8.724  69.469  1.00  0.00    -0.204 OA 
BRANCH  20  23
HETATM   23  C   UNL     1     -11.563   9.130  67.358  1.00  0.00     2.046 C  
HETATM   24  O   UNL     1     -11.323   9.043  65.954  1.00  0.00     2.021 OA 
HETATM   25  H   UNL     1     -11.901   9.615  65.463  1.00  0.00     0.000 HD 
ENDBRANCH  20  23
ENDBRANCH  19  20
ENDBRANCH  17  19
ENDBRANCH  14  17
ENDBRANCH   8  14
BRANCH  11  26
HETATM   26  C   UNL     1     -10.200  14.073  70.961  1.00  0.00     3.441 C  
HETATM   27  O   UNL     1     -10.540  15.375  70.870  1.00  0.00    -0.448 OA 
HETATM   28  H   UNL     1     -10.832  15.789  71.675  1.00  0.00     0.000 HD 
BRANCH  26  29
HETATM   29  N   UNL     1     -10.217  13.468  72.090  1.00  0.00     7.568 NA 
HETATM   30  H   UNL     1     -10.085  12.458  72.138  1.00  0.00     0.000 HD 
BRANCH  29  31
HETATM   31  C   UNL     1     -10.428  14.252  73.318  1.00  0.00     5.392 C  
BRANCH  31  32
HETATM   32  C   UNL     1     -11.694  15.138  73.240  1.00  0.00    -0.213 C  
HETATM   33  O   UNL     1     -11.438  16.405  72.614  1.00  0.00    -0.233 OA 
HETATM   34  H   UNL     1     -12.215  16.949  72.567  1.00  0.00     0.000 HD 
BRANCH  32  35
HETATM   35  C   UNL     1     -12.794  14.425  72.435  1.00  0.00    -0.354 C  
HETATM   36  O   UNL     1     -13.768  15.334  71.921  1.00  0.00    -0.412 OA 
HETATM   37  H   UNL     1     -14.447  14.894  71.424  1.00  0.00     0.000 HD 
ENDBRANCH  32  35
ENDBRANCH  31  32
ENDBRANCH  29  31
ENDBRANCH  26  29
ENDBRANCH  11  26
ENDBRANCH   2   5
BRANCH   4  38
HETATM   38  C   UNL     1     -11.311  12.781  65.130  1.00  0.00    -0.311 C  
HETATM   39  O   UNL     1     -11.152  11.812  64.112  1.00  0.00    -0.332 OA 
HETATM   40  H   UNL     1     -11.759  11.088  64.220  1.00  0.00     0.000 HD 
ENDBRANCH   4  38
TORSDOF 12
ENDMDL
MODEL      229
REMARK 921   NORMALIZED FREE ENERGY PREDICTED BY IDOCK:   28.18 KCAL/MOL
REMARK 922        TOTAL FREE ENERGY PREDICTED BY IDOCK:   46.91 KCAL/MOL
REMARK 923 INTER-LIGAND FREE ENERGY PREDICTED BY IDOCK:   35.09 KCAL/MOL
REMARK 924 INTRA-LIGAND FREE ENERGY PREDICTED BY IDOCK:   11.82 KCAL/MOL
REMARK 927      BINDING AFFINITY PREDICTED BY RF-SCORE:    0.00 PKD
ROOT
HETATM    1  C   UNL     1      -8.625  15.242  66.520  1.00  0.00    -0.229 C  
HETATM    2  N   UNL     1      -9.335  14.074  67.033  1.00  0.00    -0.240 N  
HETATM    3  O   UNL     1     -10.174  13.497  64.970  1.00  0.00    -0.345 OA 
HETATM    4  C   UNL     1     -10.103  13.281  66.177  1.00  0.00    -0.293 C  
ENDROOT
BRANCH   2   5
HETATM    5  C   UNL     1      -9.174  13.804  68.428  1.00  0.00    -0.182 A  
HETATM    6  I   UNL     1     -12.129  14.726  68.475  1.00  0.00     0.119 I  
HETATM    7  C   UNL     1      -7.981  13.196  68.896  1.00  0.00     0.159 A  
HETATM    8  C   UNL     1      -7.789  12.984  70.277  1.00  0.00     3.159 A  
HETATM    9  C   UNL     1     -10.208  14.146  69.338  1.00  0.00     0.141 A  
HETATM   10  I   UNL     1      -6.510  12.576  67.429  1.00  0.00     0.048 I  
HETATM   11  C   UNL     1     -10.013  14.015  70.737  1.00  0.00     3.192 A  
HETATM   12  I   UNL     1      -8.237  13.667  73.287  1.00  0.00    16.719 I  
HETATM   13  C   UNL     1      -8.773  13.480  71.187  1.00  0.00     8.861 A  
BRANCH   8  14
HETATM   14  C   UNL     1      -6.684  12.114  70.790  1.00  0.00     1.860 C  
HETATM   15  H   UNL     1      -5.917  11.378  72.444  1.00  0.00     0.000 HD 
HETATM   16  O   UNL     1      -6.618  11.930  72.118  1.00  0.00     3.275 OA 
BRANCH  14  17
HETATM   17  N   UNL     1      -5.831  11.579  70.000  1.00  0.00    -0.118 NA 
HETATM   18  H   UNL     1      -5.455  12.100  69.207  1.00  0.00     0.000 HD 
BRANCH  17  19
HETATM   19  C   UNL     1      -5.406  10.196  70.263  1.00  0.00    -0.046 C  
BRANCH  19  20
HETATM   20  C   UNL     1      -6.637   9.341  70.591  1.00  0.00    -0.079 C  
HETATM   21  H   UNL     1      -7.993   9.258  72.017  1.00  0.00     0.000 HD 
HETATM   22  O   UNL     1      -7.231   9.788  71.814  1.00  0.00     0.067 OA 
BRANCH  20  23
HETATM   23  C   UNL     1      -7.663   9.383  69.446  1.00  0.00    -0.085 C  
HETATM   24  O   UNL     1      -7.033   9.572  68.179  1.00  0.00    -0.076 OA 
HETATM   25  H   UNL     1      -7.667   9.599  67.472  1.00  0.00     0.000 HD 
ENDBRANCH  20  23
ENDBRANCH  19  20
ENDBRANCH  17  19
ENDBRANCH  14  17
ENDBRANCH   8  14
BRANCH  11  26
HETATM   26  C   UNL     1     -11.106  14.433  71.678  1.00  0.00     1.218 C  
HETATM   27  O   UNL     1     -12.361  14.089  71.321  1.00  0.00    -0.347 OA 
HETATM   28  H   UNL     1     -13.054  14.354  71.916  1.00  0.00     0.000 HD 
BRANCH  26  29
HETATM   29  N   UNL     1     -10.893  15.133  72.729  1.00  0.00     0.498 NA 
HETATM   30  H   UNL     1      -9.967  15.156  73.156  1.00  0.00     0.000 HD 
BRANCH  29  31
HETATM   31  C   UNL     1     -12.002  15.904  73.313  1.00  0.00    -0.447 C  
BRANCH  31  32
HETATM   32  C   UNL     1     -13.346  15.142  73.250  1.00  0.00    -0.363 C  
HETATM   33  O   UNL     1     -14.182  15.592  72.172  1.00  0.00    -0.514 OA 
HETATM   34  H   UNL     1     -15.008  15.124  72.134  1.00  0.00     0.000 HD 
BRANCH  32  35
HETATM   35  C   UNL     1     -13.096  13.636  73.057  1.00  0.00     0.145 C  
HETATM   36  O   UNL     1     -14.164  12.991  72.363  1.00  0.00    -0.504 OA 
HETATM   37  H   UNL     1     -14.009  12.061  72.244  1.00  0.00     0.000 HD 
ENDBRANCH  32  35
ENDBRANCH  31  32
ENDBRANCH  29  31
ENDBRANCH  26  29
ENDBRANCH  11  26
ENDBRANCH   2   5
BRANCH   4  38
HETATM   38  C   UNL     1     -10.903  12.117  66.790  1.00  0.00    -0.248 C  
HETATM   39  O   UNL     1     -10.586  10.885  66.172  1.00  0.00    -0.254 OA 
HETATM   40  H   UNL     1     -11.080  10.166  66.551  1.00  0.00     0.000 HD 
ENDBRANCH   4  38
TORSDOF 12
ENDMDL
MODEL      230
REMARK 921   NORMALIZED FREE ENERGY PREDICTED BY IDOCK:   32.99 KCAL/MOL
REMARK 922        TOTAL FREE ENERGY PREDICTED BY IDOCK:   55.10 KCAL/MOL
REMARK 923 INTER-LIGAND FREE ENERGY PREDICTED BY IDOCK:   35.25 KCAL/MOL
REMARK 924 INTRA-LIGAND FREE ENERGY PREDICTED BY IDOCK:   19.84 KCAL/MOL
REMARK 927      BINDING AFFINITY PREDICTED BY RF-SCORE:    0.00 PKD
ROOT
HETATM    1  C   UNL     1      -9.199   5.406  67.917  1.00  0.00    -0.110 C  
HETATM    2  N   UNL     1     -10.319   6.261  68.299  1.00  0.00    -0.172 N  
HETATM    3  O   UNL     1     -10.803   5.032  70.183  1.00  0.00    -0.074 OA 
HETATM    4  C   UNL     1     -11.074   5.971  69.439  1.00  0.00    -0.375 C  
ENDROOT
BRANCH   2   5
HETATM    5  C   UNL     1     -10.565   7.389  67.455  1.00  0.00    -0.269 A  
HETATM    6  I   UNL     1     -11.394   8.647  70.161  1.00  0.00     0.191 I  
HETATM    7  C   UNL     1     -10.182   7.346  66.090  1.00  0.00     0.473 A  
HETATM    8  C   UNL     1     -10.479   8.429  65.237  1.00  0.00     3.221 A  
HETATM    9  C   UNL     1     -11.191   8.546  67.988  1.00  0.00     0.624 A  
HETATM   10  I   UNL     1      -9.106   5.599  65.389  1.00  0.00     0.240 I  
HETATM   11  C   UNL     1     -11.568   9.619  67.140  1.00  0.00     1.732 A  
HETATM   12  I   UNL     1     -12.178  10.888  64.347  1.00  0.00     4.501 I  
HETATM   13  C   UNL     1     -11.249   9.516  65.756  1.00  0.00     2.462 A  
BRANCH   8  14
HETATM   14  C   UNL     1      -9.866   8.546  63.877  1.00  0.00     3.418 C  
HETATM   15  H   UNL     1     -10.294   8.465  61.960  1.00  0.00     0.000 HD 
HETATM   16  O   UNL     1     -10.683   8.391  62.823  1.00  0.00     7.512 OA 
BRANCH  14  17
HETATM   17  N   UNL     1      -8.615   8.770  63.723  1.00  0.00    -0.398 NA 
HETATM   18  H   UNL     1      -7.943   8.002  63.719  1.00  0.00     0.000 HD 
BRANCH  17  19
HETATM   19  C   UNL     1      -8.170  10.161  63.550  1.00  0.00    -0.165 C  
BRANCH  19  20
HETATM   20  C   UNL     1      -7.111  10.490  64.610  1.00  0.00     0.070 C  
HETATM   21  H   UNL     1      -5.459   9.666  65.297  1.00  0.00     0.000 HD 
HETATM   22  O   UNL     1      -6.115   9.462  64.641  1.00  0.00    -0.072 OA 
BRANCH  20  23
HETATM   23  C   UNL     1      -6.464  11.859  64.340  1.00  0.00     4.420 C  
HETATM   24  O   UNL     1      -5.228  11.729  63.637  1.00  0.00     0.241 OA 
HETATM   25  H   UNL     1      -4.829  12.575  63.471  1.00  0.00     0.000 HD 
ENDBRANCH  20  23
ENDBRANCH  19  20
ENDBRANCH  17  19
ENDBRANCH  14  17
ENDBRANCH   8  14
BRANCH  11  26
HETATM   26  C   UNL     1     -12.275  10.809  67.723  1.00  0.00     1.452 C  
HETATM   27  O   UNL     1     -13.259  10.541  68.607  1.00  0.00     1.568 OA 
HETATM   28  H   UNL     1     -13.706  11.294  68.976  1.00  0.00     0.000 HD 
BRANCH  26  29
HETATM   29  N   UNL     1     -12.022  12.014  67.369  1.00  0.00    -0.585 NA 
HETATM   30  H   UNL     1     -12.316  12.797  67.953  1.00  0.00     0.000 HD 
BRANCH  29  31
HETATM   31  C   UNL     1     -11.302  12.253  66.109  1.00  0.00    -0.353 C  
BRANCH  31  32
HETATM   32  C   UNL     1     -12.259  12.506  64.921  1.00  0.00    -0.470 C  
HETATM   33  O   UNL     1     -13.641  12.414  65.303  1.00  0.00     0.425 OA 
HETATM   34  H   UNL     1     -14.230  12.569  64.573  1.00  0.00     0.000 HD 
BRANCH  32  35
HETATM   35  C   UNL     1     -12.022  13.909  64.336  1.00  0.00    -0.450 C  
HETATM   36  O   UNL     1     -13.211  14.478  63.787  1.00  0.00     0.255 OA 
HETATM   37  H   UNL     1     -13.065  15.344  63.425  1.00  0.00     0.000 HD 
ENDBRANCH  32  35
ENDBRANCH  31  32
ENDBRANCH  29  31
ENDBRANCH  26  29
ENDBRANCH  11  26
ENDBRANCH   2   5
BRANCH   4  38
HETATM   38  C   UNL     1     -12.299   6.853  69.741  1.00  0.00     0.716 C  
HETATM   39  O   UNL     1     -13.490   6.281  69.234  1.00  0.00     5.225 OA 
HETATM   40  H   UNL     1     -14.246   6.826  69.421  1.00  0.00     0.000 HD 
ENDBRANCH   4  38
TORSDOF 12
ENDMDL
MODEL      231
REMARK 921   NORMALIZED FREE ENERGY PREDICTED BY IDOCK:   36.64 KCAL/MOL
REMARK 922        TOTAL FREE ENERGY PREDICTED BY IDOCK:   61.30 KCAL/MOL
REMARK 923 INTER-LIGAND FREE ENERGY PREDICTED BY IDOCK:   25.57 KCAL/MOL
REMARK 924 INTRA-LIGAND FREE ENERGY PREDICTED BY IDOCK:   35.73 KCAL/MOL
REMARK 927      BINDING AFFINITY PREDICTED BY RF-SCORE:    0.00 PKD
ROOT
HETATM    1  C   UNL     1     -10.214  14.946  70.753  1.00  0.00     0.694 C  
HETATM    2  N   UNL     1     -10.632  15.675  69.560  1.00  0.00    -0.244 N  
HETATM    3  O   UNL     1     -10.596  17.718  70.618  1.00  0.00     1.002 OA 
HETATM    4  C   UNL     1     -10.819  17.060  69.605  1.00  0.00     0.030 C  
ENDROOT
BRANCH   2   5
HETATM    5  C   UNL     1     -10.812  14.892  68.376  1.00  0.00    -0.251 A  
HETATM    6  I   UNL     1     -10.596  12.583  70.428  1.00  0.00     4.151 I  
HETATM    7  C   UNL     1     -11.112  15.532  67.146  1.00  0.00    -0.256 A  
HETATM    8  C   UNL     1     -11.228  14.773  65.963  1.00  0.00    -0.341 A  
HETATM    9  C   UNL     1     -10.687  13.480  68.437  1.00  0.00    -0.259 A  
HETATM   10  I   UNL     1     -11.424  17.677  67.163  1.00  0.00     2.184 I  
HETATM   11  C   UNL     1     -10.725  12.699  67.254  1.00  0.00    -0.259 A  
HETATM   12  I   UNL     1     -10.570  12.320  64.154  1.00  0.00    -0.534 I  
HETATM   13  C   UNL     1     -10.944  13.373  66.019  1.00  0.00    -0.271 A  
BRANCH   8  14
HETATM   14  C   UNL     1     -11.803  15.357  64.711  1.00  0.00    -0.169 C  
HETATM   15  H   UNL     1     -12.387  14.886  62.893  1.00  0.00     0.000 HD 
HETATM   16  O   UNL     1     -12.022  14.515  63.688  1.00  0.00    -0.280 OA 
BRANCH  14  17
HETATM   17  N   UNL     1     -12.062  16.607  64.612  1.00  0.00     0.448 NA 
HETATM   18  H   UNL     1     -12.891  16.931  64.113  1.00  0.00     0.000 HD 
BRANCH  17  19
HETATM   19  C   UNL     1     -11.137  17.564  65.238  1.00  0.00     0.403 C  
BRANCH  19  20
HETATM   20  C   UNL     1      -9.714  16.993  65.200  1.00  0.00     1.189 C  
HETATM   21  H   UNL     1      -8.348  16.445  66.510  1.00  0.00     0.000 HD 
HETATM   22  O   UNL     1      -9.230  16.799  66.533  1.00  0.00    -0.238 OA 
BRANCH  20  23
HETATM   23  C   UNL     1      -9.667  15.673  64.412  1.00  0.00     2.772 C  
HETATM   24  O   UNL     1      -9.284  15.883  63.053  1.00  0.00    11.722 OA 
HETATM   25  H   UNL     1      -9.255  15.068  62.567  1.00  0.00     0.000 HD 
ENDBRANCH  20  23
ENDBRANCH  19  20
ENDBRANCH  17  19
ENDBRANCH  14  17
ENDBRANCH   8  14
BRANCH  11  26
HETATM   26  C   UNL     1     -10.539  11.211  67.344  1.00  0.00    -0.234 C  
HETATM   27  O   UNL     1     -11.418  10.460  66.648  1.00  0.00     0.061 OA 
HETATM   28  H   UNL     1     -11.301   9.518  66.705  1.00  0.00     0.000 HD 
BRANCH  26  29
HETATM   29  N   UNL     1      -9.649  10.662  68.084  1.00  0.00    -0.153 NA 
HETATM   30  H   UNL     1      -9.591  10.885  69.077  1.00  0.00     0.000 HD 
BRANCH  29  31
HETATM   31  C   UNL     1      -8.711   9.703  67.480  1.00  0.00    -0.125 C  
BRANCH  31  32
HETATM   32  C   UNL     1      -7.428  10.387  66.951  1.00  0.00    -0.107 C  
HETATM   33  O   UNL     1      -7.286  10.256  65.528  1.00  0.00    -0.139 OA 
HETATM   34  H   UNL     1      -6.498  10.676  65.202  1.00  0.00     0.000 HD 
BRANCH  32  35
HETATM   35  C   UNL     1      -7.447  11.887  67.290  1.00  0.00    -0.151 C  
HETATM   36  O   UNL     1      -7.199  12.136  68.673  1.00  0.00    -0.100 OA 
HETATM   37  H   UNL     1      -7.211  13.062  68.883  1.00  0.00     0.000 HD 
ENDBRANCH  32  35
ENDBRANCH  31  32
ENDBRANCH  29  31
ENDBRANCH  26  29
ENDBRANCH  11  26
ENDBRANCH   2   5
BRANCH   4  38
HETATM   38  C   UNL     1     -11.349  17.761  68.342  1.00  0.00     0.797 C  
HETATM   39  O   UNL     1     -12.595  18.387  68.578  1.00  0.00     4.226 OA 
HETATM   40  H   UNL     1     -12.922  18.821  67.798  1.00  0.00     0.000 HD 
ENDBRANCH   4  38
TORSDOF 12
ENDMDL
