MODEL        1
REMARK 921   NORMALIZED FREE ENERGY PREDICTED BY IDOCK:   -6.32 KCAL/MOL
REMARK 922        TOTAL FREE ENERGY PREDICTED BY IDOCK:  -12.05 KCAL/MOL
REMARK 923 INTER-LIGAND FREE ENERGY PREDICTED BY IDOCK:  -11.12 KCAL/MOL
REMARK 924 INTRA-LIGAND FREE ENERGY PREDICTED BY IDOCK:   -0.93 KCAL/MOL
REMARK 927      BINDING AFFINITY PREDICTED BY RF-SCORE:    0.00 PKD
ROOT
HETATM    1  C   UNK A   0     -13.252  14.807  72.393  1.00  0.00    -0.389 C  
HETATM    2  O   UNK A   0     -14.037  13.653  72.744  1.00  0.00    -0.711 OA 
HETATM    3  C   UNK A   0     -12.429  15.225  73.592  1.00  0.00    -0.716 C  
HETATM    4  H   UNK A   0     -14.554  13.391  71.991  1.00  0.00     0.000 HD 
ENDROOT
BRANCH   1   5
HETATM    5  C   UNK A   0     -12.338  14.387  71.254  1.00  0.00    -0.359 C  
HETATM    6  O   UNK A   0     -11.047  14.738  71.458  1.00  0.00    -0.528 OA 
HETATM    7  H   UNK A   0     -10.475  14.476  70.746  1.00  0.00     0.000 HD 
BRANCH   5   8
HETATM    8  N   UNK A   0     -12.746  13.718  70.227  1.00  0.00    -0.214 NA 
HETATM    9  H   UNK A   0     -13.741  13.662  70.013  1.00  0.00     0.000 HD 
BRANCH   8  10
HETATM   10  C   UNK A   0     -11.793  13.056  69.394  1.00  0.00    -0.322 A  
HETATM   11  C   UNK A   0     -11.086  13.740  68.377  1.00  0.00    -0.263 A  
HETATM   12  I   UNK A   0     -11.407  15.901  68.186  1.00  0.00    -0.099 I  
HETATM   13  C   UNK A   0     -10.090  13.083  67.622  1.00  0.00    -0.217 A  
HETATM   14  I   UNK A   0     -12.725  10.647  71.066  1.00  0.00    -0.476 I  
HETATM   15  C   UNK A   0      -9.623  11.817  68.084  1.00  0.00    -0.193 A  
HETATM   16  I   UNK A   0      -7.609  11.240  67.460  1.00  0.00    -0.132 I  
HETATM   17  C   UNK A   0     -11.429  11.709  69.697  1.00  0.00    -0.288 A  
HETATM   18  C   UNK A   0     -10.289  11.099  69.121  1.00  0.00    -0.186 A  
BRANCH  13  19
HETATM   19  C   UNK A   0      -9.592  13.605  66.311  1.00  0.00    -0.239 C  
HETATM   20  O   UNK A   0      -8.669  14.576  66.355  1.00  0.00    -0.458 OA 
HETATM   21  H   UNK A   0      -8.353  14.907  65.522  1.00  0.00     0.000 HD 
BRANCH  19  22
ATOM     22  N   SER A   1     -10.003  13.154  65.177  1.00  0.00    -0.503 NA 
ATOM     23  H   SER A   1      -9.343  12.860  64.457  1.00  0.00     0.000 HD 
BRANCH  22  24
ATOM     24  CA  SER A   1     -11.473  13.074  64.951  1.00  0.00    -0.316 C  
BRANCH  24  25
ATOM     25  C   SER A   1     -11.689  12.231  63.681  1.00  0.00    -0.504 C  
ATOM     26  H   SER A   1     -13.214  11.486  62.684  1.00  0.00     0.000 HD 
ATOM     27  O   SER A   1     -13.081  12.007  63.468  1.00  0.00    -0.764 OA 
ENDBRANCH  24  25
BRANCH  24  28
ATOM     28  CB  SER A   1     -12.116  14.458  64.725  1.00  0.00    -0.452 C  
ATOM     29  OG  SER A   1     -12.309  14.798  63.353  1.00  0.00    -0.963 OA 
ATOM     30  HG  SER A   1     -12.705  15.650  63.214  1.00  0.00     0.000 HD 
ENDBRANCH  24  28
ENDBRANCH  22  24
ENDBRANCH  19  22
ENDBRANCH  13  19
BRANCH  18  31
HETATM   31  C   UNK A   0      -9.748   9.778  69.610  1.00  0.00    -0.222 C  
HETATM   32  H   UNK A   0      -9.764   7.874  69.186  1.00  0.00     0.000 HD 
HETATM   33  O   UNK A   0     -10.105   8.706  68.878  1.00  0.00    -0.191 OA 
BRANCH  31  34
ATOM     34  N   SER A   1      -9.044   9.627  70.680  1.00  0.00    -0.309 NA 
ATOM     35  H   SER A   1      -8.560  10.414  71.112  1.00  0.00     0.000 HD 
BRANCH  34  36
ATOM     36  CA  SER A   1      -8.966   8.252  71.260  1.00  0.00    -0.160 C  
BRANCH  36  37
ATOM     37  CB  SER A   1      -7.616   8.115  71.970  1.00  0.00    -0.106 C  
ATOM     38  HG  SER A   1      -6.777   8.788  73.621  1.00  0.00     0.000 HD 
ATOM     39  OG  SER A   1      -7.614   8.872  73.180  1.00  0.00    -0.366 OA 
ENDBRANCH  36  37
BRANCH  36  40
ATOM     40  C   SER A   1     -10.120   8.056  72.262  1.00  0.00    -0.246 C  
ATOM     41  H   SER A   1     -11.632   6.815  72.509  1.00  0.00     0.000 HD 
ATOM     42  O   SER A   1     -10.921   6.936  71.891  1.00  0.00    -0.227 OA 
ENDBRANCH  36  40
ENDBRANCH  34  36
ENDBRANCH  31  34
ENDBRANCH  18  31
ENDBRANCH   8  10
ENDBRANCH   5   8
ENDBRANCH   1   5
TORSDOF 13
ENDMDL
MODEL        2
REMARK 921   NORMALIZED FREE ENERGY PREDICTED BY IDOCK:   -6.09 KCAL/MOL
REMARK 922        TOTAL FREE ENERGY PREDICTED BY IDOCK:  -11.65 KCAL/MOL
REMARK 923 INTER-LIGAND FREE ENERGY PREDICTED BY IDOCK:  -10.87 KCAL/MOL
REMARK 924 INTRA-LIGAND FREE ENERGY PREDICTED BY IDOCK:   -0.78 KCAL/MOL
REMARK 927      BINDING AFFINITY PREDICTED BY RF-SCORE:    0.00 PKD
ROOT
HETATM    1  C   UNK A   0     -13.289  15.168  72.484  1.00  0.00    -0.441 C  
HETATM    2  O   UNK A   0     -14.010  14.011  72.947  1.00  0.00    -0.617 OA 
HETATM    3  C   UNK A   0     -12.571  15.800  73.655  1.00  0.00    -0.712 C  
HETATM    4  H   UNK A   0     -14.462  13.615  72.211  1.00  0.00     0.000 HD 
ENDROOT
BRANCH   1   5
HETATM    5  C   UNK A   0     -12.283  14.677  71.458  1.00  0.00    -0.352 C  
HETATM    6  O   UNK A   0     -11.001  14.805  71.873  1.00  0.00    -0.333 OA 
HETATM    7  H   UNK A   0     -10.371  14.499  71.231  1.00  0.00     0.000 HD 
BRANCH   5   8
HETATM    8  N   UNK A   0     -12.621  14.143  70.331  1.00  0.00    -0.347 NA 
HETATM    9  H   UNK A   0     -13.583  14.212  69.998  1.00  0.00     0.000 HD 
BRANCH   8  10
HETATM   10  C   UNK A   0     -11.639  13.454  69.554  1.00  0.00    -0.290 A  
HETATM   11  C   UNK A   0     -11.461  12.054  69.645  1.00  0.00    -0.252 A  
HETATM   12  I   UNK A   0     -12.830  10.932  70.941  1.00  0.00    -0.203 I  
HETATM   13  C   UNK A   0     -10.542  11.387  68.807  1.00  0.00    -0.235 A  
HETATM   14  I   UNK A   0     -11.044  16.332  68.643  1.00  0.00    -0.237 I  
HETATM   15  C   UNK A   0     -10.008  12.099  67.693  1.00  0.00    -0.197 A  
HETATM   16  I   UNK A   0      -9.315  10.891  66.009  1.00  0.00    -0.261 I  
HETATM   17  C   UNK A   0     -10.929  14.174  68.545  1.00  0.00    -0.254 A  
HETATM   18  C   UNK A   0     -10.179  13.508  67.546  1.00  0.00    -0.234 A  
BRANCH  13  19
HETATM   19  C   UNK A   0     -10.026  10.013  69.103  1.00  0.00    -0.204 C  
HETATM   20  O   UNK A   0      -8.830   9.929  69.702  1.00  0.00    -0.182 OA 
HETATM   21  H   UNK A   0      -8.504   9.057  69.890  1.00  0.00     0.000 HD 
BRANCH  19  22
ATOM     22  N   SER A   1     -10.683   8.943  68.819  1.00  0.00    -0.393 NA 
ATOM     23  H   SER A   1     -11.608   8.992  68.392  1.00  0.00     0.000 HD 
BRANCH  22  24
ATOM     24  CA  SER A   1     -10.050   7.632  69.133  1.00  0.00    -0.194 C  
BRANCH  24  25
ATOM     25  C   SER A   1      -9.270   7.195  67.879  1.00  0.00    -0.129 C  
ATOM     26  H   SER A   1      -7.394   7.156  67.286  1.00  0.00     0.000 HD 
ATOM     27  O   SER A   1      -7.875   7.426  68.060  1.00  0.00    -0.114 OA 
ENDBRANCH  24  25
BRANCH  24  28
ATOM     28  CB  SER A   1     -11.084   6.535  69.463  1.00  0.00    -0.365 C  
ATOM     29  OG  SER A   1     -12.224   7.002  70.182  1.00  0.00    -0.618 OA 
ATOM     30  HG  SER A   1     -12.860   6.326  70.385  1.00  0.00     0.000 HD 
ENDBRANCH  24  28
ENDBRANCH  22  24
ENDBRANCH  19  22
ENDBRANCH  13  19
BRANCH  18  31
HETATM   31  C   UNK A   0      -9.632  14.227  66.338  1.00  0.00    -0.298 C  
HETATM   32  H   UNK A   0      -8.140  15.354  65.782  1.00  0.00     0.000 HD 
HETATM   33  O   UNK A   0      -8.485  14.902  66.543  1.00  0.00    -0.188 OA 
BRANCH  31  34
ATOM     34  N   SER A   1     -10.213  14.273  65.188  1.00  0.00    -0.458 NA 
ATOM     35  H   SER A   1      -9.689  14.139  64.323  1.00  0.00     0.000 HD 
BRANCH  34  36
ATOM     36  CA  SER A   1     -11.685  14.530  65.173  1.00  0.00    -0.376 C  
BRANCH  36  37
ATOM     37  CB  SER A   1     -11.972  15.566  64.082  1.00  0.00    -0.072 C  
ATOM     38  HG  SER A   1     -11.407  17.403  63.649  1.00  0.00     0.000 HD 
ATOM     39  OG  SER A   1     -11.229  16.760  64.325  1.00  0.00    -1.163 OA 
ENDBRANCH  36  37
BRANCH  36  40
ATOM     40  C   SER A   1     -12.429  13.215  64.872  1.00  0.00    -0.433 C  
ATOM     41  H   SER A   1     -13.087  12.254  63.281  1.00  0.00     0.000 HD 
ATOM     42  O   SER A   1     -12.629  13.065  63.467  1.00  0.00    -0.720 OA 
ENDBRANCH  36  40
ENDBRANCH  34  36
ENDBRANCH  31  34
ENDBRANCH  18  31
ENDBRANCH   8  10
ENDBRANCH   5   8
ENDBRANCH   1   5
TORSDOF 13
ENDMDL
MODEL        3
REMARK 921   NORMALIZED FREE ENERGY PREDICTED BY IDOCK:   -6.00 KCAL/MOL
REMARK 922        TOTAL FREE ENERGY PREDICTED BY IDOCK:  -11.49 KCAL/MOL
REMARK 923 INTER-LIGAND FREE ENERGY PREDICTED BY IDOCK:  -10.32 KCAL/MOL
REMARK 924 INTRA-LIGAND FREE ENERGY PREDICTED BY IDOCK:   -1.17 KCAL/MOL
REMARK 927      BINDING AFFINITY PREDICTED BY RF-SCORE:    0.00 PKD
ROOT
HETATM    1  C   UNK A   0     -13.260  15.105  72.363  1.00  0.00    -0.395 C  
HETATM    2  O   UNK A   0     -14.385  14.213  72.452  1.00  0.00    -0.586 OA 
HETATM    3  C   UNK A   0     -12.527  15.105  73.686  1.00  0.00    -0.692 C  
HETATM    4  H   UNK A   0     -14.845  14.213  71.621  1.00  0.00     0.000 HD 
ENDROOT
BRANCH   1   5
HETATM    5  C   UNK A   0     -12.356  14.566  71.267  1.00  0.00    -0.351 C  
HETATM    6  O   UNK A   0     -11.041  14.698  71.556  1.00  0.00    -0.450 OA 
HETATM    7  H   UNK A   0     -10.475  14.361  70.870  1.00  0.00     0.000 HD 
BRANCH   5   8
HETATM    8  N   UNK A   0     -12.802  13.992  70.199  1.00  0.00    -0.329 NA 
HETATM    9  H   UNK A   0     -13.785  14.075  69.944  1.00  0.00     0.000 HD 
BRANCH   8  10
HETATM   10  C   UNK A   0     -11.907  13.240  69.377  1.00  0.00    -0.329 A  
HETATM   11  C   UNK A   0     -11.111  13.854  68.381  1.00  0.00    -0.255 A  
HETATM   12  I   UNK A   0     -11.199  16.039  68.206  1.00  0.00    -0.192 I  
HETATM   13  C   UNK A   0     -10.174  13.102  67.639  1.00  0.00    -0.224 A  
HETATM   14  I   UNK A   0     -13.120  10.930  71.007  1.00  0.00     0.103 I  
HETATM   15  C   UNK A   0      -9.852  11.791  68.097  1.00  0.00    -0.190 A  
HETATM   16  I   UNK A   0      -7.898  11.010  67.507  1.00  0.00    -0.130 I  
HETATM   17  C   UNK A   0     -11.692  11.860  69.674  1.00  0.00    -0.343 A  
HETATM   18  C   UNK A   0     -10.611  11.138  69.114  1.00  0.00    -0.238 A  
BRANCH  13  19
HETATM   19  C   UNK A   0      -9.598  13.580  66.343  1.00  0.00    -0.259 C  
HETATM   20  O   UNK A   0      -8.612  14.485  66.414  1.00  0.00    -0.445 OA 
HETATM   21  H   UNK A   0      -8.246  14.788  65.591  1.00  0.00     0.000 HD 
BRANCH  19  22
ATOM     22  N   SER A   1     -10.000  13.150  65.199  1.00  0.00    -0.503 NA 
ATOM     23  H   SER A   1      -9.339  12.957  64.446  1.00  0.00     0.000 HD 
BRANCH  22  24
ATOM     24  CA  SER A   1     -11.463  12.943  65.008  1.00  0.00    -0.315 C  
BRANCH  24  25
ATOM     25  C   SER A   1     -11.631  11.985  63.814  1.00  0.00    -0.476 C  
ATOM     26  H   SER A   1     -10.549  11.377  62.287  1.00  0.00     0.000 HD 
ATOM     27  O   SER A   1     -10.445  11.968  63.023  1.00  0.00    -0.323 OA 
ENDBRANCH  24  25
BRANCH  24  28
ATOM     28  CB  SER A   1     -12.212  14.253  64.682  1.00  0.00    -0.454 C  
ATOM     29  OG  SER A   1     -12.450  14.461  63.291  1.00  0.00    -1.099 OA 
ATOM     30  HG  SER A   1     -12.911  15.267  63.091  1.00  0.00     0.000 HD 
ENDBRANCH  24  28
ENDBRANCH  22  24
ENDBRANCH  19  22
ENDBRANCH  13  19
BRANCH  18  31
HETATM   31  C   UNK A   0     -10.222   9.764  69.600  1.00  0.00    -0.233 C  
HETATM   32  H   UNK A   0      -9.114   8.880  70.941  1.00  0.00     0.000 HD 
HETATM   33  O   UNK A   0      -9.359   9.745  70.634  1.00  0.00    -0.178 OA 
BRANCH  31  34
ATOM     34  N   SER A   1     -10.609   8.659  69.061  1.00  0.00    -0.331 NA 
ATOM     35  H   SER A   1     -11.133   8.652  68.185  1.00  0.00     0.000 HD 
BRANCH  34  36
ATOM     36  CA  SER A   1     -10.261   7.390  69.770  1.00  0.00    -0.209 C  
BRANCH  36  37
ATOM     37  CB  SER A   1     -11.566   6.730  70.223  1.00  0.00    -0.362 C  
ATOM     38  HG  SER A   1     -12.766   6.820  71.783  1.00  0.00     0.000 HD 
ATOM     39  OG  SER A   1     -11.957   7.230  71.502  1.00  0.00    -0.283 OA 
ENDBRANCH  36  37
BRANCH  36  40
ATOM     40  C   SER A   1      -9.498   6.462  68.806  1.00  0.00    -0.127 C  
ATOM     41  H   SER A   1      -7.821   6.510  67.771  1.00  0.00     0.000 HD 
ATOM     42  O   SER A   1      -8.292   7.082  68.365  1.00  0.00    -0.123 OA 
ENDBRANCH  36  40
ENDBRANCH  34  36
ENDBRANCH  31  34
ENDBRANCH  18  31
ENDBRANCH   8  10
ENDBRANCH   5   8
ENDBRANCH   1   5
TORSDOF 13
ENDMDL
MODEL        4
REMARK 921   NORMALIZED FREE ENERGY PREDICTED BY IDOCK:   -5.81 KCAL/MOL
REMARK 922        TOTAL FREE ENERGY PREDICTED BY IDOCK:  -11.16 KCAL/MOL
REMARK 923 INTER-LIGAND FREE ENERGY PREDICTED BY IDOCK:  -10.42 KCAL/MOL
REMARK 924 INTRA-LIGAND FREE ENERGY PREDICTED BY IDOCK:   -0.74 KCAL/MOL
REMARK 927      BINDING AFFINITY PREDICTED BY RF-SCORE:    0.00 PKD
ROOT
HETATM    1  C   UNK A   0      -8.240  10.183  62.853  1.00  0.00    -0.159 C  
HETATM    2  O   UNK A   0      -8.026  11.511  62.343  1.00  0.00    -0.598 OA 
HETATM    3  C   UNK A   0      -6.939   9.414  62.784  1.00  0.00    -0.095 C  
HETATM    4  H   UNK A   0      -8.843  11.993  62.385  1.00  0.00     0.000 HD 
ENDROOT
BRANCH   1   5
HETATM    5  C   UNK A   0      -8.682  10.332  64.298  1.00  0.00    -0.206 C  
HETATM    6  O   UNK A   0      -7.839  11.097  65.031  1.00  0.00    -0.333 OA 
HETATM    7  H   UNK A   0      -8.115  11.190  65.935  1.00  0.00     0.000 HD 
BRANCH   5   8
HETATM    8  N   UNK A   0      -9.776   9.826  64.762  1.00  0.00    -0.422 NA 
HETATM    9  H   UNK A   0     -10.148   8.961  64.370  1.00  0.00     0.000 HD 
BRANCH   8  10
HETATM   10  C   UNK A   0     -10.462  10.486  65.827  1.00  0.00    -0.143 A  
HETATM   11  C   UNK A   0     -10.316  10.082  67.175  1.00  0.00    -0.241 A  
HETATM   12  I   UNK A   0      -8.896   8.468  67.609  1.00  0.00    -0.148 I  
HETATM   13  C   UNK A   0     -10.939  10.803  68.217  1.00  0.00    -0.307 A  
HETATM   14  I   UNK A   0     -11.599  12.086  63.457  1.00  0.00    -0.349 I  
HETATM   15  C   UNK A   0     -11.481  12.086  67.916  1.00  0.00    -0.330 A  
HETATM   16  I   UNK A   0     -11.652  13.484  69.586  1.00  0.00    -0.210 I  
HETATM   17  C   UNK A   0     -11.189  11.682  65.543  1.00  0.00    -0.205 A  
HETATM   18  C   UNK A   0     -11.629  12.547  66.573  1.00  0.00    -0.447 A  
BRANCH  13  19
HETATM   19  C   UNK A   0     -11.150  10.229  69.584  1.00  0.00    -0.274 C  
HETATM   20  O   UNK A   0     -10.123  10.310  70.441  1.00  0.00    -0.404 OA 
HETATM   21  H   UNK A   0     -10.257   9.946  71.308  1.00  0.00     0.000 HD 
BRANCH  19  22
ATOM     22  N   SER A   1     -12.259   9.690  69.952  1.00  0.00    -0.329 NA 
ATOM     23  H   SER A   1     -13.068   9.674  69.331  1.00  0.00     0.000 HD 
BRANCH  22  24
ATOM     24  CA  SER A   1     -12.324   9.091  71.314  1.00  0.00    -0.302 C  
BRANCH  24  25
ATOM     25  C   SER A   1     -12.476   7.570  71.132  1.00  0.00    -0.275 C  
ATOM     26  H   SER A   1     -11.297   5.994  71.106  1.00  0.00     0.000 HD 
ATOM     27  O   SER A   1     -11.203   6.933  71.219  1.00  0.00    -0.249 OA 
ENDBRANCH  24  25
BRANCH  24  28
ATOM     28  CB  SER A   1     -13.529   9.600  72.132  1.00  0.00    -0.429 C  
ATOM     29  OG  SER A   1     -13.612  11.021  72.231  1.00  0.00    -0.550 OA 
ATOM     30  HG  SER A   1     -14.355  11.334  72.734  1.00  0.00     0.000 HD 
ENDBRANCH  24  28
ENDBRANCH  22  24
ENDBRANCH  19  22
ENDBRANCH  13  19
BRANCH  18  31
HETATM   31  C   UNK A   0     -12.174  13.925  66.290  1.00  0.00    -0.461 C  
HETATM   32  H   UNK A   0     -13.737  14.822  65.542  1.00  0.00     0.000 HD 
HETATM   33  O   UNK A   0     -13.394  13.954  65.721  1.00  0.00    -0.534 OA 
BRANCH  31  34
ATOM     34  N   SER A   1     -11.532  15.024  66.501  1.00  0.00    -0.293 NA 
ATOM     35  H   SER A   1     -11.760  15.627  67.291  1.00  0.00     0.000 HD 
BRANCH  34  36
ATOM     36  CA  SER A   1     -10.442  15.377  65.541  1.00  0.00    -0.380 C  
BRANCH  36  37
ATOM     37  CB  SER A   1     -10.813  16.704  64.874  1.00  0.00    -0.142 C  
ATOM     38  HG  SER A   1     -12.085  17.327  63.503  1.00  0.00     0.000 HD 
ATOM     39  OG  SER A   1     -11.855  16.504  63.918  1.00  0.00    -1.059 OA 
ENDBRANCH  36  37
BRANCH  36  40
ATOM     40  C   SER A   1      -9.114  15.517  66.308  1.00  0.00    -0.334 C  
ATOM     41  H   SER A   1      -8.397  16.620  67.777  1.00  0.00     0.000 HD 
ATOM     42  O   SER A   1      -9.216  16.534  67.304  1.00  0.00    -0.213 OA 
ENDBRANCH  36  40
ENDBRANCH  34  36
ENDBRANCH  31  34
ENDBRANCH  18  31
ENDBRANCH   8  10
ENDBRANCH   5   8
ENDBRANCH   1   5
TORSDOF 13
ENDMDL
MODEL        5
REMARK 921   NORMALIZED FREE ENERGY PREDICTED BY IDOCK:   -5.73 KCAL/MOL
REMARK 922        TOTAL FREE ENERGY PREDICTED BY IDOCK:  -11.02 KCAL/MOL
REMARK 923 INTER-LIGAND FREE ENERGY PREDICTED BY IDOCK:  -10.06 KCAL/MOL
REMARK 924 INTRA-LIGAND FREE ENERGY PREDICTED BY IDOCK:   -0.96 KCAL/MOL
REMARK 927      BINDING AFFINITY PREDICTED BY RF-SCORE:    0.00 PKD
ROOT
HETATM    1  C   UNK A   0     -13.030  15.896  72.690  1.00  0.00    -0.466 C  
HETATM    2  O   UNK A   0     -14.362  15.442  72.391  1.00  0.00    -0.543 OA 
HETATM    3  C   UNK A   0     -12.639  15.401  74.064  1.00  0.00    -0.741 C  
HETATM    4  H   UNK A   0     -14.607  15.753  71.528  1.00  0.00     0.000 HD 
ENDROOT
BRANCH   1   5
HETATM    5  C   UNK A   0     -12.113  15.294  71.639  1.00  0.00    -0.362 C  
HETATM    6  O   UNK A   0     -10.829  15.196  72.053  1.00  0.00    -0.407 OA 
HETATM    7  H   UNK A   0     -10.255  14.820  71.395  1.00  0.00     0.000 HD 
BRANCH   5   8
HETATM    8  N   UNK A   0     -12.531  14.871  70.491  1.00  0.00    -0.341 NA 
HETATM    9  H   UNK A   0     -13.445  15.156  70.142  1.00  0.00     0.000 HD 
BRANCH   8  10
HETATM   10  C   UNK A   0     -11.703  14.002  69.717  1.00  0.00    -0.313 A  
HETATM   11  C   UNK A   0     -11.716  12.599  69.897  1.00  0.00    -0.250 A  
HETATM   12  I   UNK A   0     -13.147  11.768  71.337  1.00  0.00     0.221 I  
HETATM   13  C   UNK A   0     -10.951  11.756  69.063  1.00  0.00    -0.276 A  
HETATM   14  I   UNK A   0     -10.769  16.702  68.574  1.00  0.00    -0.305 I  
HETATM   15  C   UNK A   0     -10.391  12.313  67.877  1.00  0.00    -0.208 A  
HETATM   16  I   UNK A   0      -9.975  10.915  66.250  1.00  0.00    -0.309 I  
HETATM   17  C   UNK A   0     -10.962  14.547  68.625  1.00  0.00    -0.251 A  
HETATM   18  C   UNK A   0     -10.373  13.720  67.639  1.00  0.00    -0.239 A  
BRANCH  13  19
HETATM   19  C   UNK A   0     -10.614  10.344  69.430  1.00  0.00    -0.239 C  
HETATM   20  O   UNK A   0     -11.506   9.401  69.094  1.00  0.00    -0.437 OA 
HETATM   21  H   UNK A   0     -11.292   8.505  69.327  1.00  0.00     0.000 HD 
BRANCH  19  22
ATOM     22  N   SER A   1      -9.522  10.018  70.027  1.00  0.00    -0.381 NA 
ATOM     23  H   SER A   1      -8.822  10.721  70.264  1.00  0.00     0.000 HD 
BRANCH  22  24
ATOM     24  CA  SER A   1      -9.313   8.582  70.363  1.00  0.00    -0.164 C  
BRANCH  24  25
ATOM     25  C   SER A   1      -9.403   8.459  71.895  1.00  0.00    -0.244 C  
ATOM     26  H   SER A   1      -8.177   8.595  73.429  1.00  0.00     0.000 HD 
ATOM     27  O   SER A   1      -8.122   8.672  72.483  1.00  0.00    -0.347 OA 
ENDBRANCH  24  25
BRANCH  24  28
ATOM     28  CB  SER A   1      -7.930   8.062  69.919  1.00  0.00    -0.111 C  
ATOM     29  OG  SER A   1      -7.644   6.728  70.336  1.00  0.00    -0.091 OA 
ATOM     30  HG  SER A   1      -6.792   6.409  70.063  1.00  0.00     0.000 HD 
ENDBRANCH  24  28
ENDBRANCH  22  24
ENDBRANCH  19  22
ENDBRANCH  13  19
BRANCH  18  31
HETATM   31  C   UNK A   0      -9.805  14.275  66.356  1.00  0.00    -0.296 C  
HETATM   32  H   UNK A   0      -8.239  15.210  65.663  1.00  0.00     0.000 HD 
HETATM   33  O   UNK A   0      -8.597  14.861  66.470  1.00  0.00    -0.230 OA 
BRANCH  31  34
ATOM     34  N   SER A   1     -10.417  14.270  65.221  1.00  0.00    -0.364 NA 
ATOM     35  H   SER A   1      -9.947  13.969  64.367  1.00  0.00     0.000 HD 
BRANCH  34  36
ATOM     36  CA  SER A   1     -11.841  14.722  65.208  1.00  0.00    -0.276 C  
BRANCH  36  37
ATOM     37  CB  SER A   1     -12.054  15.577  63.956  1.00  0.00     0.074 C  
ATOM     38  HG  SER A   1     -11.777  17.455  63.425  1.00  0.00     0.000 HD 
ATOM     39  OG  SER A   1     -11.646  16.923  64.201  1.00  0.00    -1.091 OA 
ENDBRANCH  36  37
BRANCH  36  40
ATOM     40  C   SER A   1     -12.766  13.490  65.177  1.00  0.00    -0.399 C  
ATOM     41  H   SER A   1     -13.293  12.105  63.876  1.00  0.00     0.000 HD 
ATOM     42  O   SER A   1     -12.723  12.865  63.895  1.00  0.00    -0.669 OA 
ENDBRANCH  36  40
ENDBRANCH  34  36
ENDBRANCH  31  34
ENDBRANCH  18  31
ENDBRANCH   8  10
ENDBRANCH   5   8
ENDBRANCH   1   5
TORSDOF 13
ENDMDL
MODEL        6
REMARK 921   NORMALIZED FREE ENERGY PREDICTED BY IDOCK:   -5.48 KCAL/MOL
REMARK 922        TOTAL FREE ENERGY PREDICTED BY IDOCK:  -10.57 KCAL/MOL
REMARK 923 INTER-LIGAND FREE ENERGY PREDICTED BY IDOCK:   -9.69 KCAL/MOL
REMARK 924 INTRA-LIGAND FREE ENERGY PREDICTED BY IDOCK:   -0.88 KCAL/MOL
REMARK 927      BINDING AFFINITY PREDICTED BY RF-SCORE:    0.00 PKD
ROOT
HETATM    1  C   UNK A   0     -13.445  14.572  72.124  1.00  0.00    -0.400 C  
HETATM    2  O   UNK A   0     -14.262  13.443  72.481  1.00  0.00    -0.721 OA 
HETATM    3  C   UNK A   0     -12.779  15.110  73.370  1.00  0.00    -0.661 C  
HETATM    4  H   UNK A   0     -14.681  13.106  71.698  1.00  0.00     0.000 HD 
ENDROOT
BRANCH   1   5
HETATM    5  C   UNK A   0     -12.397  14.065  71.149  1.00  0.00    -0.365 C  
HETATM    6  O   UNK A   0     -11.147  14.488  71.451  1.00  0.00    -0.403 OA 
HETATM    7  H   UNK A   0     -10.491  14.171  70.842  1.00  0.00     0.000 HD 
BRANCH   5   8
HETATM    8  N   UNK A   0     -12.666  13.270  70.167  1.00  0.00    -0.012 NA 
HETATM    9  H   UNK A   0     -13.630  12.998  69.977  1.00  0.00     0.000 HD 
BRANCH   8  10
HETATM   10  C   UNK A   0     -11.604  12.773  69.350  1.00  0.00    -0.298 A  
HETATM   11  C   UNK A   0     -10.967  13.581  68.379  1.00  0.00    -0.266 A  
HETATM   12  I   UNK A   0     -11.578  15.683  68.239  1.00  0.00    -0.014 I  
HETATM   13  C   UNK A   0      -9.866  13.094  67.643  1.00  0.00    -0.219 A  
HETATM   14  I   UNK A   0     -12.247  10.205  70.919  1.00  0.00    -0.489 I  
HETATM   15  C   UNK A   0      -9.242  11.890  68.085  1.00  0.00    -0.187 A  
HETATM   16  I   UNK A   0      -7.150  11.616  67.519  1.00  0.00    -0.144 I  
HETATM   17  C   UNK A   0     -11.067  11.480  69.628  1.00  0.00    -0.143 A  
HETATM   18  C   UNK A   0      -9.836  11.053  69.077  1.00  0.00    -0.165 A  
BRANCH  13  19
HETATM   19  C   UNK A   0      -9.403  13.723  66.366  1.00  0.00    -0.196 C  
HETATM   20  O   UNK A   0      -8.619  14.804  66.471  1.00  0.00    -0.424 OA 
HETATM   21  H   UNK A   0      -8.325  15.203  65.660  1.00  0.00     0.000 HD 
BRANCH  19  22
ATOM     22  N   SER A   1      -9.717  13.262  65.206  1.00  0.00    -0.518 NA 
ATOM     23  H   SER A   1      -8.999  13.021  64.523  1.00  0.00     0.000 HD 
BRANCH  22  24
ATOM     24  CA  SER A   1     -11.163  13.090  64.893  1.00  0.00    -0.302 C  
BRANCH  24  25
ATOM     25  C   SER A   1     -11.262  12.023  63.786  1.00  0.00    -0.440 C  
ATOM     26  H   SER A   1     -10.151  11.387  62.291  1.00  0.00     0.000 HD 
ATOM     27  O   SER A   1     -10.090  12.045  62.974  1.00  0.00    -0.348 OA 
ENDBRANCH  24  25
BRANCH  24  28
ATOM     28  CB  SER A   1     -11.817  14.386  64.371  1.00  0.00    -0.415 C  
ATOM     29  OG  SER A   1     -12.422  14.261  63.085  1.00  0.00    -1.102 OA 
ATOM     30  HG  SER A   1     -12.824  15.059  62.764  1.00  0.00     0.000 HD 
ENDBRANCH  24  28
ENDBRANCH  22  24
ENDBRANCH  19  22
ENDBRANCH  13  19
BRANCH  18  31
HETATM   31  C   UNK A   0      -9.132   9.803  69.548  1.00  0.00    -0.216 C  
HETATM   32  H   UNK A   0      -8.041   9.133  71.019  1.00  0.00     0.000 HD 
HETATM   33  O   UNK A   0      -8.484   9.919  70.722  1.00  0.00    -0.122 OA 
BRANCH  31  34
ATOM     34  N   SER A   1      -9.075   8.701  68.882  1.00  0.00    -0.145 NA 
ATOM     35  H   SER A   1      -8.228   8.132  68.871  1.00  0.00     0.000 HD 
BRANCH  34  36
ATOM     36  CA  SER A   1     -10.298   8.289  68.129  1.00  0.00    -0.202 C  
BRANCH  36  37
ATOM     37  CB  SER A   1     -10.094   8.660  66.658  1.00  0.00    -0.294 C  
ATOM     38  HG  SER A   1      -8.661   8.508  65.314  1.00  0.00     0.000 HD 
ATOM     39  OG  SER A   1      -8.788   8.277  66.227  1.00  0.00    -0.143 OA 
ENDBRANCH  36  37
BRANCH  36  40
ATOM     40  C   SER A   1     -10.497   6.768  68.274  1.00  0.00    -0.206 C  
ATOM     41  H   SER A   1      -9.746   5.305  69.361  1.00  0.00     0.000 HD 
ATOM     42  O   SER A   1      -9.623   6.242  69.271  1.00  0.00    -0.133 OA 
ENDBRANCH  36  40
ENDBRANCH  34  36
ENDBRANCH  31  34
ENDBRANCH  18  31
ENDBRANCH   8  10
ENDBRANCH   5   8
ENDBRANCH   1   5
TORSDOF 13
ENDMDL
MODEL        7
REMARK 921   NORMALIZED FREE ENERGY PREDICTED BY IDOCK:   -5.45 KCAL/MOL
REMARK 922        TOTAL FREE ENERGY PREDICTED BY IDOCK:  -10.53 KCAL/MOL
REMARK 923 INTER-LIGAND FREE ENERGY PREDICTED BY IDOCK:   -9.23 KCAL/MOL
REMARK 924 INTRA-LIGAND FREE ENERGY PREDICTED BY IDOCK:   -1.30 KCAL/MOL
REMARK 927      BINDING AFFINITY PREDICTED BY RF-SCORE:    0.00 PKD
ROOT
HETATM    1  C   UNK A   0     -11.651   9.722  71.292  1.00  0.00    -0.390 C  
HETATM    2  O   UNK A   0     -12.697  10.703  71.399  1.00  0.00    -0.372 OA 
HETATM    3  C   UNK A   0     -12.269   8.342  71.293  1.00  0.00    -0.305 C  
HETATM    4  H   UNK A   0     -12.309  11.570  71.398  1.00  0.00     0.000 HD 
ENDROOT
BRANCH   1   5
HETATM    5  C   UNK A   0     -10.943   9.976  69.971  1.00  0.00    -0.300 C  
HETATM    6  O   UNK A   0      -9.611  10.165  70.114  1.00  0.00    -0.391 OA 
HETATM    7  H   UNK A   0      -9.169  10.324  69.289  1.00  0.00     0.000 HD 
BRANCH   5   8
HETATM    8  N   UNK A   0     -11.546   9.957  68.828  1.00  0.00    -0.487 NA 
HETATM    9  H   UNK A   0     -12.532   9.703  68.772  1.00  0.00     0.000 HD 
BRANCH   8  10
HETATM   10  C   UNK A   0     -10.821  10.292  67.644  1.00  0.00    -0.307 A  
HETATM   11  C   UNK A   0     -10.106   9.321  66.904  1.00  0.00    -0.256 A  
HETATM   12  I   UNK A   0     -10.238   7.233  67.564  1.00  0.00    -0.369 I  
HETATM   13  C   UNK A   0      -9.468   9.661  65.692  1.00  0.00    -0.318 A  
HETATM   14  I   UNK A   0     -11.818  13.100  68.410  1.00  0.00    -0.183 I  
HETATM   15  C   UNK A   0      -9.785  10.916  65.095  1.00  0.00    -0.262 A  
HETATM   16  I   UNK A   0      -9.494  11.065  62.934  1.00  0.00    -0.288 I  
HETATM   17  C   UNK A   0     -10.951  11.608  67.105  1.00  0.00    -0.280 A  
HETATM   18  C   UNK A   0     -10.521  11.920  65.793  1.00  0.00    -0.295 A  
BRANCH  13  19
HETATM   19  C   UNK A   0      -8.398   8.814  65.075  1.00  0.00    -0.170 C  
HETATM   20  O   UNK A   0      -8.777   7.967  64.108  1.00  0.00    -0.381 OA 
HETATM   21  H   UNK A   0      -8.098   7.430  63.717  1.00  0.00     0.000 HD 
BRANCH  19  22
ATOM     22  N   SER A   1      -7.162   8.884  65.427  1.00  0.00    -0.083 NA 
ATOM     23  H   SER A   1      -6.848   8.514  66.324  1.00  0.00     0.000 HD 
BRANCH  22  24
ATOM     24  CA  SER A   1      -6.204   9.523  64.481  1.00  0.00    -0.084 C  
BRANCH  24  25
ATOM     25  C   SER A   1      -5.132   8.470  64.146  1.00  0.00    -0.044 C  
ATOM     26  H   SER A   1      -4.470   6.785  64.919  1.00  0.00     0.000 HD 
ATOM     27  O   SER A   1      -5.133   7.435  65.126  1.00  0.00    -0.027 OA 
ENDBRANCH  24  25
BRANCH  24  28
ATOM     28  CB  SER A   1      -5.498  10.752  65.089  1.00  0.00    -0.113 C  
ATOM     29  OG  SER A   1      -6.347  11.587  65.875  1.00  0.00    -0.387 OA 
ATOM     30  HG  SER A   1      -5.911  12.343  66.250  1.00  0.00     0.000 HD 
ENDBRANCH  24  28
ENDBRANCH  22  24
ENDBRANCH  19  22
ENDBRANCH  13  19
BRANCH  18  31
HETATM   31  C   UNK A   0     -10.871  13.224  65.119  1.00  0.00    -0.310 C  
HETATM   32  H   UNK A   0     -12.311  14.088  64.127  1.00  0.00     0.000 HD 
HETATM   33  O   UNK A   0     -12.091  13.267  64.551  1.00  0.00    -0.376 OA 
BRANCH  31  34
ATOM     34  N   SER A   1     -10.072  14.230  65.014  1.00  0.00    -0.549 NA 
ATOM     35  H   SER A   1      -9.477  14.351  64.195  1.00  0.00     0.000 HD 
BRANCH  34  36
ATOM     36  CA  SER A   1     -10.054  15.213  66.140  1.00  0.00    -0.295 C  
BRANCH  36  37
ATOM     37  CB  SER A   1      -8.609  15.344  66.629  1.00  0.00    -0.283 C  
ATOM     38  HG  SER A   1      -7.228  14.162  67.392  1.00  0.00     0.000 HD 
ATOM     39  OG  SER A   1      -8.125  14.081  67.088  1.00  0.00    -0.174 OA 
ENDBRANCH  36  37
BRANCH  36  40
ATOM     40  C   SER A   1     -10.574  16.573  65.638  1.00  0.00    -0.304 C  
ATOM     41  H   SER A   1     -11.302  17.318  63.964  1.00  0.00     0.000 HD 
ATOM     42  O   SER A   1     -10.981  16.480  64.274  1.00  0.00    -0.848 OA 
ENDBRANCH  36  40
ENDBRANCH  34  36
ENDBRANCH  31  34
ENDBRANCH  18  31
ENDBRANCH   8  10
ENDBRANCH   5   8
ENDBRANCH   1   5
TORSDOF 13
ENDMDL
MODEL        8
REMARK 921   NORMALIZED FREE ENERGY PREDICTED BY IDOCK:   -5.45 KCAL/MOL
REMARK 922        TOTAL FREE ENERGY PREDICTED BY IDOCK:  -10.53 KCAL/MOL
REMARK 923 INTER-LIGAND FREE ENERGY PREDICTED BY IDOCK:   -9.43 KCAL/MOL
REMARK 924 INTRA-LIGAND FREE ENERGY PREDICTED BY IDOCK:   -1.10 KCAL/MOL
REMARK 927      BINDING AFFINITY PREDICTED BY RF-SCORE:    0.00 PKD
ROOT
HETATM    1  C   UNK A   0     -13.052  15.649  71.191  1.00  0.00    -0.459 C  
HETATM    2  O   UNK A   0     -14.408  15.224  70.964  1.00  0.00    -0.737 OA 
HETATM    3  C   UNK A   0     -12.775  15.633  72.677  1.00  0.00    -0.535 C  
HETATM    4  H   UNK A   0     -14.582  15.235  70.030  1.00  0.00     0.000 HD 
ENDROOT
BRANCH   1   5
HETATM    5  C   UNK A   0     -12.153  14.651  70.482  1.00  0.00    -0.321 C  
HETATM    6  O   UNK A   0     -10.895  14.628  70.980  1.00  0.00    -0.488 OA 
HETATM    7  H   UNK A   0     -10.333  14.004  70.536  1.00  0.00     0.000 HD 
BRANCH   5   8
HETATM    8  N   UNK A   0     -12.566  13.870  69.539  1.00  0.00    -0.344 NA 
HETATM    9  H   UNK A   0     -13.424  14.085  69.032  1.00  0.00     0.000 HD 
BRANCH   8  10
HETATM   10  C   UNK A   0     -11.811  12.702  69.211  1.00  0.00    -0.302 A  
HETATM   11  C   UNK A   0     -11.907  11.512  69.969  1.00  0.00    -0.355 A  
HETATM   12  I   UNK A   0     -13.354  11.465  71.618  1.00  0.00     0.342 I  
HETATM   13  C   UNK A   0     -11.215  10.346  69.576  1.00  0.00    -0.325 A  
HETATM   14  I   UNK A   0     -10.738  14.596  67.036  1.00  0.00    -0.307 I  
HETATM   15  C   UNK A   0     -10.648  10.310  68.268  1.00  0.00    -0.221 A  
HETATM   16  I   UNK A   0     -10.357   8.331  67.390  1.00  0.00    -0.273 I  
HETATM   17  C   UNK A   0     -11.062  12.684  67.995  1.00  0.00    -0.251 A  
HETATM   18  C   UNK A   0     -10.549  11.480  67.456  1.00  0.00    -0.243 A  
BRANCH  13  19
HETATM   19  C   UNK A   0     -10.958   9.204  70.509  1.00  0.00    -0.258 C  
HETATM   20  O   UNK A   0     -11.876   8.228  70.540  1.00  0.00    -0.469 OA 
HETATM   21  H   UNK A   0     -11.713   7.503  71.132  1.00  0.00     0.000 HD 
BRANCH  19  22
ATOM     22  N   SER A   1      -9.907   9.128  71.248  1.00  0.00    -0.299 NA 
ATOM     23  H   SER A   1      -9.493   9.963  71.661  1.00  0.00     0.000 HD 
BRANCH  22  24
ATOM     24  CA  SER A   1      -9.316   7.781  71.481  1.00  0.00    -0.137 C  
BRANCH  24  25
ATOM     25  C   SER A   1      -8.947   7.702  72.974  1.00  0.00    -0.176 C  
ATOM     26  H   SER A   1      -7.937   8.784  74.271  1.00  0.00     0.000 HD 
ATOM     27  O   SER A   1      -8.165   8.833  73.350  1.00  0.00    -0.389 OA 
ENDBRANCH  24  25
BRANCH  24  28
ATOM     28  CB  SER A   1      -8.034   7.542  70.657  1.00  0.00    -0.100 C  
ATOM     29  OG  SER A   1      -8.066   6.366  69.851  1.00  0.00    -0.116 OA 
ATOM     30  HG  SER A   1      -7.276   6.220  69.343  1.00  0.00     0.000 HD 
ENDBRANCH  24  28
ENDBRANCH  22  24
ENDBRANCH  19  22
ENDBRANCH  13  19
BRANCH  18  31
HETATM   31  C   UNK A   0      -9.977  11.400  66.062  1.00  0.00    -0.231 C  
HETATM   32  H   UNK A   0      -8.283  11.528  65.101  1.00  0.00     0.000 HD 
HETATM   33  O   UNK A   0      -8.644  11.578  65.979  1.00  0.00    -0.148 OA 
BRANCH  31  34
ATOM     34  N   SER A   1     -10.676  11.239  64.992  1.00  0.00    -0.281 NA 
ATOM     35  H   SER A   1     -11.401  10.524  64.935  1.00  0.00     0.000 HD 
BRANCH  34  36
ATOM     36  CA  SER A   1     -10.382  12.142  63.837  1.00  0.00    -0.415 C  
BRANCH  36  37
ATOM     37  CB  SER A   1      -9.800  11.289  62.707  1.00  0.00    -0.205 C  
ATOM     38  HG  SER A   1      -9.058   9.475  62.500  1.00  0.00     0.000 HD 
ATOM     39  OG  SER A   1      -9.419  10.005  63.201  1.00  0.00    -0.299 OA 
ENDBRANCH  36  37
BRANCH  36  40
ATOM     40  C   SER A   1     -11.686  12.822  63.378  1.00  0.00    -0.488 C  
ATOM     41  H   SER A   1     -13.491  12.264  62.814  1.00  0.00     0.000 HD 
ATOM     42  O   SER A   1     -12.687  11.845  63.097  1.00  0.00    -0.595 OA 
ENDBRANCH  36  40
ENDBRANCH  34  36
ENDBRANCH  31  34
ENDBRANCH  18  31
ENDBRANCH   8  10
ENDBRANCH   5   8
ENDBRANCH   1   5
TORSDOF 13
ENDMDL
MODEL        9
REMARK 921   NORMALIZED FREE ENERGY PREDICTED BY IDOCK:   -5.38 KCAL/MOL
REMARK 922        TOTAL FREE ENERGY PREDICTED BY IDOCK:  -10.39 KCAL/MOL
REMARK 923 INTER-LIGAND FREE ENERGY PREDICTED BY IDOCK:  -10.45 KCAL/MOL
REMARK 924 INTRA-LIGAND FREE ENERGY PREDICTED BY IDOCK:    0.05 KCAL/MOL
REMARK 927      BINDING AFFINITY PREDICTED BY RF-SCORE:    0.00 PKD
ROOT
HETATM    1  C   UNK A   0      -6.497  10.285  64.211  1.00  0.00    -0.083 C  
HETATM    2  O   UNK A   0      -5.350  11.125  64.429  1.00  0.00    -0.485 OA 
HETATM    3  C   UNK A   0      -6.060   8.837  64.245  1.00  0.00    -0.071 C  
HETATM    4  H   UNK A   0      -5.625  12.034  64.407  1.00  0.00     0.000 HD 
ENDROOT
BRANCH   1   5
HETATM    5  C   UNK A   0      -7.469  10.563  65.345  1.00  0.00    -0.089 C  
HETATM    6  O   UNK A   0      -7.114  11.633  66.092  1.00  0.00    -0.368 OA 
HETATM    7  H   UNK A   0      -7.722  11.807  66.802  1.00  0.00     0.000 HD 
BRANCH   5   8
HETATM    8  N   UNK A   0      -8.548   9.879  65.537  1.00  0.00    -0.138 NA 
HETATM    9  H   UNK A   0      -8.681   8.985  65.065  1.00  0.00     0.000 HD 
BRANCH   8  10
HETATM   10  C   UNK A   0      -9.555  10.385  66.416  1.00  0.00    -0.179 A  
HETATM   11  C   UNK A   0      -9.597  10.035  67.786  1.00  0.00    -0.148 A  
HETATM   12  I   UNK A   0      -7.984   8.771  68.567  1.00  0.00    -0.114 I  
HETATM   13  C   UNK A   0     -10.551  10.613  68.651  1.00  0.00    -0.229 A  
HETATM   14  I   UNK A   0     -10.511  11.677  63.792  1.00  0.00    -0.573 I  
HETATM   15  C   UNK A   0     -11.281  11.746  68.185  1.00  0.00    -0.260 A  
HETATM   16  I   UNK A   0     -12.071  13.089  69.717  1.00  0.00    -0.070 I  
HETATM   17  C   UNK A   0     -10.447  11.392  65.936  1.00  0.00    -0.258 A  
HETATM   18  C   UNK A   0     -11.254  12.151  66.817  1.00  0.00    -0.375 A  
BRANCH  13  19
HETATM   19  C   UNK A   0     -10.903  10.021  69.980  1.00  0.00    -0.302 C  
HETATM   20  O   UNK A   0     -10.105  10.327  71.011  1.00  0.00    -0.009 OA 
HETATM   21  H   UNK A   0     -10.329   9.952  71.855  1.00  0.00     0.000 HD 
BRANCH  19  22
ATOM     22  N   SER A   1     -11.926   9.260  70.157  1.00  0.00    -0.454 NA 
ATOM     23  H   SER A   1     -12.503   8.962  69.370  1.00  0.00     0.000 HD 
BRANCH  22  24
ATOM     24  CA  SER A   1     -12.240   8.828  71.547  1.00  0.00    -0.327 C  
BRANCH  24  25
ATOM     25  C   SER A   1     -12.421   7.299  71.515  1.00  0.00    -0.373 C  
ATOM     26  H   SER A   1     -13.902   6.025  71.279  1.00  0.00     0.000 HD 
ATOM     27  O   SER A   1     -13.791   6.968  71.298  1.00  0.00    -0.291 OA 
ENDBRANCH  24  25
BRANCH  24  28
ATOM     28  CB  SER A   1     -13.543   9.455  72.086  1.00  0.00    -0.457 C  
ATOM     29  OG  SER A   1     -13.920   8.998  73.384  1.00  0.00    -1.220 OA 
ATOM     30  HG  SER A   1     -14.722   9.385  73.715  1.00  0.00     0.000 HD 
ENDBRANCH  24  28
ENDBRANCH  22  24
ENDBRANCH  19  22
ENDBRANCH  13  19
BRANCH  18  31
HETATM   31  C   UNK A   0     -12.010  13.376  66.363  1.00  0.00    -0.406 C  
HETATM   32  H   UNK A   0     -13.404  13.930  65.116  1.00  0.00     0.000 HD 
HETATM   33  O   UNK A   0     -12.928  13.159  65.402  1.00  0.00    -0.617 OA 
BRANCH  31  34
ATOM     34  N   SER A   1     -11.787  14.572  66.788  1.00  0.00    -0.392 NA 
ATOM     35  H   SER A   1     -12.221  14.920  67.643  1.00  0.00     0.000 HD 
BRANCH  34  36
ATOM     36  CA  SER A   1     -10.868  15.428  65.978  1.00  0.00    -0.314 C  
BRANCH  36  37
ATOM     37  CB  SER A   1      -9.482  14.778  65.994  1.00  0.00    -0.264 C  
ATOM     38  HG  SER A   1      -8.042  14.476  67.306  1.00  0.00     0.000 HD 
ATOM     39  OG  SER A   1      -8.903  14.878  67.295  1.00  0.00    -0.179 OA 
ENDBRANCH  36  37
BRANCH  36  40
ATOM     40  C   SER A   1     -11.399  15.521  64.535  1.00  0.00    -0.314 C  
ATOM     41  H   SER A   1     -11.518  16.888  63.119  1.00  0.00     0.000 HD 
ATOM     42  O   SER A   1     -11.191  16.831  64.009  1.00  0.00    -1.089 OA 
ENDBRANCH  36  40
ENDBRANCH  34  36
ENDBRANCH  31  34
ENDBRANCH  18  31
ENDBRANCH   8  10
ENDBRANCH   5   8
ENDBRANCH   1   5
TORSDOF 13
ENDMDL
MODEL       10
REMARK 921   NORMALIZED FREE ENERGY PREDICTED BY IDOCK:   -5.36 KCAL/MOL
REMARK 922        TOTAL FREE ENERGY PREDICTED BY IDOCK:  -10.36 KCAL/MOL
REMARK 923 INTER-LIGAND FREE ENERGY PREDICTED BY IDOCK:   -9.57 KCAL/MOL
REMARK 924 INTRA-LIGAND FREE ENERGY PREDICTED BY IDOCK:   -0.80 KCAL/MOL
REMARK 927      BINDING AFFINITY PREDICTED BY RF-SCORE:    0.00 PKD
ROOT
HETATM    1  C   UNK A   0     -11.561   9.474  71.312  1.00  0.00    -0.374 C  
HETATM    2  O   UNK A   0     -12.921   9.125  70.998  1.00  0.00    -0.506 OA 
HETATM    3  C   UNK A   0     -10.842   8.243  71.818  1.00  0.00    -0.332 C  
HETATM    4  H   UNK A   0     -13.372   9.899  70.680  1.00  0.00     0.000 HD 
ENDROOT
BRANCH   1   5
HETATM    5  C   UNK A   0     -10.921   9.958  70.022  1.00  0.00    -0.291 C  
HETATM    6  O   UNK A   0      -9.603  10.234  70.158  1.00  0.00    -0.401 OA 
HETATM    7  H   UNK A   0      -9.203  10.537  69.351  1.00  0.00     0.000 HD 
BRANCH   5   8
HETATM    8  N   UNK A   0     -11.560  10.043  68.902  1.00  0.00    -0.498 NA 
HETATM    9  H   UNK A   0     -12.568   9.893  68.873  1.00  0.00     0.000 HD 
BRANCH   8  10
HETATM   10  C   UNK A   0     -10.844  10.349  67.704  1.00  0.00    -0.306 A  
HETATM   11  C   UNK A   0     -10.148   9.356  66.974  1.00  0.00    -0.240 A  
HETATM   12  I   UNK A   0     -10.296   7.282  67.674  1.00  0.00    -0.331 I  
HETATM   13  C   UNK A   0      -9.518   9.667  65.750  1.00  0.00    -0.308 A  
HETATM   14  I   UNK A   0     -11.800  13.182  68.429  1.00  0.00    -0.183 I  
HETATM   15  C   UNK A   0      -9.827  10.915  65.134  1.00  0.00    -0.275 A  
HETATM   16  I   UNK A   0      -9.558  11.021  62.968  1.00  0.00    -0.332 I  
HETATM   17  C   UNK A   0     -10.964  11.656  67.143  1.00  0.00    -0.280 A  
HETATM   18  C   UNK A   0     -10.545  11.939  65.821  1.00  0.00    -0.309 A  
BRANCH  13  19
HETATM   19  C   UNK A   0      -8.465   8.797  65.137  1.00  0.00    -0.174 C  
HETATM   20  O   UNK A   0      -7.196   9.036  65.497  1.00  0.00    -0.083 OA 
HETATM   21  H   UNK A   0      -6.528   8.483  65.108  1.00  0.00     0.000 HD 
BRANCH  19  22
ATOM     22  N   SER A   1      -8.736   7.848  64.311  1.00  0.00    -0.301 NA 
ATOM     23  H   SER A   1      -9.687   7.700  63.973  1.00  0.00     0.000 HD 
BRANCH  22  24
ATOM     24  CA  SER A   1      -7.617   6.973  63.865  1.00  0.00    -0.109 C  
BRANCH  24  25
ATOM     25  C   SER A   1      -7.171   7.480  62.481  1.00  0.00    -0.084 C  
ATOM     26  H   SER A   1      -5.603   8.388  61.712  1.00  0.00     0.000 HD 
ATOM     27  O   SER A   1      -5.878   8.075  62.566  1.00  0.00    -0.068 OA 
ENDBRANCH  24  25
BRANCH  24  28
ATOM     28  CB  SER A   1      -8.037   5.495  63.723  1.00  0.00    -0.121 C  
ATOM     29  OG  SER A   1      -9.146   5.120  64.537  1.00  0.00    -0.327 OA 
ATOM     30  HG  SER A   1      -9.405   4.211  64.449  1.00  0.00     0.000 HD 
ENDBRANCH  24  28
ENDBRANCH  22  24
ENDBRANCH  19  22
ENDBRANCH  13  19
BRANCH  18  31
HETATM   31  C   UNK A   0     -10.886  13.235  65.128  1.00  0.00    -0.310 C  
HETATM   32  H   UNK A   0     -12.353  14.126  64.199  1.00  0.00     0.000 HD 
HETATM   33  O   UNK A   0     -12.138  13.310  64.636  1.00  0.00    -0.373 OA 
BRANCH  31  34
ATOM     34  N   SER A   1     -10.058  14.205  64.939  1.00  0.00    -0.575 NA 
ATOM     35  H   SER A   1      -9.466  14.243  64.110  1.00  0.00     0.000 HD 
BRANCH  34  36
ATOM     36  CA  SER A   1     -10.002  15.272  65.985  1.00  0.00    -0.319 C  
BRANCH  36  37
ATOM     37  CB  SER A   1      -8.547  15.731  66.113  1.00  0.00    -0.177 C  
ATOM     38  HG  SER A   1      -7.563  17.439  66.096  1.00  0.00     0.000 HD 
ATOM     39  OG  SER A   1      -8.466  17.153  66.018  1.00  0.00    -0.482 OA 
ENDBRANCH  36  37
BRANCH  36  40
ATOM     40  C   SER A   1     -10.899  16.450  65.560  1.00  0.00    -0.215 C  
ATOM     41  H   SER A   1     -11.796  17.069  63.917  1.00  0.00     0.000 HD 
ATOM     42  O   SER A   1     -11.243  16.343  64.179  1.00  0.00    -0.882 OA 
ENDBRANCH  36  40
ENDBRANCH  34  36
ENDBRANCH  31  34
ENDBRANCH  18  31
ENDBRANCH   8  10
ENDBRANCH   5   8
ENDBRANCH   1   5
TORSDOF 13
ENDMDL
MODEL       11
REMARK 921   NORMALIZED FREE ENERGY PREDICTED BY IDOCK:   -5.33 KCAL/MOL
REMARK 922        TOTAL FREE ENERGY PREDICTED BY IDOCK:  -10.31 KCAL/MOL
REMARK 923 INTER-LIGAND FREE ENERGY PREDICTED BY IDOCK:   -9.66 KCAL/MOL
REMARK 924 INTRA-LIGAND FREE ENERGY PREDICTED BY IDOCK:   -0.65 KCAL/MOL
REMARK 927      BINDING AFFINITY PREDICTED BY RF-SCORE:    0.00 PKD
ROOT
HETATM    1  C   UNK A   0     -12.522  15.717  70.815  1.00  0.00    -0.435 C  
HETATM    2  O   UNK A   0     -13.901  15.351  70.634  1.00  0.00    -0.809 OA 
HETATM    3  C   UNK A   0     -12.158  15.555  72.274  1.00  0.00    -0.520 C  
HETATM    4  H   UNK A   0     -14.130  15.453  69.718  1.00  0.00     0.000 HD 
ENDROOT
BRANCH   1   5
HETATM    5  C   UNK A   0     -11.698  14.766  69.963  1.00  0.00    -0.295 C  
HETATM    6  O   UNK A   0     -10.386  14.766  70.291  1.00  0.00    -0.466 OA 
HETATM    7  H   UNK A   0      -9.870  14.171  69.758  1.00  0.00     0.000 HD 
BRANCH   5   8
HETATM    8  N   UNK A   0     -12.211  13.998  69.059  1.00  0.00    -0.494 NA 
HETATM    9  H   UNK A   0     -13.098  14.244  68.620  1.00  0.00     0.000 HD 
BRANCH   8  10
HETATM   10  C   UNK A   0     -11.528  12.803  68.679  1.00  0.00    -0.303 A  
HETATM   11  C   UNK A   0     -11.545  11.642  69.488  1.00  0.00    -0.331 A  
HETATM   12  I   UNK A   0     -12.762  11.686  71.312  1.00  0.00    -0.073 I  
HETATM   13  C   UNK A   0     -10.932  10.448  69.051  1.00  0.00    -0.282 A  
HETATM   14  I   UNK A   0     -10.717  14.594  66.313  1.00  0.00    -0.354 I  
HETATM   15  C   UNK A   0     -10.544  10.353  67.683  1.00  0.00    -0.257 A  
HETATM   16  I   UNK A   0     -10.407   8.338  66.850  1.00  0.00    -0.093 I  
HETATM   17  C   UNK A   0     -10.947  12.724  67.377  1.00  0.00    -0.253 A  
HETATM   18  C   UNK A   0     -10.531  11.491  66.821  1.00  0.00    -0.275 A  
BRANCH  13  19
HETATM   19  C   UNK A   0     -10.575   9.333  69.985  1.00  0.00    -0.228 C  
HETATM   20  O   UNK A   0      -9.494   9.510  70.757  1.00  0.00    -0.251 OA 
HETATM   21  H   UNK A   0      -9.268   8.802  71.349  1.00  0.00     0.000 HD 
BRANCH  19  22
ATOM     22  N   SER A   1     -11.263   8.249  70.073  1.00  0.00    -0.433 NA 
ATOM     23  H   SER A   1     -11.610   7.776  69.239  1.00  0.00     0.000 HD 
BRANCH  22  24
ATOM     24  CA  SER A   1     -11.537   7.707  71.434  1.00  0.00    -0.274 C  
BRANCH  24  25
ATOM     25  C   SER A   1     -11.151   6.217  71.412  1.00  0.00    -0.288 C  
ATOM     26  H   SER A   1      -9.573   5.141  70.939  1.00  0.00     0.000 HD 
ATOM     27  O   SER A   1      -9.811   6.060  70.952  1.00  0.00    -0.178 OA 
ENDBRANCH  24  25
BRANCH  24  28
ATOM     28  CB  SER A   1     -13.025   7.813  71.828  1.00  0.00    -0.323 C  
ATOM     29  OG  SER A   1     -13.261   8.535  73.036  1.00  0.00    -0.732 OA 
ATOM     30  HG  SER A   1     -14.177   8.600  73.279  1.00  0.00     0.000 HD 
ENDBRANCH  24  28
ENDBRANCH  22  24
ENDBRANCH  19  22
ENDBRANCH  13  19
BRANCH  18  31
HETATM   31  C   UNK A   0     -10.149  11.350  65.369  1.00  0.00    -0.261 C  
HETATM   32  H   UNK A   0     -10.934  11.028  63.611  1.00  0.00     0.000 HD 
HETATM   33  O   UNK A   0     -11.174  11.117  64.526  1.00  0.00    -0.197 OA 
BRANCH  31  34
ATOM     34  N   SER A   1      -8.940  11.380  64.923  1.00  0.00    -0.398 NA 
ATOM     35  H   SER A   1      -8.388  12.238  64.945  1.00  0.00     0.000 HD 
BRANCH  34  36
ATOM     36  CA  SER A   1      -8.379  10.108  64.374  1.00  0.00    -0.171 C  
BRANCH  36  37
ATOM     37  CB  SER A   1      -8.108  10.317  62.882  1.00  0.00    -0.153 C  
ATOM     38  HG  SER A   1      -8.610  11.618  61.490  1.00  0.00     0.000 HD 
ATOM     39  OG  SER A   1      -8.778  11.489  62.416  1.00  0.00    -0.310 OA 
ENDBRANCH  36  37
BRANCH  36  40
ATOM     40  C   SER A   1      -7.071   9.768  65.113  1.00  0.00    -0.121 C  
ATOM     41  H   SER A   1      -5.207  10.412  65.132  1.00  0.00     0.000 HD 
ATOM     42  O   SER A   1      -6.014  10.621  64.676  1.00  0.00    -0.106 OA 
ENDBRANCH  36  40
ENDBRANCH  34  36
ENDBRANCH  31  34
ENDBRANCH  18  31
ENDBRANCH   8  10
ENDBRANCH   5   8
ENDBRANCH   1   5
TORSDOF 13
ENDMDL
MODEL       12
REMARK 921   NORMALIZED FREE ENERGY PREDICTED BY IDOCK:   -5.32 KCAL/MOL
REMARK 922        TOTAL FREE ENERGY PREDICTED BY IDOCK:  -10.30 KCAL/MOL
REMARK 923 INTER-LIGAND FREE ENERGY PREDICTED BY IDOCK:   -9.21 KCAL/MOL
REMARK 924 INTRA-LIGAND FREE ENERGY PREDICTED BY IDOCK:   -1.09 KCAL/MOL
REMARK 927      BINDING AFFINITY PREDICTED BY RF-SCORE:    0.00 PKD
ROOT
HETATM    1  C   UNK A   0     -11.633   7.877  72.298  1.00  0.00    -0.350 C  
HETATM    2  O   UNK A   0     -12.731   8.634  72.837  1.00  0.00    -0.611 OA 
HETATM    3  C   UNK A   0     -12.146   6.532  71.833  1.00  0.00    -0.388 C  
HETATM    4  H   UNK A   0     -12.409   9.479  73.129  1.00  0.00     0.000 HD 
ENDROOT
BRANCH   1   5
HETATM    5  C   UNK A   0     -11.093   8.665  71.117  1.00  0.00    -0.266 C  
HETATM    6  O   UNK A   0      -9.872   9.198  71.354  1.00  0.00    -0.298 OA 
HETATM    7  H   UNK A   0      -9.534   9.692  70.615  1.00  0.00     0.000 HD 
BRANCH   5   8
HETATM    8  N   UNK A   0     -11.714   8.767  69.988  1.00  0.00    -0.431 NA 
HETATM    9  H   UNK A   0     -12.691   8.488  69.913  1.00  0.00     0.000 HD 
BRANCH   8  10
HETATM   10  C   UNK A   0     -11.020   9.273  68.846  1.00  0.00    -0.017 A  
HETATM   11  C   UNK A   0     -10.276   8.430  67.989  1.00  0.00    -0.212 A  
HETATM   12  I   UNK A   0     -10.309   6.275  68.395  1.00  0.00    -0.364 I  
HETATM   13  C   UNK A   0      -9.669   8.941  66.821  1.00  0.00    -0.282 A  
HETATM   14  I   UNK A   0     -12.125  11.923  69.953  1.00  0.00    -0.157 I  
HETATM   15  C   UNK A   0     -10.047  10.243  66.382  1.00  0.00    -0.234 A  
HETATM   16  I   UNK A   0      -9.794  10.662  64.252  1.00  0.00    -0.345 I  
HETATM   17  C   UNK A   0     -11.213  10.638  68.471  1.00  0.00    -0.282 A  
HETATM   18  C   UNK A   0     -10.816  11.123  67.202  1.00  0.00    -0.326 A  
BRANCH  13  19
HETATM   19  C   UNK A   0      -8.573   8.222  66.097  1.00  0.00    -0.140 C  
HETATM   20  O   UNK A   0      -7.325   8.409  66.546  1.00  0.00    -0.079 OA 
HETATM   21  H   UNK A   0      -6.630   7.953  66.087  1.00  0.00     0.000 HD 
BRANCH  19  22
ATOM     22  N   SER A   1      -8.791   7.443  65.096  1.00  0.00    -0.358 NA 
ATOM     23  H   SER A   1      -9.562   7.617  64.452  1.00  0.00     0.000 HD 
BRANCH  22  24
ATOM     24  CA  SER A   1      -7.881   6.279  64.908  1.00  0.00    -0.113 C  
BRANCH  24  25
ATOM     25  C   SER A   1      -7.095   6.525  63.607  1.00  0.00    -0.055 C  
ATOM     26  H   SER A   1      -7.430   7.353  61.853  1.00  0.00     0.000 HD 
ATOM     27  O   SER A   1      -7.915   7.201  62.656  1.00  0.00    -0.127 OA 
ENDBRANCH  24  25
BRANCH  24  28
ATOM     28  CB  SER A   1      -8.642   4.945  64.765  1.00  0.00    -0.149 C  
ATOM     29  OG  SER A   1      -9.447   4.853  63.591  1.00  0.00    -0.352 OA 
ATOM     30  HG  SER A   1      -9.916   4.031  63.503  1.00  0.00     0.000 HD 
ENDBRANCH  24  28
ENDBRANCH  22  24
ENDBRANCH  19  22
ENDBRANCH  13  19
BRANCH  18  31
HETATM   31  C   UNK A   0     -11.230  12.482  66.694  1.00  0.00    -0.307 C  
HETATM   32  H   UNK A   0     -12.698  13.383  65.778  1.00  0.00     0.000 HD 
HETATM   33  O   UNK A   0     -12.437  12.528  66.098  1.00  0.00    -0.522 OA 
BRANCH  31  34
ATOM     34  N   SER A   1     -10.493  13.538  66.745  1.00  0.00    -0.271 NA 
ATOM     35  H   SER A   1      -9.507  13.485  67.002  1.00  0.00     0.000 HD 
BRANCH  34  36
ATOM     36  CA  SER A   1     -11.141  14.843  66.412  1.00  0.00    -0.342 C  
BRANCH  36  37
ATOM     37  CB  SER A   1     -10.696  15.871  67.456  1.00  0.00    -0.318 C  
ATOM     38  HG  SER A   1     -11.388  16.603  69.150  1.00  0.00     0.000 HD 
ATOM     39  OG  SER A   1     -11.664  15.965  68.502  1.00  0.00    -0.383 OA 
ENDBRANCH  36  37
BRANCH  36  40
ATOM     40  C   SER A   1     -10.700  15.286  65.004  1.00  0.00    -0.439 C  
ATOM     41  H   SER A   1     -10.284  16.978  64.080  1.00  0.00     0.000 HD 
ATOM     42  O   SER A   1     -10.556  16.705  64.948  1.00  0.00    -0.694 OA 
ENDBRANCH  36  40
ENDBRANCH  34  36
ENDBRANCH  31  34
ENDBRANCH  18  31
ENDBRANCH   8  10
ENDBRANCH   5   8
ENDBRANCH   1   5
TORSDOF 13
ENDMDL
MODEL       13
REMARK 921   NORMALIZED FREE ENERGY PREDICTED BY IDOCK:   -5.32 KCAL/MOL
REMARK 922        TOTAL FREE ENERGY PREDICTED BY IDOCK:  -10.30 KCAL/MOL
REMARK 923 INTER-LIGAND FREE ENERGY PREDICTED BY IDOCK:   -9.01 KCAL/MOL
REMARK 924 INTRA-LIGAND FREE ENERGY PREDICTED BY IDOCK:   -1.29 KCAL/MOL
REMARK 927      BINDING AFFINITY PREDICTED BY RF-SCORE:    0.00 PKD
ROOT
HETATM    1  C   UNK A   0     -11.921  14.079  67.420  1.00  0.00    -0.404 C  
HETATM    2  O   UNK A   0     -12.377  14.903  68.507  1.00  0.00    -0.585 OA 
HETATM    3  C   UNK A   0     -10.847  14.822  66.658  1.00  0.00    -0.319 C  
HETATM    4  H   UNK A   0     -13.052  14.436  68.986  1.00  0.00     0.000 HD 
ENDROOT
BRANCH   1   5
HETATM    5  C   UNK A   0     -11.343  12.816  68.037  1.00  0.00    -0.292 C  
HETATM    6  O   UNK A   0     -10.239  13.051  68.783  1.00  0.00    -0.373 OA 
HETATM    7  H   UNK A   0      -9.878  12.262  69.169  1.00  0.00     0.000 HD 
BRANCH   5   8
HETATM    8  N   UNK A   0     -11.884  11.650  67.904  1.00  0.00    -0.596 NA 
HETATM    9  H   UNK A   0     -12.877  11.567  67.687  1.00  0.00     0.000 HD 
BRANCH   8  10
HETATM   10  C   UNK A   0     -11.083  10.479  68.065  1.00  0.00    -0.300 A  
HETATM   11  C   UNK A   0     -10.283   9.970  67.015  1.00  0.00    -0.237 A  
HETATM   12  I   UNK A   0     -10.211  11.108  65.142  1.00  0.00    -0.359 I  
HETATM   13  C   UNK A   0      -9.436   8.860  67.225  1.00  0.00    -0.195 A  
HETATM   14  I   UNK A   0     -12.403  10.545  70.844  1.00  0.00    -0.545 I  
HETATM   15  C   UNK A   0      -9.197   8.441  68.567  1.00  0.00    -0.135 A  
HETATM   16  I   UNK A   0      -7.333   7.359  68.928  1.00  0.00    -0.096 I  
HETATM   17  C   UNK A   0     -10.962   9.899  69.365  1.00  0.00    -0.230 A  
HETATM   18  C   UNK A   0      -9.963   8.942  69.662  1.00  0.00    -0.193 A  
BRANCH  13  19
HETATM   19  C   UNK A   0      -8.877   8.045  66.101  1.00  0.00    -0.166 C  
HETATM   20  O   UNK A   0      -7.666   8.392  65.644  1.00  0.00    -0.092 OA 
HETATM   21  H   UNK A   0      -7.311   7.874  64.930  1.00  0.00     0.000 HD 
BRANCH  19  22
ATOM     22  N   SER A   1      -9.501   7.044  65.585  1.00  0.00    -0.280 NA 
ATOM     23  H   SER A   1     -10.275   7.184  64.935  1.00  0.00     0.000 HD 
BRANCH  22  24
ATOM     24  CA  SER A   1      -9.056   5.675  65.967  1.00  0.00    -0.156 C  
BRANCH  24  25
ATOM     25  C   SER A   1      -8.368   5.063  64.733  1.00  0.00    -0.140 C  
ATOM     26  H   SER A   1      -8.575   3.460  63.611  1.00  0.00     0.000 HD 
ATOM     27  O   SER A   1      -9.000   3.837  64.372  1.00  0.00    -0.116 OA 
ENDBRANCH  24  25
BRANCH  24  28
ATOM     28  CB  SER A   1     -10.231   4.757  66.366  1.00  0.00    -0.275 C  
ATOM     29  OG  SER A   1     -11.320   4.765  65.444  1.00  0.00    -0.950 OA 
ATOM     30  HG  SER A   1     -12.043   4.200  65.690  1.00  0.00     0.000 HD 
ENDBRANCH  24  28
ENDBRANCH  22  24
ENDBRANCH  19  22
ENDBRANCH  13  19
BRANCH  18  31
HETATM   31  C   UNK A   0      -9.660   8.505  71.074  1.00  0.00    -0.192 C  
HETATM   32  H   UNK A   0      -8.633   9.036  72.646  1.00  0.00     0.000 HD 
HETATM   33  O   UNK A   0      -8.824   9.310  71.756  1.00  0.00    -0.293 OA 
BRANCH  31  34
ATOM     34  N   SER A   1     -10.095   7.418  71.613  1.00  0.00    -0.184 NA 
ATOM     35  H   SER A   1      -9.718   7.077  72.497  1.00  0.00     0.000 HD 
BRANCH  34  36
ATOM     36  CA  SER A   1     -11.173   6.677  70.890  1.00  0.00    -0.302 C  
BRANCH  36  37
ATOM     37  CB  SER A   1     -10.581   5.361  70.378  1.00  0.00    -0.252 C  
ATOM     38  HG  SER A   1      -9.106   4.151  70.873  1.00  0.00     0.000 HD 
ATOM     39  OG  SER A   1      -9.474   4.968  71.190  1.00  0.00    -0.143 OA 
ENDBRANCH  36  37
BRANCH  36  40
ATOM     40  C   SER A   1     -12.337   6.398  71.860  1.00  0.00    -0.225 C  
ATOM     41  H   SER A   1     -14.218   6.953  72.065  1.00  0.00     0.000 HD 
ATOM     42  O   SER A   1     -13.500   7.125  71.467  1.00  0.00    -0.383 OA 
ENDBRANCH  36  40
ENDBRANCH  34  36
ENDBRANCH  31  34
ENDBRANCH  18  31
ENDBRANCH   8  10
ENDBRANCH   5   8
ENDBRANCH   1   5
TORSDOF 13
ENDMDL
MODEL       14
REMARK 921   NORMALIZED FREE ENERGY PREDICTED BY IDOCK:   -5.29 KCAL/MOL
REMARK 922        TOTAL FREE ENERGY PREDICTED BY IDOCK:  -10.24 KCAL/MOL
REMARK 923 INTER-LIGAND FREE ENERGY PREDICTED BY IDOCK:   -9.16 KCAL/MOL
REMARK 924 INTRA-LIGAND FREE ENERGY PREDICTED BY IDOCK:   -1.08 KCAL/MOL
REMARK 927      BINDING AFFINITY PREDICTED BY RF-SCORE:    0.00 PKD
ROOT
HETATM    1  C   UNK A   0     -12.435   8.504  71.377  1.00  0.00    -0.297 C  
HETATM    2  O   UNK A   0     -13.815   8.657  71.001  1.00  0.00    -0.577 OA 
HETATM    3  C   UNK A   0     -11.960   7.132  70.956  1.00  0.00    -0.387 C  
HETATM    4  H   UNK A   0     -14.114   9.519  71.266  1.00  0.00     0.000 HD 
ENDROOT
BRANCH   1   5
HETATM    5  C   UNK A   0     -11.656   9.577  70.634  1.00  0.00    -0.283 C  
HETATM    6  O   UNK A   0     -10.473   9.872  71.222  1.00  0.00    -0.237 OA 
HETATM    7  H   UNK A   0      -9.986  10.542  70.758  1.00  0.00     0.000 HD 
BRANCH   5   8
HETATM    8  N   UNK A   0     -12.059  10.109  69.528  1.00  0.00    -0.498 NA 
HETATM    9  H   UNK A   0     -12.973   9.868  69.146  1.00  0.00     0.000 HD 
BRANCH   8  10
HETATM   10  C   UNK A   0     -11.216  11.037  68.844  1.00  0.00    -0.265 A  
HETATM   11  C   UNK A   0     -11.257  12.425  69.113  1.00  0.00    -0.236 A  
HETATM   12  I   UNK A   0     -12.586  13.115  70.716  1.00  0.00    -0.045 I  
HETATM   13  C   UNK A   0     -10.356  13.311  68.484  1.00  0.00    -0.244 A  
HETATM   14  I   UNK A   0     -10.359   8.455  67.405  1.00  0.00    -0.271 I  
HETATM   15  C   UNK A   0      -9.239  12.755  67.795  1.00  0.00    -0.199 A  
HETATM   16  I   UNK A   0      -7.489  14.046  67.582  1.00  0.00    -0.115 I  
HETATM   17  C   UNK A   0     -10.194  10.535  67.981  1.00  0.00    -0.166 A  
HETATM   18  C   UNK A   0      -9.141  11.358  67.518  1.00  0.00    -0.157 A  
BRANCH  13  19
HETATM   19  C   UNK A   0     -10.587  14.789  68.417  1.00  0.00    -0.242 C  
HETATM   20  O   UNK A   0     -10.058  15.530  69.400  1.00  0.00    -0.230 OA 
HETATM   21  H   UNK A   0     -10.204  16.468  69.357  1.00  0.00     0.000 HD 
BRANCH  19  22
ATOM     22  N   SER A   1     -11.247  15.350  67.466  1.00  0.00    -0.324 NA 
ATOM     23  H   SER A   1     -12.247  15.529  67.554  1.00  0.00     0.000 HD 
BRANCH  22  24
ATOM     24  CA  SER A   1     -10.504  15.731  66.233  1.00  0.00    -0.309 C  
BRANCH  24  25
ATOM     25  C   SER A   1     -10.227  17.243  66.321  1.00  0.00    -0.342 C  
ATOM     26  H   SER A   1      -8.786  18.480  65.806  1.00  0.00     0.000 HD 
ATOM     27  O   SER A   1      -8.956  17.547  65.751  1.00  0.00    -0.512 OA 
ENDBRANCH  24  25
BRANCH  24  28
ATOM     28  CB  SER A   1     -11.310  15.464  64.945  1.00  0.00    -0.363 C  
ATOM     29  OG  SER A   1     -11.370  16.573  64.050  1.00  0.00    -1.475 OA 
ATOM     30  HG  SER A   1     -11.866  16.408  63.257  1.00  0.00     0.000 HD 
ENDBRANCH  24  28
ENDBRANCH  22  24
ENDBRANCH  19  22
ENDBRANCH  13  19
BRANCH  18  31
HETATM   31  C   UNK A   0      -7.928  10.797  66.818  1.00  0.00    -0.138 C  
HETATM   32  H   UNK A   0      -6.294   9.791  67.171  1.00  0.00     0.000 HD 
HETATM   33  O   UNK A   0      -7.058  10.145  67.612  1.00  0.00    -0.084 OA 
BRANCH  31  34
ATOM     34  N   SER A   1      -7.667  10.957  65.566  1.00  0.00    -0.354 NA 
ATOM     35  H   SER A   1      -7.031  11.688  65.245  1.00  0.00     0.000 HD 
BRANCH  34  36
ATOM     36  CA  SER A   1      -8.331  10.027  64.602  1.00  0.00    -0.165 C  
BRANCH  36  37
ATOM     37  CB  SER A   1      -8.607  10.803  63.311  1.00  0.00    -0.107 C  
ATOM     38  HG  SER A   1      -9.795  10.634  61.748  1.00  0.00     0.000 HD 
ATOM     39  OG  SER A   1      -9.624  10.153  62.549  1.00  0.00    -0.291 OA 
ENDBRANCH  36  37
BRANCH  36  40
ATOM     40  C   SER A   1      -7.399   8.834  64.320  1.00  0.00    -0.103 C  
ATOM     41  H   SER A   1      -7.532   6.867  64.286  1.00  0.00     0.000 HD 
ATOM     42  O   SER A   1      -8.107   7.603  64.460  1.00  0.00    -0.141 OA 
ENDBRANCH  36  40
ENDBRANCH  34  36
ENDBRANCH  31  34
ENDBRANCH  18  31
ENDBRANCH   8  10
ENDBRANCH   5   8
ENDBRANCH   1   5
TORSDOF 13
ENDMDL
MODEL       15
REMARK 921   NORMALIZED FREE ENERGY PREDICTED BY IDOCK:   -5.27 KCAL/MOL
REMARK 922        TOTAL FREE ENERGY PREDICTED BY IDOCK:  -10.21 KCAL/MOL
REMARK 923 INTER-LIGAND FREE ENERGY PREDICTED BY IDOCK:   -9.36 KCAL/MOL
REMARK 924 INTRA-LIGAND FREE ENERGY PREDICTED BY IDOCK:   -0.85 KCAL/MOL
REMARK 927      BINDING AFFINITY PREDICTED BY RF-SCORE:    0.00 PKD
ROOT
HETATM    1  C   UNK A   0     -10.335  11.092  63.618  1.00  0.00    -0.389 C  
HETATM    2  O   UNK A   0     -11.669  11.362  63.153  1.00  0.00    -0.870 OA 
HETATM    3  C   UNK A   0      -9.424  10.914  62.424  1.00  0.00    -0.205 C  
HETATM    4  H   UNK A   0     -12.241  11.473  63.904  1.00  0.00     0.000 HD 
ENDROOT
BRANCH   1   5
HETATM    5  C   UNK A   0      -9.899  12.300  64.431  1.00  0.00    -0.110 C  
HETATM    6  O   UNK A   0     -10.250  13.475  63.859  1.00  0.00    -0.676 OA 
HETATM    7  H   UNK A   0      -9.978  14.230  64.366  1.00  0.00     0.000 HD 
BRANCH   5   8
HETATM    8  N   UNK A   0      -9.304  12.209  65.574  1.00  0.00    -0.434 NA 
HETATM    9  H   UNK A   0      -8.545  12.847  65.810  1.00  0.00     0.000 HD 
BRANCH   8  10
HETATM   10  C   UNK A   0      -9.717  11.207  66.506  1.00  0.00    -0.198 A  
HETATM   11  C   UNK A   0      -9.040   9.971  66.624  1.00  0.00    -0.147 A  
HETATM   12  I   UNK A   0      -7.239   9.672  65.407  1.00  0.00    -0.121 I  
HETATM   13  C   UNK A   0      -9.416   9.032  67.609  1.00  0.00    -0.166 A  
HETATM   14  I   UNK A   0     -11.909  13.299  67.044  1.00  0.00    -0.353 I  
HETATM   15  C   UNK A   0     -10.295   9.461  68.645  1.00  0.00    -0.203 A  
HETATM   16  I   UNK A   0     -10.194   8.352  70.525  1.00  0.00    -0.259 I  
HETATM   17  C   UNK A   0     -10.740  11.523  67.450  1.00  0.00    -0.232 A  
HETATM   18  C   UNK A   0     -10.985  10.709  68.582  1.00  0.00    -0.291 A  
BRANCH  13  19
HETATM   19  C   UNK A   0      -9.022   7.589  67.544  1.00  0.00    -0.126 C  
HETATM   20  O   UNK A   0      -7.926   7.228  68.226  1.00  0.00    -0.119 OA 
HETATM   21  H   UNK A   0      -7.677   6.312  68.185  1.00  0.00     0.000 HD 
BRANCH  19  22
ATOM     22  N   SER A   1      -9.691   6.711  66.883  1.00  0.00    -0.158 NA 
ATOM     23  H   SER A   1     -10.671   6.865  66.646  1.00  0.00     0.000 HD 
BRANCH  22  24
ATOM     24  CA  SER A   1      -8.990   5.461  66.476  1.00  0.00    -0.120 C  
BRANCH  24  25
ATOM     25  C   SER A   1      -8.154   5.799  65.228  1.00  0.00    -0.130 C  
ATOM     26  H   SER A   1      -8.237   5.440  63.294  1.00  0.00     0.000 HD 
ATOM     27  O   SER A   1      -8.753   5.232  64.065  1.00  0.00    -0.112 OA 
ENDBRANCH  24  25
BRANCH  24  28
ATOM     28  CB  SER A   1      -9.965   4.324  66.109  1.00  0.00    -0.215 C  
ATOM     29  OG  SER A   1     -11.228   4.770  65.619  1.00  0.00    -0.888 OA 
ATOM     30  HG  SER A   1     -11.828   4.069  65.393  1.00  0.00     0.000 HD 
ENDBRANCH  24  28
ENDBRANCH  22  24
ENDBRANCH  19  22
ENDBRANCH  13  19
BRANCH  18  31
HETATM   31  C   UNK A   0     -11.881  11.150  69.713  1.00  0.00    -0.349 C  
HETATM   32  H   UNK A   0     -13.661  10.849  70.451  1.00  0.00     0.000 HD 
HETATM   33  O   UNK A   0     -13.097  10.572  69.739  1.00  0.00    -0.062 OA 
BRANCH  31  34
ATOM     34  N   SER A   1     -11.576  12.055  70.579  1.00  0.00    -0.423 NA 
ATOM     35  H   SER A   1     -10.657  12.075  71.023  1.00  0.00     0.000 HD 
BRANCH  34  36
ATOM     36  CA  SER A   1     -12.621  13.072  70.905  1.00  0.00    -0.280 C  
BRANCH  36  37
ATOM     37  CB  SER A   1     -13.191  12.736  72.286  1.00  0.00    -0.386 C  
ATOM     38  HG  SER A   1     -14.104  13.695  73.745  1.00  0.00     0.000 HD 
ATOM     39  OG  SER A   1     -13.750  13.903  72.889  1.00  0.00    -0.680 OA 
ENDBRANCH  36  37
BRANCH  36  40
ATOM     40  C   SER A   1     -11.981  14.473  70.918  1.00  0.00    -0.325 C  
ATOM     41  H   SER A   1     -12.344  16.240  70.122  1.00  0.00     0.000 HD 
ATOM     42  O   SER A   1     -12.739  15.376  70.114  1.00  0.00    -0.335 OA 
ENDBRANCH  36  40
ENDBRANCH  34  36
ENDBRANCH  31  34
ENDBRANCH  18  31
ENDBRANCH   8  10
ENDBRANCH   5   8
ENDBRANCH   1   5
TORSDOF 13
ENDMDL
MODEL       16
REMARK 921   NORMALIZED FREE ENERGY PREDICTED BY IDOCK:   -5.27 KCAL/MOL
REMARK 922        TOTAL FREE ENERGY PREDICTED BY IDOCK:  -10.21 KCAL/MOL
REMARK 923 INTER-LIGAND FREE ENERGY PREDICTED BY IDOCK:   -9.53 KCAL/MOL
REMARK 924 INTRA-LIGAND FREE ENERGY PREDICTED BY IDOCK:   -0.68 KCAL/MOL
REMARK 927      BINDING AFFINITY PREDICTED BY RF-SCORE:    0.00 PKD
ROOT
HETATM    1  C   UNK A   0      -8.849   4.999  65.140  1.00  0.00    -0.153 C  
HETATM    2  O   UNK A   0     -10.019   4.570  64.422  1.00  0.00    -0.359 OA 
HETATM    3  C   UNK A   0      -7.757   5.331  64.148  1.00  0.00    -0.083 C  
HETATM    4  H   UNK A   0     -10.704   4.360  65.045  1.00  0.00     0.000 HD 
ENDROOT
BRANCH   1   5
HETATM    5  C   UNK A   0      -9.242   6.242  65.919  1.00  0.00    -0.024 C  
HETATM    6  O   UNK A   0     -10.578   6.349  66.103  1.00  0.00    -0.432 OA 
HETATM    7  H   UNK A   0     -10.825   7.127  66.590  1.00  0.00     0.000 HD 
BRANCH   5   8
HETATM    8  N   UNK A   0      -8.383   7.080  66.400  1.00  0.00    -0.119 NA 
HETATM    9  H   UNK A   0      -7.388   6.855  66.394  1.00  0.00     0.000 HD 
BRANCH   8  10
HETATM   10  C   UNK A   0      -8.836   8.322  66.940  1.00  0.00    -0.140 A  
HETATM   11  C   UNK A   0      -8.989   9.476  66.136  1.00  0.00    -0.158 A  
HETATM   12  I   UNK A   0      -8.619   9.277  63.983  1.00  0.00    -0.079 I  
HETATM   13  C   UNK A   0      -9.517  10.668  66.676  1.00  0.00    -0.195 A  
HETATM   14  I   UNK A   0      -8.788   6.660  69.529  1.00  0.00    -0.136 I  
HETATM   15  C   UNK A   0     -10.144  10.607  67.955  1.00  0.00    -0.157 A  
HETATM   16  I   UNK A   0     -11.633  12.147  68.382  1.00  0.00    -0.350 I  
HETATM   17  C   UNK A   0      -9.298   8.359  68.291  1.00  0.00    -0.134 A  
HETATM   18  C   UNK A   0     -10.037   9.457  68.794  1.00  0.00    -0.208 A  
BRANCH  13  19
HETATM   19  C   UNK A   0      -9.347  12.001  66.016  1.00  0.00    -0.190 C  
HETATM   20  O   UNK A   0      -8.651  12.928  66.689  1.00  0.00    -0.402 OA 
HETATM   21  H   UNK A   0      -8.543  13.773  66.270  1.00  0.00     0.000 HD 
BRANCH  19  22
ATOM     22  N   SER A   1      -9.824  12.270  64.851  1.00  0.00    -0.435 NA 
ATOM     23  H   SER A   1      -9.248  12.183  64.014  1.00  0.00     0.000 HD 
BRANCH  22  24
ATOM     24  CA  SER A   1     -11.243  12.714  64.766  1.00  0.00    -0.302 C  
BRANCH  24  25
ATOM     25  C   SER A   1     -11.839  12.078  63.496  1.00  0.00    -0.492 C  
ATOM     26  H   SER A   1     -13.627  11.628  62.809  1.00  0.00     0.000 HD 
ATOM     27  O   SER A   1     -13.260  12.020  63.592  1.00  0.00    -0.737 OA 
ENDBRANCH  24  25
BRANCH  24  28
ATOM     28  CB  SER A   1     -11.382  14.246  64.647  1.00  0.00    -0.373 C  
ATOM     29  OG  SER A   1     -12.311  14.674  63.652  1.00  0.00    -1.060 OA 
ATOM     30  HG  SER A   1     -12.396  15.618  63.580  1.00  0.00     0.000 HD 
ENDBRANCH  24  28
ENDBRANCH  22  24
ENDBRANCH  19  22
ENDBRANCH  13  19
BRANCH  18  31
HETATM   31  C   UNK A   0     -10.741   9.410  70.127  1.00  0.00    -0.243 C  
HETATM   32  H   UNK A   0     -10.435   9.744  72.025  1.00  0.00     0.000 HD 
HETATM   33  O   UNK A   0      -9.991   9.773  71.185  1.00  0.00    -0.130 OA 
BRANCH  31  34
ATOM     34  N   SER A   1     -11.951   9.001  70.302  1.00  0.00    -0.455 NA 
ATOM     35  H   SER A   1     -12.587   8.873  69.514  1.00  0.00     0.000 HD 
BRANCH  34  36
ATOM     36  CA  SER A   1     -12.385   8.722  71.704  1.00  0.00    -0.337 C  
BRANCH  36  37
ATOM     37  CB  SER A   1     -13.496   9.714  72.061  1.00  0.00    -0.428 C  
ATOM     38  HG  SER A   1     -13.683  11.667  72.248  1.00  0.00     0.000 HD 
ATOM     39  OG  SER A   1     -12.995  11.051  72.026  1.00  0.00    -0.452 OA 
ENDBRANCH  36  37
BRANCH  36  40
ATOM     40  C   SER A   1     -12.910   7.277  71.797  1.00  0.00    -0.331 C  
ATOM     41  H   SER A   1     -14.640   6.348  71.615  1.00  0.00     0.000 HD 
ATOM     42  O   SER A   1     -14.316   7.239  71.558  1.00  0.00    -0.437 OA 
ENDBRANCH  36  40
ENDBRANCH  34  36
ENDBRANCH  31  34
ENDBRANCH  18  31
ENDBRANCH   8  10
ENDBRANCH   5   8
ENDBRANCH   1   5
TORSDOF 13
ENDMDL
MODEL       17
REMARK 921   NORMALIZED FREE ENERGY PREDICTED BY IDOCK:   -5.24 KCAL/MOL
REMARK 922        TOTAL FREE ENERGY PREDICTED BY IDOCK:  -10.15 KCAL/MOL
REMARK 923 INTER-LIGAND FREE ENERGY PREDICTED BY IDOCK:   -8.59 KCAL/MOL
REMARK 924 INTRA-LIGAND FREE ENERGY PREDICTED BY IDOCK:   -1.57 KCAL/MOL
REMARK 927      BINDING AFFINITY PREDICTED BY RF-SCORE:    0.00 PKD
ROOT
HETATM    1  C   UNK A   0      -5.776  18.069  68.351  1.00  0.00    -0.173 C  
HETATM    2  O   UNK A   0      -6.322  19.236  67.711  1.00  0.00    -0.206 OA 
HETATM    3  C   UNK A   0      -5.926  18.214  69.849  1.00  0.00    -0.202 C  
HETATM    4  H   UNK A   0      -6.228  19.144  66.770  1.00  0.00     0.000 HD 
ENDROOT
BRANCH   1   5
HETATM    5  C   UNK A   0      -6.584  16.879  67.859  1.00  0.00    -0.141 C  
HETATM    6  O   UNK A   0      -6.409  16.632  66.541  1.00  0.00    -0.273 OA 
HETATM    7  H   UNK A   0      -6.914  15.888  66.233  1.00  0.00     0.000 HD 
BRANCH   5   8
HETATM    8  N   UNK A   0      -7.317  16.150  68.635  1.00  0.00    -0.164 NA 
HETATM    9  H   UNK A   0      -7.373  16.357  69.632  1.00  0.00     0.000 HD 
BRANCH   8  10
HETATM   10  C   UNK A   0      -8.048  15.053  68.086  1.00  0.00    -0.131 A  
HETATM   11  C   UNK A   0      -7.476  13.766  67.947  1.00  0.00    -0.152 A  
HETATM   12  I   UNK A   0      -5.444  13.465  68.717  1.00  0.00    -0.091 I  
HETATM   13  C   UNK A   0      -8.245  12.680  67.479  1.00  0.00    -0.178 A  
HETATM   14  I   UNK A   0     -10.181  17.251  67.788  1.00  0.00    -0.363 I  
HETATM   15  C   UNK A   0      -9.661  12.837  67.414  1.00  0.00    -0.199 A  
HETATM   16  I   UNK A   0     -10.847  11.005  67.521  1.00  0.00    -0.360 I  
HETATM   17  C   UNK A   0      -9.441  15.218  67.817  1.00  0.00    -0.197 A  
HETATM   18  C   UNK A   0     -10.287  14.110  67.569  1.00  0.00    -0.248 A  
BRANCH  13  19
HETATM   19  C   UNK A   0      -7.630  11.422  66.948  1.00  0.00    -0.151 C  
HETATM   20  O   UNK A   0      -7.330  10.469  67.841  1.00  0.00    -0.087 OA 
HETATM   21  H   UNK A   0      -6.940   9.671  67.504  1.00  0.00     0.000 HD 
BRANCH  19  22
ATOM     22  N   SER A   1      -7.402  11.231  65.696  1.00  0.00    -0.323 NA 
ATOM     23  H   SER A   1      -6.865  11.905  65.150  1.00  0.00     0.000 HD 
BRANCH  22  24
ATOM     24  CA  SER A   1      -7.945   9.993  65.070  1.00  0.00    -0.143 C  
BRANCH  24  25
ATOM     25  C   SER A   1      -6.753   9.239  64.451  1.00  0.00    -0.086 C  
ATOM     26  H   SER A   1      -5.502   9.497  62.954  1.00  0.00     0.000 HD 
ATOM     27  O   SER A   1      -6.237   9.962  63.336  1.00  0.00    -0.108 OA 
ENDBRANCH  24  25
BRANCH  24  28
ATOM     28  CB  SER A   1      -8.961  10.291  63.947  1.00  0.00    -0.237 C  
ATOM     29  OG  SER A   1      -8.841  11.594  63.379  1.00  0.00    -0.458 OA 
ATOM     30  HG  SER A   1      -9.466  11.777  62.688  1.00  0.00     0.000 HD 
ENDBRANCH  24  28
ENDBRANCH  22  24
ENDBRANCH  19  22
ENDBRANCH  13  19
BRANCH  18  31
HETATM   31  C   UNK A   0     -11.790  14.236  67.530  1.00  0.00    -0.395 C  
HETATM   32  H   UNK A   0     -13.346  14.269  68.706  1.00  0.00     0.000 HD 
HETATM   33  O   UNK A   0     -12.400  14.189  68.730  1.00  0.00    -0.272 OA 
BRANCH  31  34
ATOM     34  N   SER A   1     -12.489  14.323  66.451  1.00  0.00    -0.506 NA 
ATOM     35  H   SER A   1     -13.509  14.323  66.479  1.00  0.00     0.000 HD 
BRANCH  34  36
ATOM     36  CA  SER A   1     -11.747  14.424  65.158  1.00  0.00    -0.372 C  
BRANCH  36  37
ATOM     37  CB  SER A   1     -11.906  13.093  64.418  1.00  0.00    -0.388 C  
ATOM     38  HG  SER A   1     -13.317  11.742  64.160  1.00  0.00     0.000 HD 
ATOM     39  OG  SER A   1     -13.218  12.568  64.619  1.00  0.00    -0.848 OA 
ENDBRANCH  36  37
BRANCH  36  40
ATOM     40  C   SER A   1     -12.336  15.575  64.321  1.00  0.00     0.004 C  
ATOM     41  H   SER A   1     -11.747  17.339  63.665  1.00  0.00     0.000 HD 
ATOM     42  O   SER A   1     -11.384  16.629  64.181  1.00  0.00    -1.141 OA 
ENDBRANCH  36  40
ENDBRANCH  34  36
ENDBRANCH  31  34
ENDBRANCH  18  31
ENDBRANCH   8  10
ENDBRANCH   5   8
ENDBRANCH   1   5
TORSDOF 13
ENDMDL
MODEL       18
REMARK 921   NORMALIZED FREE ENERGY PREDICTED BY IDOCK:   -5.24 KCAL/MOL
REMARK 922        TOTAL FREE ENERGY PREDICTED BY IDOCK:  -10.15 KCAL/MOL
REMARK 923 INTER-LIGAND FREE ENERGY PREDICTED BY IDOCK:   -9.81 KCAL/MOL
REMARK 924 INTRA-LIGAND FREE ENERGY PREDICTED BY IDOCK:   -0.34 KCAL/MOL
REMARK 927      BINDING AFFINITY PREDICTED BY RF-SCORE:    0.00 PKD
ROOT
HETATM    1  C   UNK A   0      -9.187  10.336  62.898  1.00  0.00    -0.297 C  
HETATM    2  O   UNK A   0      -8.349  11.423  62.467  1.00  0.00    -0.517 OA 
HETATM    3  C   UNK A   0      -8.638   9.042  62.340  1.00  0.00    -0.220 C  
HETATM    4  H   UNK A   0      -8.695  12.236  62.817  1.00  0.00     0.000 HD 
ENDROOT
BRANCH   1   5
HETATM    5  C   UNK A   0      -9.134  10.314  64.416  1.00  0.00    -0.239 C  
HETATM    6  O   UNK A   0      -8.006  10.872  64.912  1.00  0.00    -0.357 OA 
HETATM    7  H   UNK A   0      -7.972  10.858  65.861  1.00  0.00     0.000 HD 
BRANCH   5   8
HETATM    8  N   UNK A   0     -10.093   9.859  65.153  1.00  0.00    -0.345 NA 
HETATM    9  H   UNK A   0     -10.637   9.053  64.847  1.00  0.00     0.000 HD 
BRANCH   8  10
HETATM   10  C   UNK A   0     -10.386  10.493  66.399  1.00  0.00    -0.221 A  
HETATM   11  C   UNK A   0     -11.008  11.762  66.465  1.00  0.00    -0.295 A  
HETATM   12  I   UNK A   0     -11.631  12.693  64.579  1.00  0.00    -0.514 I  
HETATM   13  C   UNK A   0     -11.362  12.329  67.708  1.00  0.00    -0.362 A  
HETATM   14  I   UNK A   0      -8.994   7.962  67.461  1.00  0.00    -0.150 I  
HETATM   15  C   UNK A   0     -11.334  11.492  68.862  1.00  0.00    -0.268 A  
HETATM   16  I   UNK A   0     -12.628  12.081  70.521  1.00  0.00     0.107 I  
HETATM   17  C   UNK A   0     -10.189   9.760  67.609  1.00  0.00    -0.213 A  
HETATM   18  C   UNK A   0     -10.736  10.197  68.839  1.00  0.00    -0.249 A  
BRANCH  13  19
HETATM   19  C   UNK A   0     -11.654  13.788  67.878  1.00  0.00    -0.341 C  
HETATM   20  O   UNK A   0     -12.756  14.260  67.280  1.00  0.00    -0.444 OA 
HETATM   21  H   UNK A   0     -12.941  15.186  67.389  1.00  0.00     0.000 HD 
BRANCH  19  22
ATOM     22  N   SER A   1     -10.907  14.574  68.571  1.00  0.00    -0.241 NA 
ATOM     23  H   SER A   1      -9.920  14.364  68.723  1.00  0.00     0.000 HD 
BRANCH  22  24
ATOM     24  CA  SER A   1     -11.528  15.800  69.145  1.00  0.00    -0.380 C  
BRANCH  24  25
ATOM     25  C   SER A   1     -10.401  16.832  69.334  1.00  0.00    -0.276 C  
ATOM     26  H   SER A   1      -8.476  16.808  69.744  1.00  0.00     0.000 HD 
ATOM     27  O   SER A   1      -9.172  16.172  69.627  1.00  0.00    -0.148 OA 
ENDBRANCH  24  25
BRANCH  24  28
ATOM     28  CB  SER A   1     -12.185  15.548  70.519  1.00  0.00    -0.404 C  
ATOM     29  OG  SER A   1     -13.610  15.524  70.491  1.00  0.00    -0.826 OA 
ATOM     30  HG  SER A   1     -14.014  15.369  71.337  1.00  0.00     0.000 HD 
ENDBRANCH  24  28
ENDBRANCH  22  24
ENDBRANCH  19  22
ENDBRANCH  13  19
BRANCH  18  31
HETATM   31  C   UNK A   0     -10.754   9.321  70.068  1.00  0.00    -0.232 C  
HETATM   32  H   UNK A   0      -9.721   8.934  71.678  1.00  0.00     0.000 HD 
HETATM   33  O   UNK A   0      -9.710   9.485  70.904  1.00  0.00    -0.259 OA 
BRANCH  31  34
ATOM     34  N   SER A   1     -11.646   8.424  70.315  1.00  0.00    -0.468 NA 
ATOM     35  H   SER A   1     -12.139   7.946  69.561  1.00  0.00     0.000 HD 
BRANCH  34  36
ATOM     36  CA  SER A   1     -11.927   8.112  71.750  1.00  0.00    -0.305 C  
BRANCH  36  37
ATOM     37  CB  SER A   1     -13.365   8.542  72.053  1.00  0.00    -0.369 C  
ATOM     38  HG  SER A   1     -15.181   7.873  71.683  1.00  0.00     0.000 HD 
ATOM     39  OG  SER A   1     -14.289   7.607  71.496  1.00  0.00    -0.433 OA 
ENDBRANCH  36  37
BRANCH  36  40
ATOM     40  C   SER A   1     -11.760   6.599  71.984  1.00  0.00    -0.313 C  
ATOM     41  H   SER A   1     -11.366   4.999  70.901  1.00  0.00     0.000 HD 
ATOM     42  O   SER A   1     -11.469   5.932  70.757  1.00  0.00    -0.230 OA 
ENDBRANCH  36  40
ENDBRANCH  34  36
ENDBRANCH  31  34
ENDBRANCH  18  31
ENDBRANCH   8  10
ENDBRANCH   5   8
ENDBRANCH   1   5
TORSDOF 13
ENDMDL
MODEL       19
REMARK 921   NORMALIZED FREE ENERGY PREDICTED BY IDOCK:   -5.22 KCAL/MOL
REMARK 922        TOTAL FREE ENERGY PREDICTED BY IDOCK:  -10.11 KCAL/MOL
REMARK 923 INTER-LIGAND FREE ENERGY PREDICTED BY IDOCK:   -9.03 KCAL/MOL
REMARK 924 INTRA-LIGAND FREE ENERGY PREDICTED BY IDOCK:   -1.08 KCAL/MOL
REMARK 927      BINDING AFFINITY PREDICTED BY RF-SCORE:    0.00 PKD
ROOT
HETATM    1  C   UNK A   0     -13.481  14.717  71.805  1.00  0.00    -0.373 C  
HETATM    2  O   UNK A   0     -14.282  15.537  70.936  1.00  0.00    -0.853 OA 
HETATM    3  C   UNK A   0     -14.381  13.737  72.524  1.00  0.00    -0.230 C  
HETATM    4  H   UNK A   0     -13.716  16.152  70.485  1.00  0.00     0.000 HD 
ENDROOT
BRANCH   1   5
HETATM    5  C   UNK A   0     -12.497  13.969  70.921  1.00  0.00    -0.369 C  
HETATM    6  O   UNK A   0     -11.206  14.266  71.200  1.00  0.00    -0.416 OA 
HETATM    7  H   UNK A   0     -10.591  13.799  70.647  1.00  0.00     0.000 HD 
BRANCH   5   8
HETATM    8  N   UNK A   0     -12.857  13.101  70.035  1.00  0.00     0.231 NA 
HETATM    9  H   UNK A   0     -13.842  12.992  69.794  1.00  0.00     0.000 HD 
BRANCH   8  10
HETATM   10  C   UNK A   0     -11.866  12.294  69.395  1.00  0.00    -0.310 A  
HETATM   11  C   UNK A   0     -11.099  12.774  68.307  1.00  0.00    -0.257 A  
HETATM   12  I   UNK A   0     -11.390  14.860  67.694  1.00  0.00    -0.311 I  
HETATM   13  C   UNK A   0     -10.070  11.987  67.747  1.00  0.00    -0.199 A  
HETATM   14  I   UNK A   0     -12.909  10.245  71.440  1.00  0.00    -0.580 I  
HETATM   15  C   UNK A   0      -9.640  10.833  68.464  1.00  0.00    -0.183 A  
HETATM   16  I   UNK A   0      -7.601  10.151  68.073  1.00  0.00    -0.089 I  
HETATM   17  C   UNK A   0     -11.531  11.030  69.968  1.00  0.00    -0.314 A  
HETATM   18  C   UNK A   0     -10.368  10.323  69.581  1.00  0.00    -0.281 A  
BRANCH  13  19
HETATM   19  C   UNK A   0      -9.497  12.252  66.389  1.00  0.00    -0.237 C  
HETATM   20  O   UNK A   0      -8.590  13.234  66.294  1.00  0.00    -0.386 OA 
HETATM   21  H   UNK A   0      -8.226  13.402  65.433  1.00  0.00     0.000 HD 
BRANCH  19  22
ATOM     22  N   SER A   1      -9.831  11.577  65.346  1.00  0.00    -0.229 NA 
ATOM     23  H   SER A   1      -9.998  10.572  65.400  1.00  0.00     0.000 HD 
BRANCH  22  24
ATOM     24  CA  SER A   1      -9.966  12.309  64.056  1.00  0.00    -0.258 C  
BRANCH  24  25
ATOM     25  C   SER A   1     -11.430  12.774  63.951  1.00  0.00    -0.444 C  
ATOM     26  H   SER A   1     -13.214  11.942  63.966  1.00  0.00     0.000 HD 
ATOM     27  O   SER A   1     -12.310  11.655  64.031  1.00  0.00    -0.250 OA 
ENDBRANCH  24  25
BRANCH  24  28
ATOM     28  CB  SER A   1      -9.655  11.422  62.832  1.00  0.00    -0.339 C  
ATOM     29  OG  SER A   1      -9.962  10.041  63.016  1.00  0.00    -0.499 OA 
ATOM     30  HG  SER A   1      -9.771   9.496  62.263  1.00  0.00     0.000 HD 
ENDBRANCH  24  28
ENDBRANCH  22  24
ENDBRANCH  19  22
ENDBRANCH  13  19
BRANCH  18  31
HETATM   31  C   UNK A   0      -9.866   9.120  70.340  1.00  0.00    -0.218 C  
HETATM   32  H   UNK A   0      -9.058   8.623  72.045  1.00  0.00     0.000 HD 
HETATM   33  O   UNK A   0      -9.374   9.381  71.567  1.00  0.00    -0.271 OA 
BRANCH  31  34
ATOM     34  N   SER A   1      -9.831   7.920  69.871  1.00  0.00    -0.180 NA 
ATOM     35  H   SER A   1      -8.948   7.471  69.626  1.00  0.00     0.000 HD 
BRANCH  34  36
ATOM     36  CA  SER A   1     -11.137   7.212  69.700  1.00  0.00    -0.179 C  
BRANCH  36  37
ATOM     37  CB  SER A   1     -10.976   6.191  68.571  1.00  0.00    -0.320 C  
ATOM     38  HG  SER A   1      -9.612   5.726  67.227  1.00  0.00     0.000 HD 
ATOM     39  OG  SER A   1      -9.712   6.359  67.928  1.00  0.00    -0.121 OA 
ENDBRANCH  36  37
BRANCH  36  40
ATOM     40  C   SER A   1     -11.507   6.502  71.015  1.00  0.00    -0.336 C  
ATOM     41  H   SER A   1     -10.800   5.025  72.114  1.00  0.00     0.000 HD 
ATOM     42  O   SER A   1     -10.572   5.463  71.303  1.00  0.00    -0.235 OA 
ENDBRANCH  36  40
ENDBRANCH  34  36
ENDBRANCH  31  34
ENDBRANCH  18  31
ENDBRANCH   8  10
ENDBRANCH   5   8
ENDBRANCH   1   5
TORSDOF 13
ENDMDL
MODEL       20
REMARK 921   NORMALIZED FREE ENERGY PREDICTED BY IDOCK:   -5.21 KCAL/MOL
REMARK 922        TOTAL FREE ENERGY PREDICTED BY IDOCK:  -10.11 KCAL/MOL
REMARK 923 INTER-LIGAND FREE ENERGY PREDICTED BY IDOCK:   -9.13 KCAL/MOL
REMARK 924 INTRA-LIGAND FREE ENERGY PREDICTED BY IDOCK:   -0.98 KCAL/MOL
REMARK 927      BINDING AFFINITY PREDICTED BY RF-SCORE:    0.00 PKD
ROOT
HETATM    1  C   UNK A   0      -8.624   6.496  66.087  1.00  0.00    -0.145 C  
HETATM    2  O   UNK A   0      -9.155   6.080  64.817  1.00  0.00    -0.344 OA 
HETATM    3  C   UNK A   0      -8.081   5.286  66.813  1.00  0.00    -0.105 C  
HETATM    4  H   UNK A   0      -9.496   6.841  64.361  1.00  0.00     0.000 HD 
ENDROOT
BRANCH   1   5
HETATM    5  C   UNK A   0      -7.500   7.476  65.795  1.00  0.00    -0.079 C  
HETATM    6  O   UNK A   0      -6.675   7.052  64.810  1.00  0.00    -0.044 OA 
HETATM    7  H   UNK A   0      -5.971   7.665  64.626  1.00  0.00     0.000 HD 
BRANCH   5   8
HETATM    8  N   UNK A   0      -7.380   8.617  66.389  1.00  0.00    -0.079 NA 
HETATM    9  H   UNK A   0      -6.471   9.074  66.444  1.00  0.00     0.000 HD 
BRANCH   8  10
HETATM   10  C   UNK A   0      -8.532   9.234  66.969  1.00  0.00    -0.124 A  
HETATM   11  C   UNK A   0      -8.856   9.076  68.337  1.00  0.00    -0.134 A  
HETATM   12  I   UNK A   0      -7.461   7.940  69.592  1.00  0.00    -0.097 I  
HETATM   13  C   UNK A   0      -9.951   9.762  68.903  1.00  0.00    -0.183 A  
HETATM   14  I   UNK A   0      -8.911  10.147  64.055  1.00  0.00    -0.317 I  
HETATM   15  C   UNK A   0     -10.547  10.816  68.150  1.00  0.00    -0.203 A  
HETATM   16  I   UNK A   0     -11.597  12.353  69.293  1.00  0.00    -0.296 I  
HETATM   17  C   UNK A   0      -9.285  10.160  66.186  1.00  0.00    -0.159 A  
HETATM   18  C   UNK A   0     -10.236  11.029  66.774  1.00  0.00    -0.272 A  
BRANCH  13  19
HETATM   19  C   UNK A   0     -10.576   9.357  70.202  1.00  0.00    -0.240 C  
HETATM   20  O   UNK A   0      -9.964   9.761  71.323  1.00  0.00    -0.223 OA 
HETATM   21  H   UNK A   0     -10.361   9.504  72.147  1.00  0.00     0.000 HD 
BRANCH  19  22
ATOM     22  N   SER A   1     -11.658   8.664  70.270  1.00  0.00    -0.461 NA 
ATOM     23  H   SER A   1     -12.127   8.334  69.426  1.00  0.00     0.000 HD 
BRANCH  22  24
ATOM     24  CA  SER A   1     -12.205   8.357  71.621  1.00  0.00    -0.315 C  
BRANCH  24  25
ATOM     25  C   SER A   1     -12.458   6.839  71.672  1.00  0.00    -0.351 C  
ATOM     26  H   SER A   1     -11.382   5.201  71.852  1.00  0.00     0.000 HD 
ATOM     27  O   SER A   1     -11.226   6.138  71.821  1.00  0.00    -0.262 OA 
ENDBRANCH  24  25
BRANCH  24  28
ATOM     28  CB  SER A   1     -13.541   9.077  71.900  1.00  0.00    -0.431 C  
ATOM     29  OG  SER A   1     -13.949   9.046  73.267  1.00  0.00    -1.205 OA 
ATOM     30  HG  SER A   1     -14.771   9.489  73.439  1.00  0.00     0.000 HD 
ENDBRANCH  24  28
ENDBRANCH  22  24
ENDBRANCH  19  22
ENDBRANCH  13  19
BRANCH  18  31
HETATM   31  C   UNK A   0     -10.857  12.175  66.014  1.00  0.00    -0.282 C  
HETATM   32  H   UNK A   0     -12.449  12.636  64.984  1.00  0.00     0.000 HD 
HETATM   33  O   UNK A   0     -12.057  11.914  65.462  1.00  0.00    -0.410 OA 
BRANCH  31  34
ATOM     34  N   SER A   1     -10.294  13.319  65.826  1.00  0.00    -0.283 NA 
ATOM     35  H   SER A   1      -9.303  13.391  65.594  1.00  0.00     0.000 HD 
BRANCH  34  36
ATOM     36  CA  SER A   1     -11.151  14.536  65.961  1.00  0.00    -0.329 C  
BRANCH  36  37
ATOM     37  CB  SER A   1     -10.499  15.461  66.993  1.00  0.00    -0.295 C  
ATOM     38  HG  SER A   1      -9.874  17.328  67.070  1.00  0.00     0.000 HD 
ATOM     39  OG  SER A   1     -10.279  16.754  66.430  1.00  0.00    -0.301 OA 
ENDBRANCH  36  37
BRANCH  36  40
ATOM     40  C   SER A   1     -11.249  15.244  64.596  1.00  0.00    -0.356 C  
ATOM     41  H   SER A   1     -12.550  15.373  63.120  1.00  0.00     0.000 HD 
ATOM     42  O   SER A   1     -12.489  14.937  63.962  1.00  0.00    -0.807 OA 
ENDBRANCH  36  40
ENDBRANCH  34  36
ENDBRANCH  31  34
ENDBRANCH  18  31
ENDBRANCH   8  10
ENDBRANCH   5   8
ENDBRANCH   1   5
TORSDOF 13
ENDMDL
MODEL       21
REMARK 921   NORMALIZED FREE ENERGY PREDICTED BY IDOCK:   -5.21 KCAL/MOL
REMARK 922        TOTAL FREE ENERGY PREDICTED BY IDOCK:  -10.11 KCAL/MOL
REMARK 923 INTER-LIGAND FREE ENERGY PREDICTED BY IDOCK:   -9.81 KCAL/MOL
REMARK 924 INTRA-LIGAND FREE ENERGY PREDICTED BY IDOCK:   -0.30 KCAL/MOL
REMARK 927      BINDING AFFINITY PREDICTED BY RF-SCORE:    0.00 PKD
ROOT
HETATM    1  C   UNK A   0     -10.802   9.006  71.880  1.00  0.00    -0.343 C  
HETATM    2  O   UNK A   0     -12.045   8.286  71.791  1.00  0.00    -0.287 OA 
HETATM    3  C   UNK A   0      -9.719   8.060  72.351  1.00  0.00    -0.305 C  
HETATM    4  H   UNK A   0     -12.725   8.880  71.496  1.00  0.00     0.000 HD 
ENDROOT
BRANCH   1   5
HETATM    5  C   UNK A   0     -10.484   9.509  70.483  1.00  0.00    -0.296 C  
HETATM    6  O   UNK A   0      -9.213   9.957  70.360  1.00  0.00    -0.356 OA 
HETATM    7  H   UNK A   0      -9.014  10.272  69.486  1.00  0.00     0.000 HD 
BRANCH   5   8
HETATM    8  N   UNK A   0     -11.325   9.461  69.503  1.00  0.00    -0.440 NA 
HETATM    9  H   UNK A   0     -12.327   9.437  69.688  1.00  0.00     0.000 HD 
BRANCH   8  10
HETATM   10  C   UNK A   0     -10.840   9.442  68.159  1.00  0.00    -0.119 A  
HETATM   11  C   UNK A   0     -10.781  10.614  67.368  1.00  0.00    -0.276 A  
HETATM   12  I   UNK A   0     -11.350  12.511  68.310  1.00  0.00    -0.415 I  
HETATM   13  C   UNK A   0     -10.222  10.584  66.072  1.00  0.00    -0.310 A  
HETATM   14  I   UNK A   0     -10.620   6.439  68.794  1.00  0.00    -0.409 I  
HETATM   15  C   UNK A   0      -9.476   9.430  65.689  1.00  0.00    -0.262 A  
HETATM   16  I   UNK A   0      -7.976   9.719  64.127  1.00  0.00    -0.170 I  
HETATM   17  C   UNK A   0     -10.254   8.242  67.654  1.00  0.00    -0.231 A  
HETATM   18  C   UNK A   0      -9.487   8.233  66.465  1.00  0.00    -0.284 A  
BRANCH  13  19
HETATM   19  C   UNK A   0     -10.473  11.655  65.057  1.00  0.00    -0.285 C  
HETATM   20  O   UNK A   0     -11.097  11.288  63.929  1.00  0.00    -0.459 OA 
HETATM   21  H   UNK A   0     -11.256  11.968  63.285  1.00  0.00     0.000 HD 
BRANCH  19  22
ATOM     22  N   SER A   1     -10.129  12.882  65.236  1.00  0.00    -0.401 NA 
ATOM     23  H   SER A   1      -9.287  13.122  65.760  1.00  0.00     0.000 HD 
BRANCH  22  24
ATOM     24  CA  SER A   1     -11.000  13.941  64.655  1.00  0.00    -0.398 C  
BRANCH  24  25
ATOM     25  C   SER A   1     -10.331  15.294  64.961  1.00  0.00    -0.342 C  
ATOM     26  H   SER A   1     -10.662  17.192  64.561  1.00  0.00     0.000 HD 
ATOM     27  O   SER A   1     -11.075  16.358  64.372  1.00  0.00    -0.825 OA 
ENDBRANCH  24  25
BRANCH  24  28
ATOM     28  CB  SER A   1     -12.414  13.954  65.271  1.00  0.00    -0.478 C  
ATOM     29  OG  SER A   1     -13.211  12.821  64.932  1.00  0.00    -0.808 OA 
ATOM     30  HG  SER A   1     -14.082  12.829  65.311  1.00  0.00     0.000 HD 
ENDBRANCH  24  28
ENDBRANCH  22  24
ENDBRANCH  19  22
ENDBRANCH  13  19
BRANCH  18  31
HETATM   31  C   UNK A   0      -8.659   7.042  66.050  1.00  0.00    -0.148 C  
HETATM   32  H   UNK A   0      -6.958   6.164  66.426  1.00  0.00     0.000 HD 
HETATM   33  O   UNK A   0      -7.479   6.913  66.687  1.00  0.00    -0.079 OA 
BRANCH  31  34
ATOM     34  N   SER A   1      -8.983   6.214  65.116  1.00  0.00    -0.369 NA 
ATOM     35  H   SER A   1      -9.588   6.495  64.345  1.00  0.00     0.000 HD 
BRANCH  34  36
ATOM     36  CA  SER A   1      -8.436   4.826  65.209  1.00  0.00    -0.132 C  
BRANCH  36  37
ATOM     37  CB  SER A   1      -9.507   3.938  65.847  1.00  0.00    -0.181 C  
ATOM     38  HG  SER A   1     -11.471   3.781  65.797  1.00  0.00     0.000 HD 
ATOM     39  OG  SER A   1     -10.806   4.331  65.402  1.00  0.00    -0.196 OA 
ENDBRANCH  36  37
BRANCH  36  40
ATOM     40  C   SER A   1      -8.092   4.319  63.796  1.00  0.00    -0.093 C  
ATOM     41  H   SER A   1      -8.324   4.936  61.938  1.00  0.00     0.000 HD 
ATOM     42  O   SER A   1      -8.536   5.248  62.809  1.00  0.00    -0.111 OA 
ENDBRANCH  36  40
ENDBRANCH  34  36
ENDBRANCH  31  34
ENDBRANCH  18  31
ENDBRANCH   8  10
ENDBRANCH   5   8
ENDBRANCH   1   5
TORSDOF 13
ENDMDL
MODEL       22
REMARK 921   NORMALIZED FREE ENERGY PREDICTED BY IDOCK:   -5.18 KCAL/MOL
REMARK 922        TOTAL FREE ENERGY PREDICTED BY IDOCK:  -10.05 KCAL/MOL
REMARK 923 INTER-LIGAND FREE ENERGY PREDICTED BY IDOCK:   -9.39 KCAL/MOL
REMARK 924 INTRA-LIGAND FREE ENERGY PREDICTED BY IDOCK:   -0.65 KCAL/MOL
REMARK 927      BINDING AFFINITY PREDICTED BY RF-SCORE:    0.00 PKD
ROOT
HETATM    1  C   UNK A   0     -11.351  13.135  64.460  1.00  0.00    -0.349 C  
HETATM    2  O   UNK A   0     -10.535  14.318  64.392  1.00  0.00    -0.572 OA 
HETATM    3  C   UNK A   0     -12.357  13.166  63.331  1.00  0.00    -0.443 C  
HETATM    4  H   UNK A   0      -9.903  14.298  65.101  1.00  0.00     0.000 HD 
ENDROOT
BRANCH   1   5
HETATM    5  C   UNK A   0     -10.418  11.947  64.295  1.00  0.00    -0.326 C  
HETATM    6  O   UNK A   0     -10.687  11.216  63.189  1.00  0.00    -0.735 OA 
HETATM    7  H   UNK A   0     -10.104  10.473  63.085  1.00  0.00     0.000 HD 
BRANCH   5   8
HETATM    8  N   UNK A   0      -9.439  11.697  65.100  1.00  0.00    -0.378 NA 
HETATM    9  H   UNK A   0      -8.703  12.388  65.244  1.00  0.00     0.000 HD 
BRANCH   8  10
HETATM   10  C   UNK A   0      -9.394  10.445  65.787  1.00  0.00    -0.186 A  
HETATM   11  C   UNK A   0      -8.620   9.359  65.315  1.00  0.00    -0.162 A  
HETATM   12  I   UNK A   0      -7.378   9.688  63.537  1.00  0.00    -0.125 I  
HETATM   13  C   UNK A   0      -8.527   8.161  66.056  1.00  0.00    -0.150 A  
HETATM   14  I   UNK A   0     -11.399  11.918  67.599  1.00  0.00    -0.358 I  
HETATM   15  C   UNK A   0      -8.994   8.166  67.402  1.00  0.00    -0.137 A  
HETATM   16  I   UNK A   0      -8.115   6.680  68.741  1.00  0.00    -0.120 I  
HETATM   17  C   UNK A   0     -10.019  10.337  67.067  1.00  0.00    -0.201 A  
HETATM   18  C   UNK A   0      -9.760   9.248  67.932  1.00  0.00    -0.180 A  
BRANCH  13  19
HETATM   19  C   UNK A   0      -8.066   6.871  65.453  1.00  0.00    -0.133 C  
HETATM   20  O   UNK A   0      -6.781   6.538  65.641  1.00  0.00    -0.046 OA 
HETATM   21  H   UNK A   0      -6.489   5.718  65.259  1.00  0.00     0.000 HD 
BRANCH  19  22
ATOM     22  N   SER A   1      -8.846   6.090  64.791  1.00  0.00    -0.363 NA 
ATOM     23  H   SER A   1      -9.259   6.386  63.906  1.00  0.00     0.000 HD 
BRANCH  22  24
ATOM     24  CA  SER A   1      -9.128   4.742  65.358  1.00  0.00    -0.154 C  
BRANCH  24  25
ATOM     25  C   SER A   1      -9.053   3.738  64.193  1.00  0.00    -0.128 C  
ATOM     26  H   SER A   1      -9.593   1.876  63.856  1.00  0.00     0.000 HD 
ATOM     27  O   SER A   1      -9.640   2.495  64.574  1.00  0.00    -0.145 OA 
ENDBRANCH  24  25
BRANCH  24  28
ATOM     28  CB  SER A   1     -10.532   4.643  65.989  1.00  0.00    -0.264 C  
ATOM     29  OG  SER A   1     -11.595   4.551  65.042  1.00  0.00    -1.101 OA 
ATOM     30  HG  SER A   1     -12.459   4.490  65.431  1.00  0.00     0.000 HD 
ENDBRANCH  24  28
ENDBRANCH  22  24
ENDBRANCH  19  22
ENDBRANCH  13  19
BRANCH  18  31
HETATM   31  C   UNK A   0     -10.209   9.238  69.372  1.00  0.00    -0.210 C  
HETATM   32  H   UNK A   0      -9.639   9.807  71.149  1.00  0.00     0.000 HD 
HETATM   33  O   UNK A   0      -9.357   9.813  70.242  1.00  0.00    -0.247 OA 
BRANCH  31  34
ATOM     34  N   SER A   1     -11.290   8.679  69.799  1.00  0.00    -0.446 NA 
ATOM     35  H   SER A   1     -11.866   8.103  69.185  1.00  0.00     0.000 HD 
BRANCH  34  36
ATOM     36  CA  SER A   1     -11.663   8.909  71.227  1.00  0.00    -0.306 C  
BRANCH  36  37
ATOM     37  CB  SER A   1     -12.993   9.668  71.251  1.00  0.00    -0.360 C  
ATOM     38  HG  SER A   1     -14.892   9.247  71.560  1.00  0.00     0.000 HD 
ATOM     39  OG  SER A   1     -14.067   8.776  71.546  1.00  0.00    -0.395 OA 
ENDBRANCH  36  37
BRANCH  36  40
ATOM     40  C   SER A   1     -11.810   7.551  71.940  1.00  0.00    -0.296 C  
ATOM     41  H   SER A   1     -11.072   6.666  73.540  1.00  0.00     0.000 HD 
ATOM     42  O   SER A   1     -10.981   7.503  73.100  1.00  0.00    -0.376 OA 
ENDBRANCH  36  40
ENDBRANCH  34  36
ENDBRANCH  31  34
ENDBRANCH  18  31
ENDBRANCH   8  10
ENDBRANCH   5   8
ENDBRANCH   1   5
TORSDOF 13
ENDMDL
MODEL       23
REMARK 921   NORMALIZED FREE ENERGY PREDICTED BY IDOCK:   -5.18 KCAL/MOL
REMARK 922        TOTAL FREE ENERGY PREDICTED BY IDOCK:  -10.04 KCAL/MOL
REMARK 923 INTER-LIGAND FREE ENERGY PREDICTED BY IDOCK:   -8.98 KCAL/MOL
REMARK 924 INTRA-LIGAND FREE ENERGY PREDICTED BY IDOCK:   -1.07 KCAL/MOL
REMARK 927      BINDING AFFINITY PREDICTED BY RF-SCORE:    0.00 PKD
ROOT
HETATM    1  C   UNK A   0     -12.262   9.259  72.126  1.00  0.00    -0.307 C  
HETATM    2  O   UNK A   0     -13.332  10.207  72.289  1.00  0.00    -0.570 OA 
HETATM    3  C   UNK A   0     -12.852   7.883  71.915  1.00  0.00    -0.331 C  
HETATM    4  H   UNK A   0     -12.961  11.071  72.422  1.00  0.00     0.000 HD 
ENDROOT
BRANCH   1   5
HETATM    5  C   UNK A   0     -11.481   9.686  70.895  1.00  0.00    -0.353 C  
HETATM    6  O   UNK A   0     -10.184   9.964  71.163  1.00  0.00    -0.270 OA 
HETATM    7  H   UNK A   0      -9.695  10.231  70.393  1.00  0.00     0.000 HD 
BRANCH   5   8
HETATM    8  N   UNK A   0     -11.992   9.724  69.709  1.00  0.00    -0.448 NA 
HETATM    9  H   UNK A   0     -12.988   9.554  69.573  1.00  0.00     0.000 HD 
BRANCH   8  10
HETATM   10  C   UNK A   0     -11.151  10.005  68.588  1.00  0.00    -0.174 A  
HETATM   11  C   UNK A   0     -10.494   8.979  67.869  1.00  0.00    -0.234 A  
HETATM   12  I   UNK A   0     -10.897   6.903  68.454  1.00  0.00    -0.132 I  
HETATM   13  C   UNK A   0      -9.736   9.275  66.716  1.00  0.00    -0.260 A  
HETATM   14  I   UNK A   0     -11.892  12.887  69.370  1.00  0.00    -0.207 I  
HETATM   15  C   UNK A   0      -9.872  10.571  66.138  1.00  0.00    -0.217 A  
HETATM   16  I   UNK A   0      -9.412  10.737  64.008  1.00  0.00    -0.363 I  
HETATM   17  C   UNK A   0     -11.099  11.340  68.083  1.00  0.00    -0.259 A  
HETATM   18  C   UNK A   0     -10.544  11.633  66.814  1.00  0.00    -0.280 A  
BRANCH  13  19
HETATM   19  C   UNK A   0      -8.723   8.331  66.149  1.00  0.00    -0.150 C  
HETATM   20  O   UNK A   0      -7.446   8.523  66.509  1.00  0.00    -0.086 OA 
HETATM   21  H   UNK A   0      -6.803   7.923  66.149  1.00  0.00     0.000 HD 
BRANCH  19  22
ATOM     22  N   SER A   1      -9.034   7.362  65.360  1.00  0.00    -0.376 NA 
ATOM     23  H   SER A   1      -9.954   7.316  64.922  1.00  0.00     0.000 HD 
BRANCH  22  24
ATOM     24  CA  SER A   1      -8.008   6.312  65.109  1.00  0.00    -0.115 C  
BRANCH  24  25
ATOM     25  C   SER A   1      -8.056   5.985  63.605  1.00  0.00    -0.078 C  
ATOM     26  H   SER A   1      -8.835   4.591  62.454  1.00  0.00     0.000 HD 
ATOM     27  O   SER A   1      -8.806   4.793  63.382  1.00  0.00    -0.141 OA 
ENDBRANCH  24  25
BRANCH  24  28
ATOM     28  CB  SER A   1      -8.283   5.011  65.892  1.00  0.00    -0.114 C  
ATOM     29  OG  SER A   1      -9.667   4.727  66.087  1.00  0.00    -0.160 OA 
ATOM     30  HG  SER A   1      -9.837   3.926  66.570  1.00  0.00     0.000 HD 
ENDBRANCH  24  28
ENDBRANCH  22  24
ENDBRANCH  19  22
ENDBRANCH  13  19
BRANCH  18  31
HETATM   31  C   UNK A   0     -10.702  12.983  66.159  1.00  0.00    -0.273 C  
HETATM   32  H   UNK A   0      -9.711  14.623  65.793  1.00  0.00     0.000 HD 
HETATM   33  O   UNK A   0      -9.612  13.773  66.206  1.00  0.00    -0.281 OA 
BRANCH  31  34
ATOM     34  N   SER A   1     -11.795  13.419  65.634  1.00  0.00    -0.351 NA 
ATOM     35  H   SER A   1     -12.697  13.273  66.088  1.00  0.00     0.000 HD 
BRANCH  34  36
ATOM     36  CA  SER A   1     -11.689  14.148  64.333  1.00  0.00    -0.392 C  
BRANCH  36  37
ATOM     37  CB  SER A   1     -12.347  13.284  63.253  1.00  0.00    -0.238 C  
ATOM     38  HG  SER A   1     -13.517  11.701  63.184  1.00  0.00     0.000 HD 
ATOM     39  OG  SER A   1     -13.109  12.237  63.853  1.00  0.00    -0.772 OA 
ENDBRANCH  36  37
BRANCH  36  40
ATOM     40  C   SER A   1     -12.412  15.503  64.448  1.00  0.00     0.108 C  
ATOM     41  H   SER A   1     -11.997  17.401  64.111  1.00  0.00     0.000 HD 
ATOM     42  O   SER A   1     -11.552  16.565  64.040  1.00  0.00    -1.154 OA 
ENDBRANCH  36  40
ENDBRANCH  34  36
ENDBRANCH  31  34
ENDBRANCH  18  31
ENDBRANCH   8  10
ENDBRANCH   5   8
ENDBRANCH   1   5
TORSDOF 13
ENDMDL
MODEL       24
REMARK 921   NORMALIZED FREE ENERGY PREDICTED BY IDOCK:   -5.16 KCAL/MOL
REMARK 922        TOTAL FREE ENERGY PREDICTED BY IDOCK:  -10.02 KCAL/MOL
REMARK 923 INTER-LIGAND FREE ENERGY PREDICTED BY IDOCK:   -8.79 KCAL/MOL
REMARK 924 INTRA-LIGAND FREE ENERGY PREDICTED BY IDOCK:   -1.23 KCAL/MOL
REMARK 927      BINDING AFFINITY PREDICTED BY RF-SCORE:    0.00 PKD
ROOT
HETATM    1  C   UNK A   0     -12.385   9.353  71.910  1.00  0.00    -0.375 C  
HETATM    2  O   UNK A   0     -13.658   9.096  71.290  1.00  0.00    -0.501 OA 
HETATM    3  C   UNK A   0     -11.959   8.126  72.684  1.00  0.00    -0.353 C  
HETATM    4  H   UNK A   0     -13.926   9.867  70.804  1.00  0.00     0.000 HD 
ENDROOT
BRANCH   1   5
HETATM    5  C   UNK A   0     -11.399   9.631  70.788  1.00  0.00    -0.340 C  
HETATM    6  O   UNK A   0     -10.137   9.831  71.234  1.00  0.00    -0.238 OA 
HETATM    7  H   UNK A   0      -9.519  10.005  70.533  1.00  0.00     0.000 HD 
BRANCH   5   8
HETATM    8  N   UNK A   0     -11.725   9.623  69.538  1.00  0.00    -0.438 NA 
HETATM    9  H   UNK A   0     -12.702   9.531  69.263  1.00  0.00     0.000 HD 
BRANCH   8  10
HETATM   10  C   UNK A   0     -10.706   9.742  68.543  1.00  0.00    -0.215 A  
HETATM   11  C   UNK A   0     -10.381  10.984  67.950  1.00  0.00    -0.186 A  
HETATM   12  I   UNK A   0     -11.414  12.772  68.693  1.00  0.00    -0.409 I  
HETATM   13  C   UNK A   0      -9.315  11.090  67.031  1.00  0.00    -0.186 A  
HETATM   14  I   UNK A   0     -10.602   6.697  68.978  1.00  0.00    -0.351 I  
HETATM   15  C   UNK A   0      -8.409   9.994  66.925  1.00  0.00    -0.125 A  
HETATM   16  I   UNK A   0      -6.400  10.461  66.202  1.00  0.00    -0.130 I  
HETATM   17  C   UNK A   0      -9.888   8.608  68.255  1.00  0.00    -0.165 A  
HETATM   18  C   UNK A   0      -8.682   8.727  67.523  1.00  0.00    -0.135 A  
BRANCH  13  19
HETATM   19  C   UNK A   0      -9.165  12.247  66.094  1.00  0.00    -0.132 C  
HETATM   20  O   UNK A   0      -8.475  13.305  66.542  1.00  0.00    -0.418 OA 
HETATM   21  H   UNK A   0      -8.380  14.040  65.946  1.00  0.00     0.000 HD 
BRANCH  19  22
ATOM     22  N   SER A   1      -9.654  12.250  64.904  1.00  0.00    -0.461 NA 
ATOM     23  H   SER A   1      -9.078  12.012  64.097  1.00  0.00     0.000 HD 
BRANCH  22  24
ATOM     24  CA  SER A   1     -11.090  12.614  64.741  1.00  0.00    -0.300 C  
BRANCH  24  25
ATOM     25  C   SER A   1     -11.581  11.943  63.445  1.00  0.00    -0.382 C  
ATOM     26  H   SER A   1     -13.309  11.466  62.632  1.00  0.00     0.000 HD 
ATOM     27  O   SER A   1     -13.006  11.881  63.432  1.00  0.00    -0.730 OA 
ENDBRANCH  24  25
BRANCH  24  28
ATOM     28  CB  SER A   1     -11.307  14.136  64.608  1.00  0.00    -0.371 C  
ATOM     29  OG  SER A   1     -12.308  14.503  63.660  1.00  0.00    -1.064 OA 
ATOM     30  HG  SER A   1     -12.441  15.440  63.578  1.00  0.00     0.000 HD 
ENDBRANCH  24  28
ENDBRANCH  22  24
ENDBRANCH  19  22
ENDBRANCH  13  19
BRANCH  18  31
HETATM   31  C   UNK A   0      -7.686   7.599  67.421  1.00  0.00    -0.117 C  
HETATM   32  H   UNK A   0      -6.421   6.581  68.503  1.00  0.00     0.000 HD 
HETATM   33  O   UNK A   0      -7.049   7.292  68.567  1.00  0.00    -0.079 OA 
BRANCH  31  34
ATOM     34  N   SER A   1      -7.386   6.984  66.329  1.00  0.00    -0.074 NA 
ATOM     35  H   SER A   1      -6.416   6.792  66.078  1.00  0.00     0.000 HD 
BRANCH  34  36
ATOM     36  CA  SER A   1      -8.516   6.563  65.445  1.00  0.00    -0.115 C  
BRANCH  36  37
ATOM     37  CB  SER A   1      -8.070   6.740  63.992  1.00  0.00    -0.015 C  
ATOM     38  HG  SER A   1      -7.665   8.238  62.777  1.00  0.00     0.000 HD 
ATOM     39  OG  SER A   1      -7.942   8.128  63.679  1.00  0.00    -0.146 OA 
ENDBRANCH  36  37
BRANCH  36  40
ATOM     40  C   SER A   1      -8.857   5.087  65.724  1.00  0.00    -0.139 C  
ATOM     41  H   SER A   1      -8.437   3.328  64.936  1.00  0.00     0.000 HD 
ATOM     42  O   SER A   1      -8.227   4.238  64.765  1.00  0.00    -0.099 OA 
ENDBRANCH  36  40
ENDBRANCH  34  36
ENDBRANCH  31  34
ENDBRANCH  18  31
ENDBRANCH   8  10
ENDBRANCH   5   8
ENDBRANCH   1   5
TORSDOF 13
ENDMDL
MODEL       25
REMARK 921   NORMALIZED FREE ENERGY PREDICTED BY IDOCK:   -5.16 KCAL/MOL
REMARK 922        TOTAL FREE ENERGY PREDICTED BY IDOCK:  -10.01 KCAL/MOL
REMARK 923 INTER-LIGAND FREE ENERGY PREDICTED BY IDOCK:   -9.01 KCAL/MOL
REMARK 924 INTRA-LIGAND FREE ENERGY PREDICTED BY IDOCK:   -1.00 KCAL/MOL
REMARK 927      BINDING AFFINITY PREDICTED BY RF-SCORE:    0.00 PKD
ROOT
HETATM    1  C   UNK A   0      -9.820   8.491  71.494  1.00  0.00    -0.239 C  
HETATM    2  O   UNK A   0     -10.330   8.283  72.823  1.00  0.00    -0.318 OA 
HETATM    3  C   UNK A   0      -8.415   7.939  71.415  1.00  0.00    -0.133 C  
HETATM    4  H   UNK A   0     -11.213   8.631  72.873  1.00  0.00     0.000 HD 
ENDROOT
BRANCH   1   5
HETATM    5  C   UNK A   0     -10.734   7.729  70.549  1.00  0.00    -0.236 C  
HETATM    6  O   UNK A   0     -10.710   6.392  70.756  1.00  0.00    -0.227 OA 
HETATM    7  H   UNK A   0     -11.281   5.916  70.164  1.00  0.00     0.000 HD 
BRANCH   5   8
HETATM    8  N   UNK A   0     -11.492   8.307  69.676  1.00  0.00    -0.364 NA 
HETATM    9  H   UNK A   0     -12.354   7.857  69.367  1.00  0.00     0.000 HD 
BRANCH   8  10
HETATM   10  C   UNK A   0     -11.116   9.579  69.148  1.00  0.00    -0.053 A  
HETATM   11  C   UNK A   0     -11.585  10.791  69.708  1.00  0.00    -0.317 A  
HETATM   12  I   UNK A   0     -12.830  10.668  71.510  1.00  0.00    -0.418 I  
HETATM   13  C   UNK A   0     -11.134  12.036  69.220  1.00  0.00    -0.246 A  
HETATM   14  I   UNK A   0      -9.650   7.770  67.137  1.00  0.00    -0.293 I  
HETATM   15  C   UNK A   0     -10.003  12.047  68.352  1.00  0.00    -0.208 A  
HETATM   16  I   UNK A   0      -8.839  13.895  68.296  1.00  0.00    -0.113 I  
HETATM   17  C   UNK A   0     -10.117   9.635  68.129  1.00  0.00    -0.175 A  
HETATM   18  C   UNK A   0      -9.480  10.849  67.778  1.00  0.00    -0.165 A  
BRANCH  13  19
HETATM   19  C   UNK A   0     -11.856  13.320  69.485  1.00  0.00    -0.327 C  
HETATM   20  O   UNK A   0     -12.529  13.860  68.460  1.00  0.00    -0.442 OA 
HETATM   21  H   UNK A   0     -12.988  14.675  68.628  1.00  0.00     0.000 HD 
BRANCH  19  22
ATOM     22  N   SER A   1     -11.860  13.894  70.636  1.00  0.00    -0.498 NA 
ATOM     23  H   SER A   1     -11.311  13.524  71.412  1.00  0.00     0.000 HD 
BRANCH  22  24
ATOM     24  CA  SER A   1     -12.693  15.119  70.801  1.00  0.00    -0.405 C  
BRANCH  24  25
ATOM     25  C   SER A   1     -11.867  16.117  71.633  1.00  0.00    -0.487 C  
ATOM     26  H   SER A   1     -10.786  16.080  73.277  1.00  0.00     0.000 HD 
ATOM     27  O   SER A   1     -11.295  15.463  72.763  1.00  0.00    -0.378 OA 
ENDBRANCH  24  25
BRANCH  24  28
ATOM     28  CB  SER A   1     -14.013  14.844  71.550  1.00  0.00    -0.486 C  
ATOM     29  OG  SER A   1     -14.270  15.738  72.632  1.00  0.00    -0.554 OA 
ATOM     30  HG  SER A   1     -15.083  15.569  73.093  1.00  0.00     0.000 HD 
ENDBRANCH  24  28
ENDBRANCH  22  24
ENDBRANCH  19  22
ENDBRANCH  13  19
BRANCH  18  31
HETATM   31  C   UNK A   0      -8.260  10.891  66.892  1.00  0.00    -0.135 C  
HETATM   32  H   UNK A   0      -6.326  10.635  66.947  1.00  0.00     0.000 HD 
HETATM   33  O   UNK A   0      -7.095  10.609  67.505  1.00  0.00    -0.086 OA 
BRANCH  31  34
ATOM     34  N   SER A   1      -8.270  11.228  65.647  1.00  0.00    -0.369 NA 
ATOM     35  H   SER A   1      -7.528  11.801  65.247  1.00  0.00     0.000 HD 
BRANCH  34  36
ATOM     36  CA  SER A   1      -9.414  10.744  64.815  1.00  0.00    -0.247 C  
BRANCH  36  37
ATOM     37  CB  SER A   1     -10.274  11.955  64.445  1.00  0.00    -0.297 C  
ATOM     38  HG  SER A   1     -12.051  12.664  64.917  1.00  0.00     0.000 HD 
ATOM     39  OG  SER A   1     -11.517  11.913  65.147  1.00  0.00    -0.311 OA 
ENDBRANCH  36  37
BRANCH  36  40
ATOM     40  C   SER A   1      -8.868  10.067  63.544  1.00  0.00    -0.236 C  
ATOM     41  H   SER A   1      -9.261  10.079  61.612  1.00  0.00     0.000 HD 
ATOM     42  O   SER A   1      -9.597  10.496  62.396  1.00  0.00    -0.247 OA 
ENDBRANCH  36  40
ENDBRANCH  34  36
ENDBRANCH  31  34
ENDBRANCH  18  31
ENDBRANCH   8  10
ENDBRANCH   5   8
ENDBRANCH   1   5
TORSDOF 13
ENDMDL
MODEL       26
REMARK 921   NORMALIZED FREE ENERGY PREDICTED BY IDOCK:   -5.16 KCAL/MOL
REMARK 922        TOTAL FREE ENERGY PREDICTED BY IDOCK:  -10.01 KCAL/MOL
REMARK 923 INTER-LIGAND FREE ENERGY PREDICTED BY IDOCK:   -8.79 KCAL/MOL
REMARK 924 INTRA-LIGAND FREE ENERGY PREDICTED BY IDOCK:   -1.23 KCAL/MOL
REMARK 927      BINDING AFFINITY PREDICTED BY RF-SCORE:    0.00 PKD
ROOT
HETATM    1  C   UNK A   0      -8.166   9.772  62.894  1.00  0.00    -0.153 C  
HETATM    2  O   UNK A   0      -7.397  10.865  62.363  1.00  0.00    -0.313 OA 
HETATM    3  C   UNK A   0      -7.369   8.495  62.751  1.00  0.00    -0.098 C  
HETATM    4  H   UNK A   0      -7.898  11.667  62.452  1.00  0.00     0.000 HD 
ENDROOT
BRANCH   1   5
HETATM    5  C   UNK A   0      -8.406  10.076  64.363  1.00  0.00    -0.168 C  
HETATM    6  O   UNK A   0      -7.424  10.827  64.913  1.00  0.00    -0.355 OA 
HETATM    7  H   UNK A   0      -7.573  11.017  65.832  1.00  0.00     0.000 HD 
BRANCH   5   8
HETATM    8  N   UNK A   0      -9.464   9.700  65.002  1.00  0.00    -0.351 NA 
HETATM    9  H   UNK A   0     -10.021   8.918  64.658  1.00  0.00     0.000 HD 
BRANCH   8  10
HETATM   10  C   UNK A   0      -9.850  10.387  66.194  1.00  0.00    -0.222 A  
HETATM   11  C   UNK A   0     -10.598  11.588  66.156  1.00  0.00    -0.266 A  
HETATM   12  I   UNK A   0     -11.263  12.315  64.196  1.00  0.00    -0.575 I  
HETATM   13  C   UNK A   0     -11.037  12.203  67.348  1.00  0.00    -0.330 A  
HETATM   14  I   UNK A   0      -8.240   8.092  67.461  1.00  0.00    -0.124 I  
HETATM   15  C   UNK A   0     -10.954  11.457  68.559  1.00  0.00    -0.221 A  
HETATM   16  I   UNK A   0     -12.341  12.027  70.148  1.00  0.00     0.015 I  
HETATM   17  C   UNK A   0      -9.611   9.765  67.457  1.00  0.00    -0.150 A  
HETATM   18  C   UNK A   0     -10.229  10.230  68.642  1.00  0.00    -0.196 A  
BRANCH  13  19
HETATM   19  C   UNK A   0     -11.477  13.633  67.406  1.00  0.00    -0.336 C  
HETATM   20  O   UNK A   0     -12.776  13.878  67.182  1.00  0.00    -0.375 OA 
HETATM   21  H   UNK A   0     -13.055  14.785  67.219  1.00  0.00     0.000 HD 
BRANCH  19  22
ATOM     22  N   SER A   1     -10.672  14.601  67.669  1.00  0.00    -0.267 NA 
ATOM     23  H   SER A   1      -9.896  14.479  68.320  1.00  0.00     0.000 HD 
BRANCH  22  24
ATOM     24  CA  SER A   1     -10.910  15.908  66.994  1.00  0.00    -0.252 C  
BRANCH  24  25
ATOM     25  C   SER A   1     -10.123  15.882  65.671  1.00  0.00    -0.358 C  
ATOM     26  H   SER A   1     -10.316  16.633  63.862  1.00  0.00     0.000 HD 
ATOM     27  O   SER A   1     -10.801  16.650  64.679  1.00  0.00    -0.784 OA 
ENDBRANCH  24  25
BRANCH  24  28
ATOM     28  CB  SER A   1     -10.411  17.108  67.826  1.00  0.00    -0.362 C  
ATOM     29  OG  SER A   1     -10.399  18.346  67.119  1.00  0.00    -0.358 OA 
ATOM     30  HG  SER A   1     -10.092  19.085  67.632  1.00  0.00     0.000 HD 
ENDBRANCH  24  28
ENDBRANCH  22  24
ENDBRANCH  19  22
ENDBRANCH  13  19
BRANCH  18  31
HETATM   31  C   UNK A   0     -10.190   9.446  69.931  1.00  0.00    -0.222 C  
HETATM   32  H   UNK A   0      -9.189   9.308  71.600  1.00  0.00     0.000 HD 
HETATM   33  O   UNK A   0      -9.214   9.801  70.788  1.00  0.00    -0.109 OA 
BRANCH  31  34
ATOM     34  N   SER A   1     -10.972   8.460  70.213  1.00  0.00    -0.241 NA 
ATOM     35  H   SER A   1     -11.232   7.772  69.506  1.00  0.00     0.000 HD 
BRANCH  34  36
ATOM     36  CA  SER A   1     -11.480   8.366  71.615  1.00  0.00    -0.287 C  
BRANCH  36  37
ATOM     37  CB  SER A   1     -12.995   8.581  71.583  1.00  0.00    -0.343 C  
ATOM     38  HG  SER A   1     -14.378   9.305  72.786  1.00  0.00     0.000 HD 
ATOM     39  OG  SER A   1     -13.437   9.172  72.805  1.00  0.00    -0.424 OA 
ENDBRANCH  36  37
BRANCH  36  40
ATOM     40  C   SER A   1     -11.148   6.974  72.184  1.00  0.00    -0.245 C  
ATOM     41  H   SER A   1     -12.079   5.255  72.445  1.00  0.00     0.000 HD 
ATOM     42  O   SER A   1     -12.283   6.114  72.094  1.00  0.00    -0.319 OA 
ENDBRANCH  36  40
ENDBRANCH  34  36
ENDBRANCH  31  34
ENDBRANCH  18  31
ENDBRANCH   8  10
ENDBRANCH   5   8
ENDBRANCH   1   5
TORSDOF 13
ENDMDL
MODEL       27
REMARK 921   NORMALIZED FREE ENERGY PREDICTED BY IDOCK:   -5.16 KCAL/MOL
REMARK 922        TOTAL FREE ENERGY PREDICTED BY IDOCK:  -10.00 KCAL/MOL
REMARK 923 INTER-LIGAND FREE ENERGY PREDICTED BY IDOCK:  -10.25 KCAL/MOL
REMARK 924 INTRA-LIGAND FREE ENERGY PREDICTED BY IDOCK:    0.24 KCAL/MOL
REMARK 927      BINDING AFFINITY PREDICTED BY RF-SCORE:    0.00 PKD
ROOT
HETATM    1  C   UNK A   0      -9.724  10.782  63.211  1.00  0.00    -0.355 C  
HETATM    2  O   UNK A   0      -9.073  11.947  62.673  1.00  0.00    -0.493 OA 
HETATM    3  C   UNK A   0      -8.885   9.563  62.900  1.00  0.00    -0.242 C  
HETATM    4  H   UNK A   0      -9.600  12.713  62.869  1.00  0.00     0.000 HD 
ENDROOT
BRANCH   1   5
HETATM    5  C   UNK A   0      -9.814  10.983  64.714  1.00  0.00    -0.276 C  
HETATM    6  O   UNK A   0      -8.614  11.245  65.284  1.00  0.00    -0.379 OA 
HETATM    7  H   UNK A   0      -8.670  11.370  66.224  1.00  0.00     0.000 HD 
BRANCH   5   8
HETATM    8  N   UNK A   0     -10.928  10.959  65.368  1.00  0.00    -0.046 NA 
HETATM    9  H   UNK A   0     -11.738  10.474  64.984  1.00  0.00     0.000 HD 
BRANCH   8  10
HETATM   10  C   UNK A   0     -11.018  11.619  66.632  1.00  0.00    -0.299 A  
HETATM   11  C   UNK A   0     -11.305  13.000  66.737  1.00  0.00    -0.324 A  
HETATM   12  I   UNK A   0     -11.733  14.097  64.886  1.00  0.00    -0.476 I  
HETATM   13  C   UNK A   0     -11.471  13.611  67.998  1.00  0.00    -0.345 A  
HETATM   14  I   UNK A   0     -10.265   8.801  67.611  1.00  0.00    -0.310 I  
HETATM   15  C   UNK A   0     -11.616  12.767  69.139  1.00  0.00    -0.319 A  
HETATM   16  I   UNK A   0     -12.675  13.621  70.849  1.00  0.00    -0.222 I  
HETATM   17  C   UNK A   0     -10.973  10.834  67.824  1.00  0.00    -0.297 A  
HETATM   18  C   UNK A   0     -11.358  11.365  69.078  1.00  0.00    -0.345 A  
BRANCH  13  19
HETATM   19  C   UNK A   0     -11.387  15.092  68.198  1.00  0.00    -0.330 C  
HETATM   20  O   UNK A   0     -12.508  15.716  68.585  1.00  0.00    -0.483 OA 
HETATM   21  H   UNK A   0     -12.455  16.656  68.712  1.00  0.00     0.000 HD 
BRANCH  19  22
ATOM     22  N   SER A   1     -10.301  15.760  68.027  1.00  0.00    -0.246 NA 
ATOM     23  H   SER A   1      -9.391  15.299  68.045  1.00  0.00     0.000 HD 
BRANCH  22  24
ATOM     24  CA  SER A   1     -10.414  17.228  67.800  1.00  0.00    -0.371 C  
BRANCH  24  25
ATOM     25  C   SER A   1     -10.279  17.463  66.284  1.00  0.00    -0.341 C  
ATOM     26  H   SER A   1      -8.982  17.036  64.867  1.00  0.00     0.000 HD 
ATOM     27  O   SER A   1      -9.065  16.891  65.803  1.00  0.00    -0.523 OA 
ENDBRANCH  24  25
BRANCH  24  28
ATOM     28  CB  SER A   1      -9.303  18.028  68.512  1.00  0.00    -0.304 C  
ATOM     29  OG  SER A   1      -9.639  19.388  68.778  1.00  0.00    -0.393 OA 
ATOM     30  HG  SER A   1      -8.954  19.880  69.216  1.00  0.00     0.000 HD 
ENDBRANCH  24  28
ENDBRANCH  22  24
ENDBRANCH  19  22
ENDBRANCH  13  19
BRANCH  18  31
HETATM   31  C   UNK A   0     -11.556  10.495  70.295  1.00  0.00    -0.332 C  
HETATM   32  H   UNK A   0     -12.955   9.828  71.480  1.00  0.00     0.000 HD 
HETATM   33  O   UNK A   0     -12.830  10.376  70.714  1.00  0.00    -0.358 OA 
BRANCH  31  34
ATOM     34  N   SER A   1     -10.602   9.935  70.958  1.00  0.00    -0.326 NA 
ATOM     35  H   SER A   1      -9.638  10.260  70.876  1.00  0.00     0.000 HD 
BRANCH  34  36
ATOM     36  CA  SER A   1     -10.965   8.793  71.850  1.00  0.00    -0.365 C  
BRANCH  36  37
ATOM     37  CB  SER A   1     -11.494   7.656  70.971  1.00  0.00    -0.276 C  
ATOM     38  HG  SER A   1     -10.979   5.803  70.540  1.00  0.00     0.000 HD 
ATOM     39  OG  SER A   1     -10.652   6.509  71.086  1.00  0.00    -0.219 OA 
ENDBRANCH  36  37
BRANCH  36  40
ATOM     40  C   SER A   1      -9.715   8.334  72.624  1.00  0.00    -0.287 C  
ATOM     41  H   SER A   1      -7.764   8.592  72.510  1.00  0.00     0.000 HD 
ATOM     42  O   SER A   1      -8.535   8.875  72.033  1.00  0.00    -0.367 OA 
ENDBRANCH  36  40
ENDBRANCH  34  36
ENDBRANCH  31  34
ENDBRANCH  18  31
ENDBRANCH   8  10
ENDBRANCH   5   8
ENDBRANCH   1   5
TORSDOF 13
ENDMDL
MODEL       28
REMARK 921   NORMALIZED FREE ENERGY PREDICTED BY IDOCK:   -5.15 KCAL/MOL
REMARK 922        TOTAL FREE ENERGY PREDICTED BY IDOCK:  -10.00 KCAL/MOL
REMARK 923 INTER-LIGAND FREE ENERGY PREDICTED BY IDOCK:   -9.54 KCAL/MOL
REMARK 924 INTRA-LIGAND FREE ENERGY PREDICTED BY IDOCK:   -0.47 KCAL/MOL
REMARK 927      BINDING AFFINITY PREDICTED BY RF-SCORE:    0.00 PKD
ROOT
HETATM    1  C   UNK A   0     -11.120  12.908  64.416  1.00  0.00    -0.361 C  
HETATM    2  O   UNK A   0     -10.120  13.926  64.236  1.00  0.00    -0.727 OA 
HETATM    3  C   UNK A   0     -12.052  12.919  63.225  1.00  0.00    -0.520 C  
HETATM    4  H   UNK A   0      -9.535  13.920  64.984  1.00  0.00     0.000 HD 
ENDROOT
BRANCH   1   5
HETATM    5  C   UNK A   0     -10.387  11.580  64.491  1.00  0.00    -0.302 C  
HETATM    6  O   UNK A   0     -10.863  10.664  63.616  1.00  0.00    -0.413 OA 
HETATM    7  H   UNK A   0     -10.404   9.833  63.664  1.00  0.00     0.000 HD 
BRANCH   5   8
HETATM    8  N   UNK A   0      -9.380  11.369  65.273  1.00  0.00    -0.309 NA 
HETATM    9  H   UNK A   0      -8.559  11.973  65.226  1.00  0.00     0.000 HD 
BRANCH   8  10
HETATM   10  C   UNK A   0      -9.423  10.284  66.202  1.00  0.00    -0.181 A  
HETATM   11  C   UNK A   0     -10.099  10.387  67.441  1.00  0.00    -0.196 A  
HETATM   12  I   UNK A   0     -11.196  12.241  67.855  1.00  0.00    -0.413 I  
HETATM   13  C   UNK A   0     -10.198   9.275  68.304  1.00  0.00    -0.236 A  
HETATM   14  I   UNK A   0      -7.659   8.994  64.036  1.00  0.00    -0.142 I  
HETATM   15  C   UNK A   0      -9.851   7.991  67.789  1.00  0.00    -0.165 A  
HETATM   16  I   UNK A   0     -10.770   6.270  68.772  1.00  0.00    -0.406 I  
HETATM   17  C   UNK A   0      -8.907   9.014  65.803  1.00  0.00    -0.179 A  
HETATM   18  C   UNK A   0      -9.188   7.835  66.535  1.00  0.00    -0.229 A  
BRANCH  13  19
HETATM   19  C   UNK A   0     -10.541   9.405  69.755  1.00  0.00    -0.231 C  
HETATM   20  O   UNK A   0      -9.554   9.779  70.581  1.00  0.00    -0.329 OA 
HETATM   21  H   UNK A   0      -9.772   9.862  71.502  1.00  0.00     0.000 HD 
BRANCH  19  22
ATOM     22  N   SER A   1     -11.722   9.186  70.216  1.00  0.00    -0.466 NA 
ATOM     23  H   SER A   1     -12.483   8.900  69.600  1.00  0.00     0.000 HD 
BRANCH  22  24
ATOM     24  CA  SER A   1     -11.944   9.365  71.678  1.00  0.00    -0.393 C  
BRANCH  24  25
ATOM     25  C   SER A   1     -11.782   7.980  72.332  1.00  0.00    -0.386 C  
ATOM     26  H   SER A   1     -12.550   6.181  72.112  1.00  0.00     0.000 HD 
ATOM     27  O   SER A   1     -12.650   7.036  71.708  1.00  0.00    -0.344 OA 
ENDBRANCH  24  25
BRANCH  24  28
ATOM     28  CB  SER A   1     -13.357   9.890  72.007  1.00  0.00    -0.432 C  
ATOM     29  OG  SER A   1     -14.099   9.057  72.896  1.00  0.00    -1.009 OA 
ATOM     30  HG  SER A   1     -14.969   9.381  73.099  1.00  0.00     0.000 HD 
ENDBRANCH  24  28
ENDBRANCH  22  24
ENDBRANCH  19  22
ENDBRANCH  13  19
BRANCH  18  31
HETATM   31  C   UNK A   0      -8.866   6.461  66.002  1.00  0.00    -0.150 C  
HETATM   32  H   UNK A   0      -7.525   5.050  66.137  1.00  0.00     0.000 HD 
HETATM   33  O   UNK A   0      -7.728   5.915  66.472  1.00  0.00    -0.097 OA 
BRANCH  31  34
ATOM     34  N   SER A   1      -9.564   5.838  65.115  1.00  0.00    -0.172 NA 
ATOM     35  H   SER A   1     -10.494   6.161  64.849  1.00  0.00     0.000 HD 
BRANCH  34  36
ATOM     36  CA  SER A   1      -8.955   4.623  64.492  1.00  0.00    -0.147 C  
BRANCH  36  37
ATOM     37  CB  SER A   1      -9.863   3.429  64.801  1.00  0.00    -0.124 C  
ATOM     38  HG  SER A   1     -11.603   2.740  64.186  1.00  0.00     0.000 HD 
ATOM     39  OG  SER A   1     -11.040   3.480  63.994  1.00  0.00    -0.304 OA 
ENDBRANCH  36  37
BRANCH  36  40
ATOM     40  C   SER A   1      -8.845   4.832  62.970  1.00  0.00    -0.115 C  
ATOM     41  H   SER A   1      -7.785   4.098  61.479  1.00  0.00     0.000 HD 
ATOM     42  O   SER A   1      -7.852   3.969  62.417  1.00  0.00    -0.059 OA 
ENDBRANCH  36  40
ENDBRANCH  34  36
ENDBRANCH  31  34
ENDBRANCH  18  31
ENDBRANCH   8  10
ENDBRANCH   5   8
ENDBRANCH   1   5
TORSDOF 13
ENDMDL
MODEL       29
REMARK 921   NORMALIZED FREE ENERGY PREDICTED BY IDOCK:   -5.13 KCAL/MOL
REMARK 922        TOTAL FREE ENERGY PREDICTED BY IDOCK:   -9.95 KCAL/MOL
REMARK 923 INTER-LIGAND FREE ENERGY PREDICTED BY IDOCK:   -9.02 KCAL/MOL
REMARK 924 INTRA-LIGAND FREE ENERGY PREDICTED BY IDOCK:   -0.94 KCAL/MOL
REMARK 927      BINDING AFFINITY PREDICTED BY RF-SCORE:    0.00 PKD
ROOT
HETATM    1  C   UNK A   0      -9.905   4.552  66.094  1.00  0.00    -0.230 C  
HETATM    2  O   UNK A   0     -10.266   4.612  64.703  1.00  0.00    -0.396 OA 
HETATM    3  C   UNK A   0      -8.427   4.255  66.206  1.00  0.00    -0.112 C  
HETATM    4  H   UNK A   0     -11.195   4.799  64.633  1.00  0.00     0.000 HD 
ENDROOT
BRANCH   1   5
HETATM    5  C   UNK A   0     -10.208   5.917  66.687  1.00  0.00    -0.205 C  
HETATM    6  O   UNK A   0     -11.493   6.300  66.499  1.00  0.00    -0.680 OA 
HETATM    7  H   UNK A   0     -11.683   7.154  66.870  1.00  0.00     0.000 HD 
BRANCH   5   8
HETATM    8  N   UNK A   0      -9.342   6.613  67.347  1.00  0.00    -0.127 NA 
HETATM    9  H   UNK A   0      -8.344   6.477  67.185  1.00  0.00     0.000 HD 
BRANCH   8  10
HETATM   10  C   UNK A   0      -9.792   7.572  68.306  1.00  0.00    -0.163 A  
HETATM   11  C   UNK A   0      -9.922   8.944  67.987  1.00  0.00    -0.178 A  
HETATM   12  I   UNK A   0      -9.524   9.554  65.918  1.00  0.00    -0.338 I  
HETATM   13  C   UNK A   0     -10.447   9.857  68.927  1.00  0.00    -0.229 A  
HETATM   14  I   UNK A   0      -9.795   5.066  70.092  1.00  0.00    -0.333 I  
HETATM   15  C   UNK A   0     -11.092   9.333  70.085  1.00  0.00    -0.230 A  
HETATM   16  I   UNK A   0     -12.573  10.626  71.040  1.00  0.00    -0.531 I  
HETATM   17  C   UNK A   0     -10.272   7.111  69.569  1.00  0.00    -0.195 A  
HETATM   18  C   UNK A   0     -11.007   7.953  70.437  1.00  0.00    -0.251 A  
BRANCH  13  19
HETATM   19  C   UNK A   0     -10.255  11.337  68.811  1.00  0.00    -0.202 C  
HETATM   20  O   UNK A   0      -9.058  11.824  69.165  1.00  0.00    -0.373 OA 
HETATM   21  H   UNK A   0      -8.936  12.763  69.091  1.00  0.00     0.000 HD 
BRANCH  19  22
ATOM     22  N   SER A   1     -11.174  12.130  68.382  1.00  0.00    -0.243 NA 
ATOM     23  H   SER A   1     -12.041  11.765  67.986  1.00  0.00     0.000 HD 
BRANCH  22  24
ATOM     24  CA  SER A   1     -10.932  13.596  68.482  1.00  0.00    -0.267 C  
BRANCH  24  25
ATOM     25  C   SER A   1     -12.168  14.212  69.165  1.00  0.00    -0.255 C  
ATOM     26  H   SER A   1     -12.535  15.644  70.464  1.00  0.00     0.000 HD 
ATOM     27  O   SER A   1     -11.773  15.264  70.043  1.00  0.00    -0.270 OA 
ENDBRANCH  24  25
BRANCH  24  28
ATOM     28  CB  SER A   1     -10.761  14.267  67.103  1.00  0.00    -0.282 C  
ATOM     29  OG  SER A   1     -10.907  15.686  67.120  1.00  0.00    -0.312 OA 
ATOM     30  HG  SER A   1     -10.802  16.098  66.271  1.00  0.00     0.000 HD 
ENDBRANCH  24  28
ENDBRANCH  22  24
ENDBRANCH  19  22
ENDBRANCH  13  19
BRANCH  18  31
HETATM   31  C   UNK A   0     -11.731   7.424  71.651  1.00  0.00    -0.279 C  
HETATM   32  H   UNK A   0     -13.393   6.543  72.169  1.00  0.00     0.000 HD 
HETATM   33  O   UNK A   0     -12.937   6.876  71.405  1.00  0.00    -0.355 OA 
BRANCH  31  34
ATOM     34  N   SER A   1     -11.299   7.521  72.861  1.00  0.00    -0.525 NA 
ATOM     35  H   SER A   1     -11.775   8.105  73.549  1.00  0.00     0.000 HD 
BRANCH  34  36
ATOM     36  CA  SER A   1     -10.073   6.743  73.216  1.00  0.00    -0.219 C  
BRANCH  36  37
ATOM     37  CB  SER A   1      -9.074   7.706  73.863  1.00  0.00    -0.261 C  
ATOM     38  HG  SER A   1      -7.976   9.243  73.301  1.00  0.00     0.000 HD 
ATOM     39  OG  SER A   1      -8.596   8.645  72.900  1.00  0.00    -0.398 OA 
ENDBRANCH  36  37
BRANCH  36  40
ATOM     40  C   SER A   1     -10.450   5.621  74.202  1.00  0.00    -0.258 C  
ATOM     41  H   SER A   1     -11.532   3.973  74.178  1.00  0.00     0.000 HD 
ATOM     42  O   SER A   1     -11.299   4.665  73.570  1.00  0.00    -0.321 OA 
ENDBRANCH  36  40
ENDBRANCH  34  36
ENDBRANCH  31  34
ENDBRANCH  18  31
ENDBRANCH   8  10
ENDBRANCH   5   8
ENDBRANCH   1   5
TORSDOF 13
ENDMDL
MODEL       30
REMARK 921   NORMALIZED FREE ENERGY PREDICTED BY IDOCK:   -5.10 KCAL/MOL
REMARK 922        TOTAL FREE ENERGY PREDICTED BY IDOCK:   -9.90 KCAL/MOL
REMARK 923 INTER-LIGAND FREE ENERGY PREDICTED BY IDOCK:   -8.44 KCAL/MOL
REMARK 924 INTRA-LIGAND FREE ENERGY PREDICTED BY IDOCK:   -1.47 KCAL/MOL
REMARK 927      BINDING AFFINITY PREDICTED BY RF-SCORE:    0.00 PKD
ROOT
HETATM    1  C   UNK A   0     -11.565  14.353  64.341  1.00  0.00    -0.334 C  
HETATM    2  O   UNK A   0     -12.411  14.233  63.183  1.00  0.00    -1.096 OA 
HETATM    3  C   UNK A   0     -11.338  15.819  64.634  1.00  0.00    -0.343 C  
HETATM    4  H   UNK A   0     -12.553  13.312  62.999  1.00  0.00     0.000 HD 
ENDROOT
BRANCH   1   5
HETATM    5  C   UNK A   0     -12.303  13.698  65.495  1.00  0.00    -0.482 C  
HETATM    6  O   UNK A   0     -13.574  14.143  65.629  1.00  0.00    -0.671 OA 
HETATM    7  H   UNK A   0     -14.036  13.734  66.351  1.00  0.00     0.000 HD 
BRANCH   5   8
HETATM    8  N   UNK A   0     -11.786  12.774  66.236  1.00  0.00    -0.411 NA 
HETATM    9  H   UNK A   0     -12.352  11.982  66.539  1.00  0.00     0.000 HD 
BRANCH   8  10
HETATM   10  C   UNK A   0     -10.415  12.870  66.627  1.00  0.00    -0.263 A  
HETATM   11  C   UNK A   0      -9.980  13.789  67.610  1.00  0.00    -0.238 A  
HETATM   12  I   UNK A   0     -11.504  15.002  68.620  1.00  0.00    -0.347 I  
HETATM   13  C   UNK A   0      -8.636  13.807  68.039  1.00  0.00    -0.177 A  
HETATM   14  I   UNK A   0     -10.144  10.718  64.445  1.00  0.00    -0.292 I  
HETATM   15  C   UNK A   0      -7.799  12.713  67.672  1.00  0.00    -0.162 A  
HETATM   16  I   UNK A   0      -6.085  12.322  68.970  1.00  0.00    -0.098 I  
HETATM   17  C   UNK A   0      -9.487  11.905  66.130  1.00  0.00    -0.231 A  
HETATM   18  C   UNK A   0      -8.202  11.747  66.701  1.00  0.00    -0.117 A  
BRANCH  13  19
HETATM   19  C   UNK A   0      -8.032  14.971  68.761  1.00  0.00    -0.162 C  
HETATM   20  O   UNK A   0      -8.290  15.072  70.072  1.00  0.00    -0.373 OA 
HETATM   21  H   UNK A   0      -7.906  15.811  70.530  1.00  0.00     0.000 HD 
BRANCH  19  22
ATOM     22  N   SER A   1      -7.284  15.842  68.179  1.00  0.00    -0.124 NA 
ATOM     23  H   SER A   1      -6.282  15.885  68.367  1.00  0.00     0.000 HD 
BRANCH  22  24
ATOM     24  CA  SER A   1      -7.929  16.786  67.224  1.00  0.00    -0.172 C  
BRANCH  24  25
ATOM     25  C   SER A   1      -6.797  17.537  66.499  1.00  0.00    -0.247 C  
ATOM     26  H   SER A   1      -6.636  18.833  65.027  1.00  0.00     0.000 HD 
ATOM     27  O   SER A   1      -7.335  18.370  65.474  1.00  0.00    -0.534 OA 
ENDBRANCH  24  25
BRANCH  24  28
ATOM     28  CB  SER A   1      -8.824  17.827  67.928  1.00  0.00    -0.251 C  
ATOM     29  OG  SER A   1      -9.976  18.211  67.180  1.00  0.00    -0.309 OA 
ATOM     30  HG  SER A   1     -10.527  18.852  67.613  1.00  0.00     0.000 HD 
ENDBRANCH  24  28
ENDBRANCH  22  24
ENDBRANCH  19  22
ENDBRANCH  13  19
BRANCH  18  31
HETATM   31  C   UNK A   0      -7.307  10.581  66.360  1.00  0.00    -0.129 C  
HETATM   32  H   UNK A   0      -5.877  10.065  65.138  1.00  0.00     0.000 HD 
HETATM   33  O   UNK A   0      -6.440  10.799  65.353  1.00  0.00    -0.084 OA 
BRANCH  31  34
ATOM     34  N   SER A   1      -7.370   9.422  66.920  1.00  0.00    -0.090 NA 
ATOM     35  H   SER A   1      -6.575   8.783  66.908  1.00  0.00     0.000 HD 
BRANCH  34  36
ATOM     36  CA  SER A   1      -8.655   9.051  67.588  1.00  0.00    -0.120 C  
BRANCH  36  37
ATOM     37  CB  SER A   1      -9.024   7.632  67.148  1.00  0.00    -0.126 C  
ATOM     38  HG  SER A   1      -8.107   5.901  66.935  1.00  0.00     0.000 HD 
ATOM     39  OG  SER A   1      -7.879   6.781  67.209  1.00  0.00    -0.106 OA 
ENDBRANCH  36  37
BRANCH  36  40
ATOM     40  C   SER A   1      -8.469   9.106  69.116  1.00  0.00    -0.132 C  
ATOM     41  H   SER A   1      -9.202  10.134  70.630  1.00  0.00     0.000 HD 
ATOM     42  O   SER A   1      -9.317  10.101  69.688  1.00  0.00    -0.218 OA 
ENDBRANCH  36  40
ENDBRANCH  34  36
ENDBRANCH  31  34
ENDBRANCH  18  31
ENDBRANCH   8  10
ENDBRANCH   5   8
ENDBRANCH   1   5
TORSDOF 13
ENDMDL
MODEL       31
REMARK 921   NORMALIZED FREE ENERGY PREDICTED BY IDOCK:   -5.09 KCAL/MOL
REMARK 922        TOTAL FREE ENERGY PREDICTED BY IDOCK:   -9.89 KCAL/MOL
REMARK 923 INTER-LIGAND FREE ENERGY PREDICTED BY IDOCK:   -8.67 KCAL/MOL
REMARK 924 INTRA-LIGAND FREE ENERGY PREDICTED BY IDOCK:   -1.22 KCAL/MOL
REMARK 927      BINDING AFFINITY PREDICTED BY RF-SCORE:    0.00 PKD
ROOT
HETATM    1  C   UNK A   0     -11.298   9.116  71.697  1.00  0.00    -0.376 C  
HETATM    2  O   UNK A   0     -12.292   8.163  71.281  1.00  0.00    -0.307 OA 
HETATM    3  C   UNK A   0     -10.126   8.373  72.298  1.00  0.00    -0.382 C  
HETATM    4  H   UNK A   0     -13.029   8.630  70.904  1.00  0.00     0.000 HD 
ENDROOT
BRANCH   1   5
HETATM    5  C   UNK A   0     -10.857   9.864  70.450  1.00  0.00    -0.319 C  
HETATM    6  O   UNK A   0      -9.541  10.178  70.462  1.00  0.00    -0.328 OA 
HETATM    7  H   UNK A   0      -9.265  10.646  69.682  1.00  0.00     0.000 HD 
BRANCH   5   8
HETATM    8  N   UNK A   0     -11.648  10.123  69.461  1.00  0.00    -0.432 NA 
HETATM    9  H   UNK A   0     -12.652   9.972  69.554  1.00  0.00     0.000 HD 
BRANCH   8  10
HETATM   10  C   UNK A   0     -11.105  10.621  68.237  1.00  0.00    -0.279 A  
HETATM   11  C   UNK A   0     -10.415   9.784  67.329  1.00  0.00    -0.261 A  
HETATM   12  I   UNK A   0     -10.299   7.644  67.799  1.00  0.00    -0.248 I  
HETATM   13  C   UNK A   0      -9.961  10.281  66.089  1.00  0.00    -0.300 A  
HETATM   14  I   UNK A   0     -12.215  13.254  69.379  1.00  0.00     0.186 I  
HETATM   15  C   UNK A   0     -10.447  11.550  65.656  1.00  0.00    -0.266 A  
HETATM   16  I   UNK A   0     -10.441  11.906  63.500  1.00  0.00    -0.426 I  
HETATM   17  C   UNK A   0     -11.404  11.961  67.845  1.00  0.00    -0.291 A  
HETATM   18  C   UNK A   0     -11.167  12.420  66.527  1.00  0.00    -0.368 A  
BRANCH  13  19
HETATM   19  C   UNK A   0      -8.914   9.589  65.273  1.00  0.00    -0.200 C  
HETATM   20  O   UNK A   0      -9.254   8.419  64.715  1.00  0.00    -0.329 OA 
HETATM   21  H   UNK A   0      -8.590   7.980  64.197  1.00  0.00     0.000 HD 
BRANCH  19  22
ATOM     22  N   SER A   1      -7.738  10.076  65.087  1.00  0.00    -0.132 NA 
ATOM     23  H   SER A   1      -7.341  10.154  64.150  1.00  0.00     0.000 HD 
BRANCH  22  24
ATOM     24  CA  SER A   1      -6.972  10.524  66.284  1.00  0.00    -0.128 C  
BRANCH  24  25
ATOM     25  C   SER A   1      -5.615  11.051  65.781  1.00  0.00    -0.105 C  
ATOM     26  H   SER A   1      -4.374  12.509  66.236  1.00  0.00     0.000 HD 
ATOM     27  O   SER A   1      -5.211  12.184  66.546  1.00  0.00    -0.335 OA 
ENDBRANCH  24  25
BRANCH  24  28
ATOM     28  CB  SER A   1      -6.703   9.378  67.282  1.00  0.00    -0.075 C  
ATOM     29  OG  SER A   1      -7.173   9.631  68.605  1.00  0.00    -0.071 OA 
ATOM     30  HG  SER A   1      -7.008   8.926  69.219  1.00  0.00     0.000 HD 
ENDBRANCH  24  28
ENDBRANCH  22  24
ENDBRANCH  19  22
ENDBRANCH  13  19
BRANCH  18  31
HETATM   31  C   UNK A   0     -11.699  13.741  66.027  1.00  0.00    -0.363 C  
HETATM   32  H   UNK A   0     -13.334  14.571  65.362  1.00  0.00     0.000 HD 
HETATM   33  O   UNK A   0     -12.999  13.739  65.677  1.00  0.00    -0.574 OA 
BRANCH  31  34
ATOM     34  N   SER A   1     -10.987  14.804  65.869  1.00  0.00    -0.327 NA 
ATOM     35  H   SER A   1     -11.009  15.331  64.996  1.00  0.00     0.000 HD 
BRANCH  34  36
ATOM     36  CA  SER A   1     -10.130  15.233  67.016  1.00  0.00    -0.248 C  
BRANCH  36  37
ATOM     37  CB  SER A   1      -8.707  15.438  66.490  1.00  0.00    -0.300 C  
ATOM     38  HG  SER A   1      -7.705  16.845  65.542  1.00  0.00     0.000 HD 
ATOM     39  OG  SER A   1      -8.588  16.718  65.869  1.00  0.00    -0.500 OA 
ENDBRANCH  36  37
BRANCH  36  40
ATOM     40  C   SER A   1     -10.680  16.549  67.598  1.00  0.00    -0.311 C  
ATOM     41  H   SER A   1     -10.713  17.458  69.347  1.00  0.00     0.000 HD 
ATOM     42  O   SER A   1     -10.374  16.647  68.988  1.00  0.00    -0.276 OA 
ENDBRANCH  36  40
ENDBRANCH  34  36
ENDBRANCH  31  34
ENDBRANCH  18  31
ENDBRANCH   8  10
ENDBRANCH   5   8
ENDBRANCH   1   5
TORSDOF 13
ENDMDL
MODEL       32
REMARK 921   NORMALIZED FREE ENERGY PREDICTED BY IDOCK:   -5.09 KCAL/MOL
REMARK 922        TOTAL FREE ENERGY PREDICTED BY IDOCK:   -9.89 KCAL/MOL
REMARK 923 INTER-LIGAND FREE ENERGY PREDICTED BY IDOCK:   -8.60 KCAL/MOL
REMARK 924 INTRA-LIGAND FREE ENERGY PREDICTED BY IDOCK:   -1.29 KCAL/MOL
REMARK 927      BINDING AFFINITY PREDICTED BY RF-SCORE:    0.00 PKD
ROOT
HETATM    1  C   UNK A   0     -12.660  12.719  64.783  1.00  0.00    -0.446 C  
HETATM    2  O   UNK A   0     -13.012  14.104  64.951  1.00  0.00    -0.705 OA 
HETATM    3  C   UNK A   0     -12.023  12.535  63.424  1.00  0.00    -0.602 C  
HETATM    4  H   UNK A   0     -13.413  14.219  65.804  1.00  0.00     0.000 HD 
ENDROOT
BRANCH   1   5
HETATM    5  C   UNK A   0     -11.662  12.383  65.878  1.00  0.00    -0.419 C  
HETATM    6  O   UNK A   0     -12.247  12.181  67.081  1.00  0.00    -0.507 OA 
HETATM    7  H   UNK A   0     -11.622  11.971  67.766  1.00  0.00     0.000 HD 
BRANCH   5   8
HETATM    8  N   UNK A   0     -10.394  12.251  65.665  1.00  0.00    -0.251 NA 
HETATM    9  H   UNK A   0     -10.042  12.133  64.716  1.00  0.00     0.000 HD 
BRANCH   8  10
HETATM   10  C   UNK A   0      -9.489  12.272  66.770  1.00  0.00    -0.222 A  
HETATM   11  C   UNK A   0      -9.085  11.087  67.429  1.00  0.00    -0.141 A  
HETATM   12  I   UNK A   0      -9.803   9.176  66.626  1.00  0.00    -0.330 I  
HETATM   13  C   UNK A   0      -8.126  11.126  68.464  1.00  0.00    -0.146 A  
HETATM   14  I   UNK A   0      -9.705  15.300  66.267  1.00  0.00    -0.400 I  
HETATM   15  C   UNK A   0      -7.378  12.326  68.641  1.00  0.00    -0.106 A  
HETATM   16  I   UNK A   0      -5.423  12.119  69.595  1.00  0.00    -0.117 I  
HETATM   17  C   UNK A   0      -8.852  13.502  67.117  1.00  0.00    -0.226 A  
HETATM   18  C   UNK A   0      -7.732  13.541  67.982  1.00  0.00    -0.143 A  
BRANCH  13  19
HETATM   19  C   UNK A   0      -7.946  10.008  69.443  1.00  0.00    -0.145 C  
HETATM   20  O   UNK A   0      -7.094   9.032  69.100  1.00  0.00    -0.061 OA 
HETATM   21  H   UNK A   0      -6.979   8.323  69.722  1.00  0.00     0.000 HD 
BRANCH  19  22
ATOM     22  N   SER A   1      -8.557   9.965  70.575  1.00  0.00    -0.367 NA 
ATOM     23  H   SER A   1      -8.393  10.675  71.289  1.00  0.00     0.000 HD 
BRANCH  22  24
ATOM     24  CA  SER A   1      -9.511   8.845  70.810  1.00  0.00    -0.228 C  
BRANCH  24  25
ATOM     25  C   SER A   1     -10.904   9.343  70.382  1.00  0.00    -0.269 C  
ATOM     26  H   SER A   1     -12.318  10.492  71.126  1.00  0.00     0.000 HD 
ATOM     27  O   SER A   1     -11.458  10.186  71.390  1.00  0.00    -0.327 OA 
ENDBRANCH  24  25
BRANCH  24  28
ATOM     28  CB  SER A   1      -9.584   8.426  72.293  1.00  0.00    -0.304 C  
ATOM     29  OG  SER A   1     -10.832   7.853  72.679  1.00  0.00    -0.306 OA 
ATOM     30  HG  SER A   1     -10.877   7.595  73.592  1.00  0.00     0.000 HD 
ENDBRANCH  24  28
ENDBRANCH  22  24
ENDBRANCH  19  22
ENDBRANCH  13  19
BRANCH  18  31
HETATM   31  C   UNK A   0      -6.898  14.785  68.164  1.00  0.00    -0.125 C  
HETATM   32  H   UNK A   0      -5.349  15.703  67.413  1.00  0.00     0.000 HD 
HETATM   33  O   UNK A   0      -5.874  14.920  67.299  1.00  0.00    -0.310 OA 
BRANCH  31  34
ATOM     34  N   SER A   1      -7.072  15.653  69.100  1.00  0.00    -0.154 NA 
ATOM     35  H   SER A   1      -7.591  15.422  69.948  1.00  0.00     0.000 HD 
BRANCH  34  36
ATOM     36  CA  SER A   1      -6.484  17.012  68.895  1.00  0.00    -0.189 C  
BRANCH  36  37
ATOM     37  CB  SER A   1      -7.636  17.999  68.687  1.00  0.00    -0.290 C  
ATOM     38  HG  SER A   1      -7.892  19.952  68.736  1.00  0.00     0.000 HD 
ATOM     39  OG  SER A   1      -7.177  19.339  68.864  1.00  0.00    -0.332 OA 
ENDBRANCH  36  37
BRANCH  36  40
ATOM     40  C   SER A   1      -5.661  17.403  70.137  1.00  0.00    -0.246 C  
ATOM     41  H   SER A   1      -4.669  16.480  71.569  1.00  0.00     0.000 HD 
ATOM     42  O   SER A   1      -5.177  16.239  70.803  1.00  0.00    -0.185 OA 
ENDBRANCH  36  40
ENDBRANCH  34  36
ENDBRANCH  31  34
ENDBRANCH  18  31
ENDBRANCH   8  10
ENDBRANCH   5   8
ENDBRANCH   1   5
TORSDOF 13
ENDMDL
MODEL       33
REMARK 921   NORMALIZED FREE ENERGY PREDICTED BY IDOCK:   -5.03 KCAL/MOL
REMARK 922        TOTAL FREE ENERGY PREDICTED BY IDOCK:   -9.79 KCAL/MOL
REMARK 923 INTER-LIGAND FREE ENERGY PREDICTED BY IDOCK:   -8.59 KCAL/MOL
REMARK 924 INTRA-LIGAND FREE ENERGY PREDICTED BY IDOCK:   -1.19 KCAL/MOL
REMARK 927      BINDING AFFINITY PREDICTED BY RF-SCORE:    0.00 PKD
ROOT
HETATM    1  C   UNK A   0     -11.765   9.125  71.372  1.00  0.00    -0.343 C  
HETATM    2  O   UNK A   0     -12.888   8.345  70.924  1.00  0.00    -0.503 OA 
HETATM    3  C   UNK A   0     -10.835   8.236  72.167  1.00  0.00    -0.390 C  
HETATM    4  H   UNK A   0     -13.472   8.904  70.425  1.00  0.00     0.000 HD 
ENDROOT
BRANCH   1   5
HETATM    5  C   UNK A   0     -11.059   9.636  70.127  1.00  0.00    -0.269 C  
HETATM    6  O   UNK A   0      -9.756   9.929  70.342  1.00  0.00    -0.349 OA 
HETATM    7  H   UNK A   0      -9.315  10.249  69.564  1.00  0.00     0.000 HD 
BRANCH   5   8
HETATM    8  N   UNK A   0     -11.634   9.728  68.974  1.00  0.00    -0.455 NA 
HETATM    9  H   UNK A   0     -12.643   9.608  68.892  1.00  0.00     0.000 HD 
BRANCH   8  10
HETATM   10  C   UNK A   0     -10.846   9.998  67.813  1.00  0.00    -0.282 A  
HETATM   11  C   UNK A   0     -10.183   8.969  67.103  1.00  0.00    -0.265 A  
HETATM   12  I   UNK A   0     -10.497   6.903  67.768  1.00  0.00    -0.354 I  
HETATM   13  C   UNK A   0      -9.479   9.251  65.912  1.00  0.00    -0.325 A  
HETATM   14  I   UNK A   0     -11.649  12.880  68.531  1.00  0.00    -0.376 I  
HETATM   15  C   UNK A   0      -9.678  10.522  65.299  1.00  0.00    -0.270 A  
HETATM   16  I   UNK A   0      -9.304  10.632  63.149  1.00  0.00    -0.417 I  
HETATM   17  C   UNK A   0     -10.856  11.316  67.264  1.00  0.00    -0.267 A  
HETATM   18  C   UNK A   0     -10.359  11.584  65.966  1.00  0.00    -0.290 A  
BRANCH  13  19
HETATM   19  C   UNK A   0      -8.458   8.320  65.336  1.00  0.00    -0.172 C  
HETATM   20  O   UNK A   0      -8.911   7.326  64.560  1.00  0.00    -0.225 OA 
HETATM   21  H   UNK A   0      -8.262   6.736  64.195  1.00  0.00     0.000 HD 
BRANCH  19  22
ATOM     22  N   SER A   1      -7.195   8.451  65.549  1.00  0.00    -0.077 NA 
ATOM     23  H   SER A   1      -6.581   8.853  64.840  1.00  0.00     0.000 HD 
BRANCH  22  24
ATOM     24  CA  SER A   1      -6.659   7.996  66.862  1.00  0.00    -0.057 C  
BRANCH  24  25
ATOM     25  C   SER A   1      -5.417   8.855  67.164  1.00  0.00    -0.041 C  
ATOM     26  H   SER A   1      -4.427   9.452  68.757  1.00  0.00     0.000 HD 
ATOM     27  O   SER A   1      -5.193   8.922  68.571  1.00  0.00    -0.036 OA 
ENDBRANCH  24  25
BRANCH  24  28
ATOM     28  CB  SER A   1      -6.227   6.515  66.849  1.00  0.00    -0.040 C  
ATOM     29  OG  SER A   1      -6.804   5.727  67.888  1.00  0.00    -0.057 OA 
ATOM     30  HG  SER A   1      -6.538   4.815  67.880  1.00  0.00     0.000 HD 
ENDBRANCH  24  28
ENDBRANCH  22  24
ENDBRANCH  19  22
ENDBRANCH  13  19
BRANCH  18  31
HETATM   31  C   UNK A   0     -10.584  12.906  65.275  1.00  0.00    -0.297 C  
HETATM   32  H   UNK A   0     -11.896  13.851  64.183  1.00  0.00     0.000 HD 
HETATM   33  O   UNK A   0     -11.754  13.018  64.619  1.00  0.00    -0.330 OA 
BRANCH  31  34
ATOM     34  N   SER A   1      -9.725  13.867  65.234  1.00  0.00    -0.572 NA 
ATOM     35  H   SER A   1      -8.983  13.885  64.534  1.00  0.00     0.000 HD 
BRANCH  34  36
ATOM     36  CA  SER A   1      -9.859  14.951  66.253  1.00  0.00    -0.294 C  
BRANCH  36  37
ATOM     37  CB  SER A   1      -8.496  15.137  66.927  1.00  0.00    -0.244 C  
ATOM     38  HG  SER A   1      -7.201  14.016  67.902  1.00  0.00     0.000 HD 
ATOM     39  OG  SER A   1      -8.047  13.901  67.483  1.00  0.00    -0.158 OA 
ENDBRANCH  36  37
BRANCH  36  40
ATOM     40  C   SER A   1     -10.292  16.254  65.556  1.00  0.00    -0.338 C  
ATOM     41  H   SER A   1      -9.522  18.034  65.201  1.00  0.00     0.000 HD 
ATOM     42  O   SER A   1      -9.255  17.231  65.631  1.00  0.00    -0.501 OA 
ENDBRANCH  36  40
ENDBRANCH  34  36
ENDBRANCH  31  34
ENDBRANCH  18  31
ENDBRANCH   8  10
ENDBRANCH   5   8
ENDBRANCH   1   5
TORSDOF 13
ENDMDL
MODEL       34
REMARK 921   NORMALIZED FREE ENERGY PREDICTED BY IDOCK:   -4.99 KCAL/MOL
REMARK 922        TOTAL FREE ENERGY PREDICTED BY IDOCK:   -9.72 KCAL/MOL
REMARK 923 INTER-LIGAND FREE ENERGY PREDICTED BY IDOCK:   -8.45 KCAL/MOL
REMARK 924 INTRA-LIGAND FREE ENERGY PREDICTED BY IDOCK:   -1.27 KCAL/MOL
REMARK 927      BINDING AFFINITY PREDICTED BY RF-SCORE:    0.00 PKD
ROOT
HETATM    1  C   UNK A   0      -8.387  17.882  68.225  1.00  0.00    -0.284 C  
HETATM    2  O   UNK A   0      -7.215  18.559  68.713  1.00  0.00    -0.283 OA 
HETATM    3  C   UNK A   0      -9.574  18.811  68.338  1.00  0.00    -0.409 C  
HETATM    4  H   UNK A   0      -6.469  17.975  68.642  1.00  0.00     0.000 HD 
ENDROOT
BRANCH   1   5
HETATM    5  C   UNK A   0      -8.125  17.546  66.766  1.00  0.00    -0.244 C  
HETATM    6  O   UNK A   0      -8.202  18.625  65.954  1.00  0.00    -0.488 OA 
HETATM    7  H   UNK A   0      -8.039  18.415  65.042  1.00  0.00     0.000 HD 
BRANCH   5   8
HETATM    8  N   UNK A   0      -7.809  16.361  66.357  1.00  0.00    -0.295 NA 
HETATM    9  H   UNK A   0      -7.128  16.242  65.607  1.00  0.00     0.000 HD 
BRANCH   8  10
HETATM   10  C   UNK A   0      -8.420  15.220  66.962  1.00  0.00    -0.228 A  
HETATM   11  C   UNK A   0      -9.773  14.882  66.725  1.00  0.00    -0.251 A  
HETATM   12  I   UNK A   0     -10.895  16.105  65.290  1.00  0.00    -0.023 I  
HETATM   13  C   UNK A   0     -10.330  13.704  67.268  1.00  0.00    -0.249 A  
HETATM   14  I   UNK A   0      -5.633  15.014  68.250  1.00  0.00    -0.137 I  
HETATM   15  C   UNK A   0      -9.442  12.735  67.820  1.00  0.00    -0.205 A  
HETATM   16  I   UNK A   0     -10.163  10.672  67.863  1.00  0.00    -0.258 I  
HETATM   17  C   UNK A   0      -7.603  14.309  67.698  1.00  0.00    -0.176 A  
HETATM   18  C   UNK A   0      -8.065  13.021  68.058  1.00  0.00    -0.157 A  
BRANCH  13  19
HETATM   19  C   UNK A   0     -11.806  13.487  67.387  1.00  0.00    -0.384 C  
HETATM   20  O   UNK A   0     -12.400  12.798  66.402  1.00  0.00    -0.500 OA 
HETATM   21  H   UNK A   0     -13.336  12.660  66.478  1.00  0.00     0.000 HD 
BRANCH  19  22
ATOM     22  N   SER A   1     -12.498  13.918  68.383  1.00  0.00    -0.345 NA 
ATOM     23  H   SER A   1     -13.482  14.161  68.274  1.00  0.00     0.000 HD 
BRANCH  22  24
ATOM     24  CA  SER A   1     -11.814  14.050  69.700  1.00  0.00    -0.330 C  
BRANCH  24  25
ATOM     25  C   SER A   1     -12.309  12.889  70.583  1.00  0.00    -0.302 C  
ATOM     26  H   SER A   1     -13.115  12.673  72.366  1.00  0.00     0.000 HD 
ATOM     27  O   SER A   1     -12.810  13.389  71.821  1.00  0.00    -0.334 OA 
ENDBRANCH  24  25
BRANCH  24  28
ATOM     28  CB  SER A   1     -12.151  15.375  70.415  1.00  0.00    -0.372 C  
ATOM     29  OG  SER A   1     -13.499  15.807  70.244  1.00  0.00    -0.719 OA 
ATOM     30  HG  SER A   1     -13.706  16.623  70.685  1.00  0.00     0.000 HD 
ENDBRANCH  24  28
ENDBRANCH  22  24
ENDBRANCH  19  22
ENDBRANCH  13  19
BRANCH  18  31
HETATM   31  C   UNK A   0      -7.144  11.960  68.611  1.00  0.00    -0.102 C  
HETATM   32  H   UNK A   0      -5.784  10.680  68.048  1.00  0.00     0.000 HD 
HETATM   33  O   UNK A   0      -6.364  11.347  67.700  1.00  0.00    -0.055 OA 
BRANCH  31  34
ATOM     34  N   SER A   1      -7.114  11.589  69.845  1.00  0.00    -0.372 NA 
ATOM     35  H   SER A   1      -7.724  12.014  70.542  1.00  0.00     0.000 HD 
BRANCH  34  36
ATOM     36  CA  SER A   1      -6.147  10.509  70.212  1.00  0.00    -0.115 C  
BRANCH  36  37
ATOM     37  CB  SER A   1      -5.278  11.025  71.361  1.00  0.00    -0.036 C  
ATOM     38  HG  SER A   1      -4.972  12.738  72.286  1.00  0.00     0.000 HD 
ATOM     39  OG  SER A   1      -5.512  12.418  71.573  1.00  0.00    -0.377 OA 
ENDBRANCH  36  37
BRANCH  36  40
ATOM     40  C   SER A   1      -6.927   9.256  70.652  1.00  0.00    -0.101 C  
ATOM     41  H   SER A   1      -7.553   8.457  72.343  1.00  0.00     0.000 HD 
ATOM     42  O   SER A   1      -7.072   9.230  72.071  1.00  0.00    -0.317 OA 
ENDBRANCH  36  40
ENDBRANCH  34  36
ENDBRANCH  31  34
ENDBRANCH  18  31
ENDBRANCH   8  10
ENDBRANCH   5   8
ENDBRANCH   1   5
TORSDOF 13
ENDMDL
MODEL       35
REMARK 921   NORMALIZED FREE ENERGY PREDICTED BY IDOCK:   -4.98 KCAL/MOL
REMARK 922        TOTAL FREE ENERGY PREDICTED BY IDOCK:   -9.70 KCAL/MOL
REMARK 923 INTER-LIGAND FREE ENERGY PREDICTED BY IDOCK:   -8.76 KCAL/MOL
REMARK 924 INTRA-LIGAND FREE ENERGY PREDICTED BY IDOCK:   -0.94 KCAL/MOL
REMARK 927      BINDING AFFINITY PREDICTED BY RF-SCORE:    0.00 PKD
ROOT
HETATM    1  C   UNK A   0      -7.520   7.405  63.315  1.00  0.00    -0.101 C  
HETATM    2  O   UNK A   0      -8.587   7.293  62.356  1.00  0.00    -0.367 OA 
HETATM    3  C   UNK A   0      -6.532   8.442  62.831  1.00  0.00    -0.087 C  
HETATM    4  H   UNK A   0      -9.208   6.641  62.660  1.00  0.00     0.000 HD 
ENDROOT
BRANCH   1   5
HETATM    5  C   UNK A   0      -8.149   7.853  64.623  1.00  0.00    -0.125 C  
HETATM    6  O   UNK A   0      -8.941   6.908  65.179  1.00  0.00    -0.359 OA 
HETATM    7  H   UNK A   0      -9.335   7.188  65.997  1.00  0.00     0.000 HD 
BRANCH   5   8
HETATM    8  N   UNK A   0      -7.907   8.999  65.170  1.00  0.00    -0.104 NA 
HETATM    9  H   UNK A   0      -7.012   9.463  65.015  1.00  0.00     0.000 HD 
BRANCH   8  10
HETATM   10  C   UNK A   0      -8.901   9.610  65.995  1.00  0.00    -0.152 A  
HETATM   11  C   UNK A   0      -9.009   9.321  67.376  1.00  0.00    -0.124 A  
HETATM   12  I   UNK A   0      -7.515   7.979  68.258  1.00  0.00    -0.104 I  
HETATM   13  C   UNK A   0      -9.945  10.000  68.185  1.00  0.00    -0.176 A  
HETATM   14  I   UNK A   0      -9.682  10.858  63.293  1.00  0.00    -0.378 I  
HETATM   15  C   UNK A   0     -10.577  11.161  67.652  1.00  0.00    -0.211 A  
HETATM   16  I   UNK A   0     -11.314  12.618  69.103  1.00  0.00    -0.257 I  
HETATM   17  C   UNK A   0      -9.703  10.657  65.447  1.00  0.00    -0.252 A  
HETATM   18  C   UNK A   0     -10.480  11.506  66.271  1.00  0.00    -0.294 A  
BRANCH  13  19
HETATM   19  C   UNK A   0     -10.378   9.489  69.524  1.00  0.00    -0.217 C  
HETATM   20  O   UNK A   0      -9.717   9.951  70.593  1.00  0.00    -0.351 OA 
HETATM   21  H   UNK A   0      -9.992   9.627  71.443  1.00  0.00     0.000 HD 
BRANCH  19  22
ATOM     22  N   SER A   1     -11.346   8.654  69.673  1.00  0.00    -0.434 NA 
ATOM     23  H   SER A   1     -12.237   8.789  69.195  1.00  0.00     0.000 HD 
BRANCH  22  24
ATOM     24  CA  SER A   1     -11.124   7.483  70.567  1.00  0.00    -0.259 C  
BRANCH  24  25
ATOM     25  C   SER A   1     -11.428   6.220  69.740  1.00  0.00    -0.379 C  
ATOM     26  H   SER A   1     -11.368   5.684  67.847  1.00  0.00     0.000 HD 
ATOM     27  O   SER A   1     -11.180   6.463  68.358  1.00  0.00    -0.320 OA 
ENDBRANCH  24  25
BRANCH  24  28
ATOM     28  CB  SER A   1     -12.055   7.488  71.797  1.00  0.00    -0.308 C  
ATOM     29  OG  SER A   1     -12.177   8.758  72.435  1.00  0.00    -0.370 OA 
ATOM     30  HG  SER A   1     -12.750   8.761  73.192  1.00  0.00     0.000 HD 
ENDBRANCH  24  28
ENDBRANCH  22  24
ENDBRANCH  19  22
ENDBRANCH  13  19
BRANCH  18  31
HETATM   31  C   UNK A   0     -11.131  12.762  65.745  1.00  0.00    -0.285 C  
HETATM   32  H   UNK A   0     -12.839  13.426  65.076  1.00  0.00     0.000 HD 
HETATM   33  O   UNK A   0     -12.429  12.636  65.407  1.00  0.00    -0.601 OA 
BRANCH  31  34
ATOM     34  N   SER A   1     -10.519  13.880  65.556  1.00  0.00    -0.308 NA 
ATOM     35  H   SER A   1      -9.541  13.907  65.269  1.00  0.00     0.000 HD 
BRANCH  34  36
ATOM     36  CA  SER A   1     -11.301  15.135  65.776  1.00  0.00    -0.238 C  
BRANCH  36  37
ATOM     37  CB  SER A   1     -10.897  15.711  67.136  1.00  0.00    -0.297 C  
ATOM     38  HG  SER A   1     -10.033  17.347  67.814  1.00  0.00     0.000 HD 
ATOM     39  OG  SER A   1     -10.284  16.990  66.970  1.00  0.00    -0.290 OA 
ENDBRANCH  36  37
BRANCH  36  40
ATOM     40  C   SER A   1     -10.977  16.139  64.653  1.00  0.00    -0.245 C  
ATOM     41  H   SER A   1     -11.755  16.680  62.924  1.00  0.00     0.000 HD 
ATOM     42  O   SER A   1     -11.954  16.061  63.616  1.00  0.00    -0.765 OA 
ENDBRANCH  36  40
ENDBRANCH  34  36
ENDBRANCH  31  34
ENDBRANCH  18  31
ENDBRANCH   8  10
ENDBRANCH   5   8
ENDBRANCH   1   5
TORSDOF 13
ENDMDL
MODEL       36
REMARK 921   NORMALIZED FREE ENERGY PREDICTED BY IDOCK:   -4.98 KCAL/MOL
REMARK 922        TOTAL FREE ENERGY PREDICTED BY IDOCK:   -9.70 KCAL/MOL
REMARK 923 INTER-LIGAND FREE ENERGY PREDICTED BY IDOCK:   -8.44 KCAL/MOL
REMARK 924 INTRA-LIGAND FREE ENERGY PREDICTED BY IDOCK:   -1.26 KCAL/MOL
REMARK 927      BINDING AFFINITY PREDICTED BY RF-SCORE:    0.00 PKD
ROOT
HETATM    1  C   UNK A   0     -10.305   5.008  69.570  1.00  0.00    -0.161 C  
HETATM    2  O   UNK A   0      -9.442   4.276  68.681  1.00  0.00    -0.142 OA 
HETATM    3  C   UNK A   0      -9.695   5.012  70.954  1.00  0.00    -0.256 C  
HETATM    4  H   UNK A   0      -9.826   4.273  67.812  1.00  0.00     0.000 HD 
ENDROOT
BRANCH   1   5
HETATM    5  C   UNK A   0     -10.390   6.426  69.033  1.00  0.00    -0.199 C  
HETATM    6  O   UNK A   0     -11.491   6.638  68.276  1.00  0.00    -0.560 OA 
HETATM    7  H   UNK A   0     -11.545   7.525  67.940  1.00  0.00     0.000 HD 
BRANCH   5   8
HETATM    8  N   UNK A   0      -9.528   7.345  69.317  1.00  0.00    -0.154 NA 
HETATM    9  H   UNK A   0      -8.764   7.150  69.964  1.00  0.00     0.000 HD 
BRANCH   8  10
HETATM   10  C   UNK A   0      -9.652   8.637  68.721  1.00  0.00    -0.156 A  
HETATM   11  C   UNK A   0     -10.389   9.677  69.335  1.00  0.00    -0.213 A  
HETATM   12  I   UNK A   0     -11.250   9.288  71.314  1.00  0.00    -0.470 I  
HETATM   13  C   UNK A   0     -10.427  10.969  68.766  1.00  0.00    -0.222 A  
HETATM   14  I   UNK A   0      -8.008   7.247  66.523  1.00  0.00    -0.127 I  
HETATM   15  C   UNK A   0      -9.498  11.274  67.729  1.00  0.00    -0.170 A  
HETATM   16  I   UNK A   0      -8.994  13.384  67.467  1.00  0.00    -0.247 I  
HETATM   17  C   UNK A   0      -8.883   8.935  67.555  1.00  0.00    -0.130 A  
HETATM   18  C   UNK A   0      -8.717  10.263  67.093  1.00  0.00    -0.131 A  
BRANCH  13  19
HETATM   19  C   UNK A   0     -11.468  11.982  69.129  1.00  0.00    -0.300 C  
HETATM   20  O   UNK A   0     -12.529  12.080  68.316  1.00  0.00    -0.103 OA 
HETATM   21  H   UNK A   0     -13.189  12.723  68.546  1.00  0.00     0.000 HD 
BRANCH  19  22
ATOM     22  N   SER A   1     -11.382  12.729  70.173  1.00  0.00    -0.476 NA 
ATOM     23  H   SER A   1     -10.489  12.873  70.646  1.00  0.00     0.000 HD 
BRANCH  22  24
ATOM     24  CA  SER A   1     -12.628  13.376  70.671  1.00  0.00    -0.253 C  
BRANCH  24  25
ATOM     25  C   SER A   1     -12.280  14.842  70.987  1.00  0.00    -0.317 C  
ATOM     26  H   SER A   1     -13.248  16.543  71.201  1.00  0.00     0.000 HD 
ATOM     27  O   SER A   1     -13.463  15.638  71.006  1.00  0.00    -0.575 OA 
ENDBRANCH  24  25
BRANCH  24  28
ATOM     28  CB  SER A   1     -13.165  12.721  71.960  1.00  0.00    -0.436 C  
ATOM     29  OG  SER A   1     -14.136  13.503  72.654  1.00  0.00    -0.762 OA 
ATOM     30  HG  SER A   1     -14.467  13.099  73.448  1.00  0.00     0.000 HD 
ENDBRANCH  24  28
ENDBRANCH  22  24
ENDBRANCH  19  22
ENDBRANCH  13  19
BRANCH  18  31
HETATM   31  C   UNK A   0      -7.718  10.624  66.022  1.00  0.00    -0.151 C  
HETATM   32  H   UNK A   0      -5.802  10.871  65.748  1.00  0.00     0.000 HD 
HETATM   33  O   UNK A   0      -6.432  10.643  66.422  1.00  0.00    -0.097 OA 
BRANCH  31  34
ATOM     34  N   SER A   1      -8.026  10.959  64.816  1.00  0.00    -0.357 NA 
ATOM     35  H   SER A   1      -7.592  11.763  64.362  1.00  0.00     0.000 HD 
BRANCH  34  36
ATOM     36  CA  SER A   1      -9.043  10.121  64.110  1.00  0.00    -0.251 C  
BRANCH  36  37
ATOM     37  CB  SER A   1     -10.009  11.063  63.386  1.00  0.00    -0.380 C  
ATOM     38  HG  SER A   1     -10.672  12.905  63.610  1.00  0.00     0.000 HD 
ATOM     39  OG  SER A   1     -10.072  12.321  64.059  1.00  0.00    -0.340 OA 
ENDBRANCH  36  37
BRANCH  36  40
ATOM     40  C   SER A   1      -8.333   9.203  63.098  1.00  0.00    -0.193 C  
ATOM     41  H   SER A   1      -6.778   9.305  61.890  1.00  0.00     0.000 HD 
ATOM     42  O   SER A   1      -7.216   9.871  62.514  1.00  0.00    -0.113 OA 
ENDBRANCH  36  40
ENDBRANCH  34  36
ENDBRANCH  31  34
ENDBRANCH  18  31
ENDBRANCH   8  10
ENDBRANCH   5   8
ENDBRANCH   1   5
TORSDOF 13
ENDMDL
MODEL       37
REMARK 921   NORMALIZED FREE ENERGY PREDICTED BY IDOCK:   -4.96 KCAL/MOL
REMARK 922        TOTAL FREE ENERGY PREDICTED BY IDOCK:   -9.67 KCAL/MOL
REMARK 923 INTER-LIGAND FREE ENERGY PREDICTED BY IDOCK:   -8.40 KCAL/MOL
REMARK 924 INTRA-LIGAND FREE ENERGY PREDICTED BY IDOCK:   -1.27 KCAL/MOL
REMARK 927      BINDING AFFINITY PREDICTED BY RF-SCORE:    0.00 PKD
ROOT
HETATM    1  C   UNK A   0     -10.001   6.684  73.030  1.00  0.00    -0.174 C  
HETATM    2  O   UNK A   0     -10.375   7.334  74.257  1.00  0.00    -0.429 OA 
HETATM    3  C   UNK A   0      -8.937   5.651  73.326  1.00  0.00    -0.127 C  
HETATM    4  H   UNK A   0     -11.044   7.983  74.071  1.00  0.00     0.000 HD 
ENDROOT
BRANCH   1   5
HETATM    5  C   UNK A   0     -11.250   6.006  72.493  1.00  0.00    -0.290 C  
HETATM    6  O   UNK A   0     -11.893   5.269  73.427  1.00  0.00    -0.463 OA 
HETATM    7  H   UNK A   0     -12.674   4.844  73.092  1.00  0.00     0.000 HD 
BRANCH   5   8
HETATM    8  N   UNK A   0     -11.679   6.163  71.284  1.00  0.00    -0.227 NA 
HETATM    9  H   UNK A   0     -12.439   5.583  70.929  1.00  0.00     0.000 HD 
BRANCH   8  10
HETATM   10  C   UNK A   0     -11.081   7.156  70.448  1.00  0.00    -0.280 A  
HETATM   11  C   UNK A   0     -11.510   8.504  70.464  1.00  0.00    -0.182 A  
HETATM   12  I   UNK A   0     -13.059   9.067  71.912  1.00  0.00    -0.576 I  
HETATM   13  C   UNK A   0     -10.848   9.482  69.690  1.00  0.00    -0.255 A  
HETATM   14  I   UNK A   0      -9.486   4.702  69.500  1.00  0.00    -0.275 I  
HETATM   15  C   UNK A   0      -9.587   9.145  69.117  1.00  0.00    -0.161 A  
HETATM   16  I   UNK A   0      -8.241  10.810  68.683  1.00  0.00    -0.137 I  
HETATM   17  C   UNK A   0      -9.918   6.813  69.694  1.00  0.00    -0.173 A  
HETATM   18  C   UNK A   0      -9.102   7.803  69.095  1.00  0.00    -0.145 A  
BRANCH  13  19
HETATM   19  C   UNK A   0     -11.464  10.805  69.358  1.00  0.00    -0.295 C  
HETATM   20  O   UNK A   0     -12.285  10.844  68.300  1.00  0.00    -0.804 OA 
HETATM   21  H   UNK A   0     -12.677  11.684  68.090  1.00  0.00     0.000 HD 
BRANCH  19  22
ATOM     22  N   SER A   1     -11.246  11.870  70.047  1.00  0.00    -0.485 NA 
ATOM     23  H   SER A   1     -10.649  11.849  70.874  1.00  0.00     0.000 HD 
BRANCH  22  24
ATOM     24  CA  SER A   1     -11.891  13.135  69.598  1.00  0.00    -0.324 C  
BRANCH  24  25
ATOM     25  C   SER A   1     -10.823  13.942  68.837  1.00  0.00    -0.255 C  
ATOM     26  H   SER A   1     -10.123  15.781  68.848  1.00  0.00     0.000 HD 
ATOM     27  O   SER A   1     -10.782  15.283  69.318  1.00  0.00    -0.229 OA 
ENDBRANCH  24  25
BRANCH  24  28
ATOM     28  CB  SER A   1     -12.397  13.996  70.774  1.00  0.00    -0.373 C  
ATOM     29  OG  SER A   1     -13.392  14.953  70.414  1.00  0.00    -0.628 OA 
ATOM     30  HG  SER A   1     -13.703  15.483  71.139  1.00  0.00     0.000 HD 
ENDBRANCH  24  28
ENDBRANCH  22  24
ENDBRANCH  19  22
ENDBRANCH  13  19
BRANCH  18  31
HETATM   31  C   UNK A   0      -7.747   7.485  68.512  1.00  0.00    -0.120 C  
HETATM   32  H   UNK A   0      -5.896   7.174  69.042  1.00  0.00     0.000 HD 
HETATM   33  O   UNK A   0      -6.749   7.375  69.409  1.00  0.00    -0.040 OA 
BRANCH  31  34
ATOM     34  N   SER A   1      -7.499   7.378  67.252  1.00  0.00    -0.101 NA 
ATOM     35  H   SER A   1      -6.544   7.405  66.895  1.00  0.00     0.000 HD 
BRANCH  34  36
ATOM     36  CA  SER A   1      -8.668   7.213  66.334  1.00  0.00    -0.139 C  
BRANCH  36  37
ATOM     37  CB  SER A   1      -8.700   8.418  65.390  1.00  0.00    -0.141 C  
ATOM     38  HG  SER A   1      -9.906   9.931  65.018  1.00  0.00     0.000 HD 
ATOM     39  OG  SER A   1      -9.886   9.184  65.604  1.00  0.00    -0.264 OA 
ENDBRANCH  36  37
BRANCH  36  40
ATOM     40  C   SER A   1      -8.505   5.908  65.532  1.00  0.00    -0.154 C  
ATOM     41  H   SER A   1      -9.551   4.271  65.198  1.00  0.00     0.000 HD 
ATOM     42  O   SER A   1      -9.652   5.075  65.693  1.00  0.00    -0.160 OA 
ENDBRANCH  36  40
ENDBRANCH  34  36
ENDBRANCH  31  34
ENDBRANCH  18  31
ENDBRANCH   8  10
ENDBRANCH   5   8
ENDBRANCH   1   5
TORSDOF 13
ENDMDL
MODEL       38
REMARK 921   NORMALIZED FREE ENERGY PREDICTED BY IDOCK:   -4.94 KCAL/MOL
REMARK 922        TOTAL FREE ENERGY PREDICTED BY IDOCK:   -9.63 KCAL/MOL
REMARK 923 INTER-LIGAND FREE ENERGY PREDICTED BY IDOCK:   -8.03 KCAL/MOL
REMARK 924 INTRA-LIGAND FREE ENERGY PREDICTED BY IDOCK:   -1.60 KCAL/MOL
REMARK 927      BINDING AFFINITY PREDICTED BY RF-SCORE:    0.00 PKD
ROOT
HETATM    1  C   UNK A   0     -11.224   6.397  72.091  1.00  0.00    -0.279 C  
HETATM    2  O   UNK A   0     -10.526   5.258  71.557  1.00  0.00    -0.220 OA 
HETATM    3  C   UNK A   0     -10.599   6.779  73.415  1.00  0.00    -0.351 C  
HETATM    4  H   UNK A   0     -10.919   5.018  70.726  1.00  0.00     0.000 HD 
ENDROOT
BRANCH   1   5
HETATM    5  C   UNK A   0     -11.054   7.527  71.090  1.00  0.00    -0.251 C  
HETATM    6  O   UNK A   0     -11.674   7.285  69.912  1.00  0.00    -0.516 OA 
HETATM    7  H   UNK A   0     -11.568   7.991  69.285  1.00  0.00     0.000 HD 
BRANCH   5   8
HETATM    8  N   UNK A   0     -10.428   8.625  71.359  1.00  0.00    -0.234 NA 
HETATM    9  H   UNK A   0     -10.202   8.864  72.324  1.00  0.00     0.000 HD 
BRANCH   8  10
HETATM   10  C   UNK A   0     -10.055   9.502  70.294  1.00  0.00    -0.262 A  
HETATM   11  C   UNK A   0     -10.922  10.516  69.822  1.00  0.00    -0.294 A  
HETATM   12  I   UNK A   0     -12.835  10.789  70.860  1.00  0.00    -0.250 I  
HETATM   13  C   UNK A   0     -10.498  11.423  68.827  1.00  0.00    -0.228 A  
HETATM   14  I   UNK A   0      -7.541   7.729  70.360  1.00  0.00    -0.091 I  
HETATM   15  C   UNK A   0      -9.109  11.472  68.510  1.00  0.00    -0.157 A  
HETATM   16  I   UNK A   0      -8.373  13.347  67.663  1.00  0.00    -0.215 I  
HETATM   17  C   UNK A   0      -8.716   9.459  69.801  1.00  0.00    -0.181 A  
HETATM   18  C   UNK A   0      -8.192  10.485  68.979  1.00  0.00    -0.145 A  
BRANCH  13  19
HETATM   19  C   UNK A   0     -11.456  12.245  68.021  1.00  0.00    -0.321 C  
HETATM   20  O   UNK A   0     -11.827  13.424  68.537  1.00  0.00    -0.334 OA 
HETATM   21  H   UNK A   0     -12.434  13.946  68.025  1.00  0.00     0.000 HD 
BRANCH  19  22
ATOM     22  N   SER A   1     -11.908  11.868  66.876  1.00  0.00    -0.610 NA 
ATOM     23  H   SER A   1     -12.532  11.065  66.795  1.00  0.00     0.000 HD 
BRANCH  22  24
ATOM     24  CA  SER A   1     -11.491  12.643  65.674  1.00  0.00    -0.350 C  
BRANCH  24  25
ATOM     25  C   SER A   1     -12.776  13.040  64.925  1.00  0.00    -0.390 C  
ATOM     26  H   SER A   1     -13.658  12.582  63.226  1.00  0.00     0.000 HD 
ATOM     27  O   SER A   1     -12.865  12.336  63.688  1.00  0.00    -0.753 OA 
ENDBRANCH  24  25
BRANCH  24  28
ATOM     28  CB  SER A   1     -10.609  11.820  64.712  1.00  0.00    -0.301 C  
ATOM     29  OG  SER A   1      -9.889  12.603  63.762  1.00  0.00    -0.660 OA 
ATOM     30  HG  SER A   1      -9.346  12.096  63.170  1.00  0.00     0.000 HD 
ENDBRANCH  24  28
ENDBRANCH  22  24
ENDBRANCH  19  22
ENDBRANCH  13  19
BRANCH  18  31
HETATM   31  C   UNK A   0      -6.722  10.586  68.655  1.00  0.00    -0.053 C  
HETATM   32  H   UNK A   0      -5.040  11.239  69.397  1.00  0.00     0.000 HD 
HETATM   33  O   UNK A   0      -5.966  11.175  69.601  1.00  0.00    -0.061 OA 
BRANCH  31  34
ATOM     34  N   SER A   1      -6.190  10.208  67.543  1.00  0.00    -0.058 NA 
ATOM     35  H   SER A   1      -5.218  10.424  67.320  1.00  0.00     0.000 HD 
BRANCH  34  36
ATOM     36  CA  SER A   1      -7.054   9.442  66.595  1.00  0.00    -0.085 C  
BRANCH  36  37
ATOM     37  CB  SER A   1      -7.069  10.191  65.259  1.00  0.00    -0.137 C  
ATOM     38  HG  SER A   1      -7.920   9.982  63.494  1.00  0.00     0.000 HD 
ATOM     39  OG  SER A   1      -7.911   9.517  64.323  1.00  0.00    -0.117 OA 
ENDBRANCH  36  37
BRANCH  36  40
ATOM     40  C   SER A   1      -6.474   8.027  66.407  1.00  0.00    -0.047 C  
ATOM     41  H   SER A   1      -7.123   6.168  66.516  1.00  0.00     0.000 HD 
ATOM     42  O   SER A   1      -7.480   7.040  66.631  1.00  0.00    -0.078 OA 
ENDBRANCH  36  40
ENDBRANCH  34  36
ENDBRANCH  31  34
ENDBRANCH  18  31
ENDBRANCH   8  10
ENDBRANCH   5   8
ENDBRANCH   1   5
TORSDOF 13
ENDMDL
MODEL       39
REMARK 921   NORMALIZED FREE ENERGY PREDICTED BY IDOCK:   -4.85 KCAL/MOL
REMARK 922        TOTAL FREE ENERGY PREDICTED BY IDOCK:   -9.47 KCAL/MOL
REMARK 923 INTER-LIGAND FREE ENERGY PREDICTED BY IDOCK:   -8.57 KCAL/MOL
REMARK 924 INTRA-LIGAND FREE ENERGY PREDICTED BY IDOCK:   -0.90 KCAL/MOL
REMARK 927      BINDING AFFINITY PREDICTED BY RF-SCORE:    0.00 PKD
ROOT
HETATM    1  C   UNK A   0     -12.399  13.120  65.085  1.00  0.00    -0.473 C  
HETATM    2  O   UNK A   0     -13.447  13.906  65.680  1.00  0.00    -0.655 OA 
HETATM    3  C   UNK A   0     -13.003  12.197  64.051  1.00  0.00    -0.293 C  
HETATM    4  H   UNK A   0     -13.067  14.485  66.330  1.00  0.00     0.000 HD 
ENDROOT
BRANCH   1   5
HETATM    5  C   UNK A   0     -11.442  14.094  64.419  1.00  0.00    -0.332 C  
HETATM    6  O   UNK A   0     -12.079  15.083  63.749  1.00  0.00    -0.918 OA 
HETATM    7  H   UNK A   0     -11.481  15.693  63.332  1.00  0.00     0.000 HD 
BRANCH   5   8
HETATM    8  N   UNK A   0     -10.157  14.014  64.528  1.00  0.00    -0.714 NA 
HETATM    9  H   UNK A   0      -9.569  14.031  63.695  1.00  0.00     0.000 HD 
BRANCH   8  10
HETATM   10  C   UNK A   0      -9.566  13.902  65.823  1.00  0.00    -0.085 A  
HETATM   11  C   UNK A   0      -9.142  12.657  66.347  1.00  0.00    -0.110 A  
HETATM   12  I   UNK A   0      -9.308  10.895  65.051  1.00  0.00    -0.254 I  
HETATM   13  C   UNK A   0      -8.485  12.584  67.594  1.00  0.00    -0.171 A  
HETATM   14  I   UNK A   0     -10.161  16.920  65.826  1.00  0.00     0.005 I  
HETATM   15  C   UNK A   0      -8.016  13.797  68.179  1.00  0.00    -0.150 A  
HETATM   16  I   UNK A   0      -6.347  13.618  69.578  1.00  0.00    -0.022 I  
HETATM   17  C   UNK A   0      -9.250  15.093  66.544  1.00  0.00    -0.287 A  
HETATM   18  C   UNK A   0      -8.399  15.075  67.674  1.00  0.00    -0.175 A  
BRANCH  13  19
HETATM   19  C   UNK A   0      -8.363  11.310  68.370  1.00  0.00    -0.152 C  
HETATM   20  O   UNK A   0      -7.402  10.456  67.989  1.00  0.00    -0.084 OA 
HETATM   21  H   UNK A   0      -7.325   9.648  68.483  1.00  0.00     0.000 HD 
BRANCH  19  22
ATOM     22  N   SER A   1      -9.121  11.026  69.370  1.00  0.00    -0.390 NA 
ATOM     23  H   SER A   1      -8.917  11.382  70.304  1.00  0.00     0.000 HD 
BRANCH  22  24
ATOM     24  CA  SER A   1     -10.307  10.160  69.121  1.00  0.00    -0.219 C  
BRANCH  24  25
ATOM     25  C   SER A   1     -11.468  10.733  69.954  1.00  0.00    -0.321 C  
ATOM     26  H   SER A   1     -12.257  10.429  71.732  1.00  0.00     0.000 HD 
ATOM     27  O   SER A   1     -11.541  10.075  71.218  1.00  0.00    -0.367 OA 
ENDBRANCH  24  25
BRANCH  24  28
ATOM     28  CB  SER A   1     -10.079   8.697  69.556  1.00  0.00    -0.203 C  
ATOM     29  OG  SER A   1     -11.131   7.806  69.190  1.00  0.00    -0.431 OA 
ATOM     30  HG  SER A   1     -10.990   6.906  69.458  1.00  0.00     0.000 HD 
ENDBRANCH  24  28
ENDBRANCH  22  24
ENDBRANCH  19  22
ENDBRANCH  13  19
BRANCH  18  31
HETATM   31  C   UNK A   0      -7.857  16.340  68.294  1.00  0.00    -0.164 C  
HETATM   32  H   UNK A   0      -8.287  17.679  69.647  1.00  0.00     0.000 HD 
HETATM   33  O   UNK A   0      -8.628  16.883  69.256  1.00  0.00    -0.114 OA 
BRANCH  31  34
ATOM     34  N   SER A   1      -6.772  16.930  67.924  1.00  0.00    -0.140 NA 
ATOM     35  H   SER A   1      -5.882  16.434  67.895  1.00  0.00     0.000 HD 
BRANCH  34  36
ATOM     36  CA  SER A   1      -6.873  18.371  67.539  1.00  0.00    -0.202 C  
BRANCH  36  37
ATOM     37  CB  SER A   1      -5.908  19.164  68.424  1.00  0.00    -0.210 C  
ATOM     38  HG  SER A   1      -5.901  19.908  70.249  1.00  0.00     0.000 HD 
ATOM     39  OG  SER A   1      -6.499  19.415  69.700  1.00  0.00    -0.299 OA 
ENDBRANCH  36  37
BRANCH  36  40
ATOM     40  C   SER A   1      -6.490  18.529  66.055  1.00  0.00    -0.234 C  
ATOM     41  H   SER A   1      -7.012  19.674  64.537  1.00  0.00     0.000 HD 
ATOM     42  O   SER A   1      -7.248  19.576  65.452  1.00  0.00    -0.403 OA 
ENDBRANCH  36  40
ENDBRANCH  34  36
ENDBRANCH  31  34
ENDBRANCH  18  31
ENDBRANCH   8  10
ENDBRANCH   5   8
ENDBRANCH   1   5
TORSDOF 13
ENDMDL
MODEL       40
REMARK 921   NORMALIZED FREE ENERGY PREDICTED BY IDOCK:   -4.84 KCAL/MOL
REMARK 922        TOTAL FREE ENERGY PREDICTED BY IDOCK:   -9.45 KCAL/MOL
REMARK 923 INTER-LIGAND FREE ENERGY PREDICTED BY IDOCK:   -8.55 KCAL/MOL
REMARK 924 INTRA-LIGAND FREE ENERGY PREDICTED BY IDOCK:   -0.90 KCAL/MOL
REMARK 927      BINDING AFFINITY PREDICTED BY RF-SCORE:    0.00 PKD
ROOT
HETATM    1  C   UNK A   0      -9.645  10.874  63.403  1.00  0.00    -0.332 C  
HETATM    2  O   UNK A   0      -8.876  11.963  62.861  1.00  0.00    -0.638 OA 
HETATM    3  C   UNK A   0      -8.916   9.577  63.138  1.00  0.00    -0.217 C  
HETATM    4  H   UNK A   0      -9.335  12.777  63.027  1.00  0.00     0.000 HD 
ENDROOT
BRANCH   1   5
HETATM    5  C   UNK A   0      -9.754  11.115  64.899  1.00  0.00    -0.251 C  
HETATM    6  O   UNK A   0      -8.569  11.432  65.470  1.00  0.00    -0.375 OA 
HETATM    7  H   UNK A   0      -8.636  11.582  66.405  1.00  0.00     0.000 HD 
BRANCH   5   8
HETATM    8  N   UNK A   0     -10.873  11.075  65.545  1.00  0.00    -0.148 NA 
HETATM    9  H   UNK A   0     -11.681  10.602  65.142  1.00  0.00     0.000 HD 
BRANCH   8  10
HETATM   10  C   UNK A   0     -10.969  11.697  66.827  1.00  0.00    -0.290 A  
HETATM   11  C   UNK A   0     -11.119  13.097  66.970  1.00  0.00    -0.279 A  
HETATM   12  I   UNK A   0     -11.321  14.294  65.143  1.00  0.00    -0.413 I  
HETATM   13  C   UNK A   0     -11.295  13.679  68.244  1.00  0.00    -0.322 A  
HETATM   14  I   UNK A   0     -10.570   8.785  67.735  1.00  0.00    -0.006 I  
HETATM   15  C   UNK A   0     -11.594  12.818  69.340  1.00  0.00    -0.298 A  
HETATM   16  I   UNK A   0     -12.659  13.720  71.021  1.00  0.00    -0.314 I  
HETATM   17  C   UNK A   0     -11.076  10.873  67.988  1.00  0.00    -0.293 A  
HETATM   18  C   UNK A   0     -11.479  11.399  69.239  1.00  0.00    -0.370 A  
BRANCH  13  19
HETATM   19  C   UNK A   0     -11.072  15.136  68.506  1.00  0.00    -0.276 C  
HETATM   20  O   UNK A   0     -12.163  15.906  68.617  1.00  0.00    -0.488 OA 
HETATM   21  H   UNK A   0     -12.021  16.831  68.784  1.00  0.00     0.000 HD 
BRANCH  19  22
ATOM     22  N   SER A   1      -9.900  15.651  68.636  1.00  0.00    -0.204 NA 
ATOM     23  H   SER A   1      -9.778  16.655  68.765  1.00  0.00     0.000 HD 
BRANCH  22  24
ATOM     24  CA  SER A   1      -8.728  14.733  68.594  1.00  0.00    -0.178 C  
BRANCH  24  25
ATOM     25  C   SER A   1      -7.828  15.095  69.790  1.00  0.00    -0.042 C  
ATOM     26  H   SER A   1      -6.823  16.667  70.417  1.00  0.00     0.000 HD 
ATOM     27  O   SER A   1      -7.378  16.443  69.679  1.00  0.00    -0.138 OA 
ENDBRANCH  24  25
BRANCH  24  28
ATOM     28  CB  SER A   1      -7.897  14.887  67.303  1.00  0.00    -0.206 C  
ATOM     29  OG  SER A   1      -7.087  13.756  66.989  1.00  0.00    -0.381 OA 
ATOM     30  HG  SER A   1      -6.575  13.851  66.194  1.00  0.00     0.000 HD 
ENDBRANCH  24  28
ENDBRANCH  22  24
ENDBRANCH  19  22
ENDBRANCH  13  19
BRANCH  18  31
HETATM   31  C   UNK A   0     -11.837  10.514  70.407  1.00  0.00    -0.340 C  
HETATM   32  H   UNK A   0     -13.348   9.559  71.188  1.00  0.00     0.000 HD 
HETATM   33  O   UNK A   0     -13.122  10.116  70.452  1.00  0.00    -0.225 OA 
BRANCH  31  34
ATOM     34  N   SER A   1     -11.024  10.185  71.352  1.00  0.00    -0.060 NA 
ATOM     35  H   SER A   1     -10.640  10.884  71.988  1.00  0.00     0.000 HD 
BRANCH  34  36
ATOM     36  CA  SER A   1     -10.668   8.739  71.479  1.00  0.00    -0.301 C  
BRANCH  36  37
ATOM     37  CB  SER A   1      -9.174   8.647  71.798  1.00  0.00    -0.268 C  
ATOM     38  HG  SER A   1      -8.050   8.031  73.295  1.00  0.00     0.000 HD 
ATOM     39  OG  SER A   1      -8.978   8.088  73.097  1.00  0.00    -0.215 OA 
ENDBRANCH  36  37
BRANCH  36  40
ATOM     40  C   SER A   1     -11.497   8.108  72.614  1.00  0.00    -0.387 C  
ATOM     41  H   SER A   1     -12.557   6.470  72.898  1.00  0.00     0.000 HD 
ATOM     42  O   SER A   1     -12.046   6.859  72.198  1.00  0.00    -0.291 OA 
ENDBRANCH  36  40
ENDBRANCH  34  36
ENDBRANCH  31  34
ENDBRANCH  18  31
ENDBRANCH   8  10
ENDBRANCH   5   8
ENDBRANCH   1   5
TORSDOF 13
ENDMDL
MODEL       41
REMARK 921   NORMALIZED FREE ENERGY PREDICTED BY IDOCK:   -4.81 KCAL/MOL
REMARK 922        TOTAL FREE ENERGY PREDICTED BY IDOCK:   -9.39 KCAL/MOL
REMARK 923 INTER-LIGAND FREE ENERGY PREDICTED BY IDOCK:   -8.31 KCAL/MOL
REMARK 924 INTRA-LIGAND FREE ENERGY PREDICTED BY IDOCK:   -1.08 KCAL/MOL
REMARK 927      BINDING AFFINITY PREDICTED BY RF-SCORE:    0.00 PKD
ROOT
HETATM    1  C   UNK A   0     -13.068   9.652  71.354  1.00  0.00    -0.385 C  
HETATM    2  O   UNK A   0     -12.636   8.851  72.468  1.00  0.00    -0.375 OA 
HETATM    3  C   UNK A   0     -13.580  10.978  71.872  1.00  0.00    -0.127 C  
HETATM    4  H   UNK A   0     -12.314   8.018  72.142  1.00  0.00     0.000 HD 
ENDROOT
BRANCH   1   5
HETATM    5  C   UNK A   0     -11.850   9.873  70.472  1.00  0.00    -0.270 C  
HETATM    6  O   UNK A   0     -10.683   9.751  71.144  1.00  0.00    -0.324 OA 
HETATM    7  H   UNK A   0      -9.921   9.889  70.593  1.00  0.00     0.000 HD 
BRANCH   5   8
HETATM    8  N   UNK A   0     -11.926  10.098  69.202  1.00  0.00    -0.508 NA 
HETATM    9  H   UNK A   0     -12.806   9.956  68.707  1.00  0.00     0.000 HD 
BRANCH   8  10
HETATM   10  C   UNK A   0     -10.768  10.547  68.495  1.00  0.00    -0.224 A  
HETATM   11  C   UNK A   0     -10.487  11.922  68.316  1.00  0.00    -0.205 A  
HETATM   12  I   UNK A   0     -11.832  13.371  69.266  1.00  0.00    -0.294 I  
HETATM   13  C   UNK A   0      -9.295  12.339  67.687  1.00  0.00    -0.186 A  
HETATM   14  I   UNK A   0     -10.396   7.512  68.152  1.00  0.00    -0.190 I  
HETATM   15  C   UNK A   0      -8.265  11.373  67.489  1.00  0.00    -0.130 A  
HETATM   16  I   UNK A   0      -6.227  12.145  67.328  1.00  0.00    -0.009 I  
HETATM   17  C   UNK A   0      -9.788   9.587  68.098  1.00  0.00    -0.155 A  
HETATM   18  C   UNK A   0      -8.494   9.977  67.678  1.00  0.00    -0.114 A  
BRANCH  13  19
HETATM   19  C   UNK A   0      -9.115  13.715  67.125  1.00  0.00    -0.239 C  
HETATM   20  O   UNK A   0      -8.553  14.630  67.928  1.00  0.00    -0.153 OA 
HETATM   21  H   UNK A   0      -8.439  15.503  67.571  1.00  0.00     0.000 HD 
BRANCH  19  22
ATOM     22  N   SER A   1      -9.462  14.032  65.927  1.00  0.00    -0.514 NA 
ATOM     23  H   SER A   1      -8.846  13.850  65.135  1.00  0.00     0.000 HD 
BRANCH  22  24
ATOM     24  CA  SER A   1     -10.794  14.672  65.734  1.00  0.00    -0.323 C  
BRANCH  24  25
ATOM     25  C   SER A   1     -11.530  13.864  64.649  1.00  0.00    -0.377 C  
ATOM     26  H   SER A   1     -13.364  13.723  63.949  1.00  0.00     0.000 HD 
ATOM     27  O   SER A   1     -12.909  14.222  64.618  1.00  0.00    -0.658 OA 
ENDBRANCH  24  25
BRANCH  24  28
ATOM     28  CB  SER A   1     -10.687  16.134  65.255  1.00  0.00    -0.368 C  
ATOM     29  OG  SER A   1     -11.179  16.355  63.934  1.00  0.00    -1.383 OA 
ATOM     30  HG  SER A   1     -11.113  17.256  63.640  1.00  0.00     0.000 HD 
ENDBRANCH  24  28
ENDBRANCH  22  24
ENDBRANCH  19  22
ENDBRANCH  13  19
BRANCH  18  31
HETATM   31  C   UNK A   0      -7.373   8.984  67.494  1.00  0.00    -0.081 C  
HETATM   32  H   UNK A   0      -6.592   7.799  66.155  1.00  0.00     0.000 HD 
HETATM   33  O   UNK A   0      -7.298   8.424  66.271  1.00  0.00    -0.083 OA 
BRANCH  31  34
ATOM     34  N   SER A   1      -6.560   8.617  68.424  1.00  0.00    -0.059 NA 
ATOM     35  H   SER A   1      -5.550   8.651  68.289  1.00  0.00     0.000 HD 
BRANCH  34  36
ATOM     36  CA  SER A   1      -7.158   8.139  69.708  1.00  0.00    -0.060 C  
BRANCH  36  37
ATOM     37  CB  SER A   1      -6.393   6.888  70.148  1.00  0.00    -0.035 C  
ATOM     38  HG  SER A   1      -6.324   4.984  69.644  1.00  0.00     0.000 HD 
ATOM     39  OG  SER A   1      -6.798   5.761  69.371  1.00  0.00    -0.057 OA 
ENDBRANCH  36  37
BRANCH  36  40
ATOM     40  C   SER A   1      -7.030   9.245  70.772  1.00  0.00    -0.109 C  
ATOM     41  H   SER A   1      -7.786   9.642  72.549  1.00  0.00     0.000 HD 
ATOM     42  O   SER A   1      -7.865   8.960  71.893  1.00  0.00    -0.320 OA 
ENDBRANCH  36  40
ENDBRANCH  34  36
ENDBRANCH  31  34
ENDBRANCH  18  31
ENDBRANCH   8  10
ENDBRANCH   5   8
ENDBRANCH   1   5
TORSDOF 13
ENDMDL
MODEL       42
REMARK 921   NORMALIZED FREE ENERGY PREDICTED BY IDOCK:   -4.78 KCAL/MOL
REMARK 922        TOTAL FREE ENERGY PREDICTED BY IDOCK:   -9.35 KCAL/MOL
REMARK 923 INTER-LIGAND FREE ENERGY PREDICTED BY IDOCK:   -8.14 KCAL/MOL
REMARK 924 INTRA-LIGAND FREE ENERGY PREDICTED BY IDOCK:   -1.20 KCAL/MOL
REMARK 927      BINDING AFFINITY PREDICTED BY RF-SCORE:    0.00 PKD
ROOT
HETATM    1  C   UNK A   0     -11.487   6.824  72.558  1.00  0.00    -0.231 C  
HETATM    2  O   UNK A   0     -12.828   6.579  72.099  1.00  0.00    -0.542 OA 
HETATM    3  C   UNK A   0     -10.746   5.508  72.634  1.00  0.00    -0.289 C  
HETATM    4  H   UNK A   0     -13.294   7.406  72.052  1.00  0.00     0.000 HD 
ENDROOT
BRANCH   1   5
HETATM    5  C   UNK A   0     -10.830   7.734  71.534  1.00  0.00    -0.227 C  
HETATM    6  O   UNK A   0      -9.736   8.367  72.017  1.00  0.00    -0.226 OA 
HETATM    7  H   UNK A   0      -9.325   8.937  71.377  1.00  0.00     0.000 HD 
BRANCH   5   8
HETATM    8  N   UNK A   0     -11.245   7.846  70.316  1.00  0.00    -0.380 NA 
HETATM    9  H   UNK A   0     -11.930   7.189  69.944  1.00  0.00     0.000 HD 
BRANCH   8  10
HETATM   10  C   UNK A   0     -10.735   8.896  69.492  1.00  0.00    -0.199 A  
HETATM   11  C   UNK A   0     -11.200  10.228  69.604  1.00  0.00    -0.269 A  
HETATM   12  I   UNK A   0     -12.660  10.670  71.180  1.00  0.00    -0.527 I  
HETATM   13  C   UNK A   0     -10.622  11.262  68.837  1.00  0.00    -0.239 A  
HETATM   14  I   UNK A   0      -9.139   6.543  68.315  1.00  0.00    -0.113 I  
HETATM   15  C   UNK A   0      -9.395  10.994  68.163  1.00  0.00    -0.173 A  
HETATM   16  I   UNK A   0      -8.130  12.721  67.724  1.00  0.00    -0.212 I  
HETATM   17  C   UNK A   0      -9.618   8.628  68.644  1.00  0.00    -0.155 A  
HETATM   18  C   UNK A   0      -8.874   9.671  68.042  1.00  0.00    -0.119 A  
BRANCH  13  19
HETATM   19  C   UNK A   0     -11.297  12.580  68.615  1.00  0.00    -0.288 C  
HETATM   20  O   UNK A   0     -12.051  12.697  67.513  1.00  0.00    -0.411 OA 
HETATM   21  H   UNK A   0     -12.480  13.533  67.373  1.00  0.00     0.000 HD 
BRANCH  19  22
ATOM     22  N   SER A   1     -11.189  13.567  69.433  1.00  0.00    -0.407 NA 
ATOM     23  H   SER A   1     -10.433  13.604  70.117  1.00  0.00     0.000 HD 
BRANCH  22  24
ATOM     24  CA  SER A   1     -12.202  14.656  69.349  1.00  0.00    -0.235 C  
BRANCH  24  25
ATOM     25  C   SER A   1     -11.461  15.928  68.898  1.00  0.00    -0.386 C  
ATOM     26  H   SER A   1     -10.659  16.621  67.239  1.00  0.00     0.000 HD 
ATOM     27  O   SER A   1     -11.117  15.836  67.517  1.00  0.00    -0.317 OA 
ENDBRANCH  24  25
BRANCH  24  28
ATOM     28  CB  SER A   1     -12.877  14.948  70.705  1.00  0.00    -0.372 C  
ATOM     29  OG  SER A   1     -12.377  16.106  71.371  1.00  0.00    -0.581 OA 
ATOM     30  HG  SER A   1     -12.793  16.286  72.206  1.00  0.00     0.000 HD 
ENDBRANCH  24  28
ENDBRANCH  22  24
ENDBRANCH  19  22
ENDBRANCH  13  19
BRANCH  18  31
HETATM   31  C   UNK A   0      -7.554   9.425  67.353  1.00  0.00    -0.095 C  
HETATM   32  H   UNK A   0      -5.675   9.076  67.742  1.00  0.00     0.000 HD 
HETATM   33  O   UNK A   0      -6.506   9.231  68.175  1.00  0.00    -0.057 OA 
BRANCH  31  34
ATOM     34  N   SER A   1      -7.379   9.450  66.076  1.00  0.00    -0.091 NA 
ATOM     35  H   SER A   1      -6.478   9.702  65.670  1.00  0.00     0.000 HD 
BRANCH  34  36
ATOM     36  CA  SER A   1      -8.549   9.097  65.216  1.00  0.00    -0.167 C  
BRANCH  36  37
ATOM     37  CB  SER A   1      -8.944  10.344  64.420  1.00  0.00    -0.223 C  
ATOM     38  HG  SER A   1     -10.541  11.479  64.210  1.00  0.00     0.000 HD 
ATOM     39  OG  SER A   1     -10.296  10.705  64.704  1.00  0.00    -0.345 OA 
ENDBRANCH  36  37
BRANCH  36  40
ATOM     40  C   SER A   1      -8.152   7.956  64.260  1.00  0.00    -0.093 C  
ATOM     41  H   SER A   1      -8.025   7.675  62.312  1.00  0.00     0.000 HD 
ATOM     42  O   SER A   1      -8.270   8.378  62.902  1.00  0.00    -0.175 OA 
ENDBRANCH  36  40
ENDBRANCH  34  36
ENDBRANCH  31  34
ENDBRANCH  18  31
ENDBRANCH   8  10
ENDBRANCH   5   8
ENDBRANCH   1   5
TORSDOF 13
ENDMDL
MODEL       43
REMARK 921   NORMALIZED FREE ENERGY PREDICTED BY IDOCK:   -4.77 KCAL/MOL
REMARK 922        TOTAL FREE ENERGY PREDICTED BY IDOCK:   -9.33 KCAL/MOL
REMARK 923 INTER-LIGAND FREE ENERGY PREDICTED BY IDOCK:   -7.82 KCAL/MOL
REMARK 924 INTRA-LIGAND FREE ENERGY PREDICTED BY IDOCK:   -1.51 KCAL/MOL
REMARK 927      BINDING AFFINITY PREDICTED BY RF-SCORE:    0.00 PKD
ROOT
HETATM    1  C   UNK A   0      -8.395  18.635  68.495  1.00  0.00    -0.340 C  
HETATM    2  O   UNK A   0      -7.979  18.982  67.163  1.00  0.00    -0.250 OA 
HETATM    3  C   UNK A   0      -9.707  19.325  68.795  1.00  0.00    -0.510 C  
HETATM    4  H   UNK A   0      -7.155  18.549  66.975  1.00  0.00     0.000 HD 
ENDROOT
BRANCH   1   5
HETATM    5  C   UNK A   0      -8.581  17.128  68.520  1.00  0.00    -0.258 C  
HETATM    6  O   UNK A   0      -9.534  16.728  69.394  1.00  0.00    -0.140 OA 
HETATM    7  H   UNK A   0      -9.650  15.785  69.410  1.00  0.00     0.000 HD 
BRANCH   5   8
HETATM    8  N   UNK A   0      -7.933  16.320  67.747  1.00  0.00    -0.140 NA 
HETATM    9  H   UNK A   0      -7.169  16.667  67.167  1.00  0.00     0.000 HD 
BRANCH   8  10
HETATM   10  C   UNK A   0      -8.293  14.938  67.711  1.00  0.00    -0.157 A  
HETATM   11  C   UNK A   0      -7.603  13.964  68.470  1.00  0.00    -0.134 A  
HETATM   12  I   UNK A   0      -6.016  14.657  69.818  1.00  0.00    -0.156 I  
HETATM   13  C   UNK A   0      -8.031  12.619  68.481  1.00  0.00    -0.093 A  
HETATM   14  I   UNK A   0     -10.321  16.019  65.664  1.00  0.00    -0.286 I  
HETATM   15  C   UNK A   0      -9.316  12.319  67.942  1.00  0.00    -0.190 A  
HETATM   16  I   UNK A   0     -10.285  10.511  68.695  1.00  0.00    -0.259 I  
HETATM   17  C   UNK A   0      -9.478  14.553  67.014  1.00  0.00    -0.239 A  
HETATM   18  C   UNK A   0     -10.060  13.274  67.187  1.00  0.00    -0.239 A  
BRANCH  13  19
HETATM   19  C   UNK A   0      -7.151  11.494  68.929  1.00  0.00    -0.111 C  
HETATM   20  O   UNK A   0      -7.279  11.092  70.201  1.00  0.00    -0.434 OA 
HETATM   21  H   UNK A   0      -6.720  10.378  70.484  1.00  0.00     0.000 HD 
BRANCH  19  22
ATOM     22  N   SER A   1      -6.311  10.911  68.147  1.00  0.00    -0.057 NA 
ATOM     23  H   SER A   1      -5.340  11.219  68.094  1.00  0.00     0.000 HD 
BRANCH  22  24
ATOM     24  CA  SER A   1      -6.801   9.771  67.323  1.00  0.00    -0.083 C  
BRANCH  24  25
ATOM     25  C   SER A   1      -6.025   8.520  67.774  1.00  0.00    -0.047 C  
ATOM     26  H   SER A   1      -5.664   7.576  69.463  1.00  0.00     0.000 HD 
ATOM     27  O   SER A   1      -6.143   8.348  69.185  1.00  0.00    -0.041 OA 
ENDBRANCH  24  25
BRANCH  24  28
ATOM     28  CB  SER A   1      -6.549   9.975  65.815  1.00  0.00    -0.101 C  
ATOM     29  OG  SER A   1      -7.257  11.075  65.246  1.00  0.00    -0.355 OA 
ATOM     30  HG  SER A   1      -7.102  11.201  64.317  1.00  0.00     0.000 HD 
ENDBRANCH  24  28
ENDBRANCH  22  24
ENDBRANCH  19  22
ENDBRANCH  13  19
BRANCH  18  31
HETATM   31  C   UNK A   0     -11.433  12.936  66.661  1.00  0.00    -0.343 C  
HETATM   32  H   UNK A   0     -13.324  13.255  67.020  1.00  0.00     0.000 HD 
HETATM   33  O   UNK A   0     -12.459  13.468  67.351  1.00  0.00    -0.186 OA 
BRANCH  31  34
ATOM     34  N   SER A   1     -11.662  12.149  65.665  1.00  0.00    -0.406 NA 
ATOM     35  H   SER A   1     -12.295  11.354  65.752  1.00  0.00     0.000 HD 
BRANCH  34  36
ATOM     36  CA  SER A   1     -10.964  12.451  64.378  1.00  0.00    -0.334 C  
BRANCH  36  37
ATOM     37  CB  SER A   1     -10.354  11.147  63.856  1.00  0.00    -0.380 C  
ATOM     38  HG  SER A   1      -9.766   9.423  64.608  1.00  0.00     0.000 HD 
ATOM     39  OG  SER A   1     -10.145  10.232  64.932  1.00  0.00    -0.334 OA 
ENDBRANCH  36  37
BRANCH  36  40
ATOM     40  C   SER A   1     -11.981  13.008  63.365  1.00  0.00    -0.520 C  
ATOM     41  H   SER A   1     -13.709  12.456  62.592  1.00  0.00     0.000 HD 
ATOM     42  O   SER A   1     -13.081  12.112  63.216  1.00  0.00    -0.693 OA 
ENDBRANCH  36  40
ENDBRANCH  34  36
ENDBRANCH  31  34
ENDBRANCH  18  31
ENDBRANCH   8  10
ENDBRANCH   5   8
ENDBRANCH   1   5
TORSDOF 13
ENDMDL
MODEL       44
REMARK 921   NORMALIZED FREE ENERGY PREDICTED BY IDOCK:   -4.77 KCAL/MOL
REMARK 922        TOTAL FREE ENERGY PREDICTED BY IDOCK:   -9.33 KCAL/MOL
REMARK 923 INTER-LIGAND FREE ENERGY PREDICTED BY IDOCK:   -8.77 KCAL/MOL
REMARK 924 INTRA-LIGAND FREE ENERGY PREDICTED BY IDOCK:   -0.55 KCAL/MOL
REMARK 927      BINDING AFFINITY PREDICTED BY RF-SCORE:    0.00 PKD
ROOT
HETATM    1  C   UNK A   0      -6.592  14.996  70.054  1.00  0.00    -0.158 C  
HETATM    2  O   UNK A   0      -6.569  13.656  70.578  1.00  0.00    -0.397 OA 
HETATM    3  C   UNK A   0      -5.448  15.779  70.658  1.00  0.00    -0.117 C  
HETATM    4  H   UNK A   0      -7.287  13.164  70.199  1.00  0.00     0.000 HD 
ENDROOT
BRANCH   1   5
HETATM    5  C   UNK A   0      -6.410  14.883  68.550  1.00  0.00    -0.093 C  
HETATM    6  O   UNK A   0      -5.129  14.634  68.191  1.00  0.00    -0.107 OA 
HETATM    7  H   UNK A   0      -5.015  14.563  67.250  1.00  0.00     0.000 HD 
BRANCH   5   8
HETATM    8  N   UNK A   0      -7.388  14.963  67.709  1.00  0.00    -0.149 NA 
HETATM    9  H   UNK A   0      -7.315  15.571  66.894  1.00  0.00     0.000 HD 
BRANCH   8  10
HETATM   10  C   UNK A   0      -8.572  14.194  67.930  1.00  0.00    -0.178 A  
HETATM   11  C   UNK A   0      -8.617  12.802  67.682  1.00  0.00    -0.181 A  
HETATM   12  I   UNK A   0      -6.761  11.816  67.054  1.00  0.00     0.002 I  
HETATM   13  C   UNK A   0      -9.772  12.051  67.987  1.00  0.00    -0.198 A  
HETATM   14  I   UNK A   0      -9.660  16.977  68.664  1.00  0.00    -0.242 I  
HETATM   15  C   UNK A   0     -10.777  12.661  68.794  1.00  0.00    -0.207 A  
HETATM   16  I   UNK A   0     -12.070  11.308  69.921  1.00  0.00    -0.358 I  
HETATM   17  C   UNK A   0      -9.689  14.815  68.566  1.00  0.00    -0.218 A  
HETATM   18  C   UNK A   0     -10.763  14.057  69.089  1.00  0.00    -0.198 A  
BRANCH  13  19
HETATM   19  C   UNK A   0     -10.032  10.694  67.408  1.00  0.00    -0.181 C  
HETATM   20  O   UNK A   0      -9.524   9.645  68.070  1.00  0.00    -0.132 OA 
HETATM   21  H   UNK A   0      -9.689   8.785  67.703  1.00  0.00     0.000 HD 
BRANCH  19  22
ATOM     22  N   SER A   1     -10.718  10.512  66.335  1.00  0.00    -0.149 NA 
ATOM     23  H   SER A   1     -11.451   9.804  66.293  1.00  0.00     0.000 HD 
BRANCH  22  24
ATOM     24  CA  SER A   1     -10.408  11.369  65.157  1.00  0.00    -0.290 C  
BRANCH  24  25
ATOM     25  C   SER A   1     -11.734  12.004  64.699  1.00  0.00    -0.287 C  
ATOM     26  H   SER A   1     -13.141  13.134  65.486  1.00  0.00     0.000 HD 
ATOM     27  O   SER A   1     -12.323  12.742  65.768  1.00  0.00    -0.547 OA 
ENDBRANCH  24  25
BRANCH  24  28
ATOM     28  CB  SER A   1      -9.827  10.567  63.974  1.00  0.00    -0.324 C  
ATOM     29  OG  SER A   1     -10.627  10.599  62.794  1.00  0.00    -0.689 OA 
ATOM     30  HG  SER A   1     -10.269  10.105  62.066  1.00  0.00     0.000 HD 
ENDBRANCH  24  28
ENDBRANCH  22  24
ENDBRANCH  19  22
ENDBRANCH  13  19
BRANCH  18  31
HETATM   31  C   UNK A   0     -11.822  14.665  69.976  1.00  0.00    -0.308 C  
HETATM   32  H   UNK A   0     -13.452  15.733  69.889  1.00  0.00     0.000 HD 
HETATM   33  O   UNK A   0     -12.785  15.350  69.331  1.00  0.00     0.001 OA 
BRANCH  31  34
ATOM     34  N   SER A   1     -11.816  14.614  71.264  1.00  0.00    -0.406 NA 
ATOM     35  H   SER A   1     -11.226  13.949  71.765  1.00  0.00     0.000 HD 
BRANCH  34  36
ATOM     36  CA  SER A   1     -12.707  15.567  71.992  1.00  0.00    -0.411 C  
BRANCH  36  37
ATOM     37  CB  SER A   1     -13.960  14.802  72.428  1.00  0.00    -0.473 C  
ATOM     38  HG  SER A   1     -14.427  12.952  72.917  1.00  0.00     0.000 HD 
ATOM     39  OG  SER A   1     -13.650  13.426  72.647  1.00  0.00    -0.635 OA 
ENDBRANCH  36  37
BRANCH  36  40
ATOM     40  C   SER A   1     -11.964  16.120  73.223  1.00  0.00    -0.439 C  
ATOM     41  H   SER A   1     -12.428  16.777  75.023  1.00  0.00     0.000 HD 
ATOM     42  O   SER A   1     -12.886  16.436  74.264  1.00  0.00    -0.706 OA 
ENDBRANCH  36  40
ENDBRANCH  34  36
ENDBRANCH  31  34
ENDBRANCH  18  31
ENDBRANCH   8  10
ENDBRANCH   5   8
ENDBRANCH   1   5
TORSDOF 13
ENDMDL
MODEL       45
REMARK 921   NORMALIZED FREE ENERGY PREDICTED BY IDOCK:   -4.74 KCAL/MOL
REMARK 922        TOTAL FREE ENERGY PREDICTED BY IDOCK:   -9.27 KCAL/MOL
REMARK 923 INTER-LIGAND FREE ENERGY PREDICTED BY IDOCK:   -8.94 KCAL/MOL
REMARK 924 INTRA-LIGAND FREE ENERGY PREDICTED BY IDOCK:   -0.34 KCAL/MOL
REMARK 927      BINDING AFFINITY PREDICTED BY RF-SCORE:    0.00 PKD
ROOT
HETATM    1  C   UNK A   0      -9.065   5.741  66.132  1.00  0.00    -0.153 C  
HETATM    2  O   UNK A   0     -10.444   6.148  66.168  1.00  0.00    -0.440 OA 
HETATM    3  C   UNK A   0      -8.973   4.373  65.495  1.00  0.00    -0.135 C  
HETATM    4  H   UNK A   0     -10.502   7.008  66.568  1.00  0.00     0.000 HD 
ENDROOT
BRANCH   1   5
HETATM    5  C   UNK A   0      -8.326   6.762  65.283  1.00  0.00    -0.105 C  
HETATM    6  O   UNK A   0      -8.500   6.568  63.955  1.00  0.00    -0.336 OA 
HETATM    7  H   UNK A   0      -8.038   7.206  63.423  1.00  0.00     0.000 HD 
BRANCH   5   8
HETATM    8  N   UNK A   0      -7.650   7.743  65.781  1.00  0.00    -0.081 NA 
HETATM    9  H   UNK A   0      -6.642   7.797  65.637  1.00  0.00     0.000 HD 
BRANCH   8  10
HETATM   10  C   UNK A   0      -8.323   8.752  66.536  1.00  0.00    -0.112 A  
HETATM   11  C   UNK A   0      -8.944   9.862  65.915  1.00  0.00    -0.152 A  
HETATM   12  I   UNK A   0      -8.948   9.935  63.723  1.00  0.00    -0.218 I  
HETATM   13  C   UNK A   0      -9.674  10.800  66.676  1.00  0.00    -0.227 A  
HETATM   14  I   UNK A   0      -7.320   7.002  68.859  1.00  0.00    -0.098 I  
HETATM   15  C   UNK A   0     -10.004  10.464  68.021  1.00  0.00    -0.155 A  
HETATM   16  I   UNK A   0     -11.758  11.455  68.868  1.00  0.00    -0.352 I  
HETATM   17  C   UNK A   0      -8.513   8.554  67.937  1.00  0.00    -0.130 A  
HETATM   18  C   UNK A   0      -9.421   9.343  68.684  1.00  0.00    -0.147 A  
BRANCH  13  19
HETATM   19  C   UNK A   0     -10.014  12.167  66.166  1.00  0.00    -0.233 C  
HETATM   20  O   UNK A   0      -9.040  13.087  66.200  1.00  0.00    -0.452 OA 
HETATM   21  H   UNK A   0      -9.256  13.954  65.877  1.00  0.00     0.000 HD 
BRANCH  19  22
ATOM     22  N   SER A   1     -11.174  12.469  65.698  1.00  0.00    -0.305 NA 
ATOM     23  H   SER A   1     -12.026  12.212  66.197  1.00  0.00     0.000 HD 
BRANCH  22  24
ATOM     24  CA  SER A   1     -11.233  13.206  64.405  1.00  0.00    -0.371 C  
BRANCH  24  25
ATOM     25  C   SER A   1     -11.531  14.680  64.738  1.00  0.00    -0.410 C  
ATOM     26  H   SER A   1     -12.823  16.054  64.177  1.00  0.00     0.000 HD 
ATOM     27  O   SER A   1     -12.639  15.145  63.971  1.00  0.00    -0.791 OA 
ENDBRANCH  24  25
BRANCH  24  28
ATOM     28  CB  SER A   1     -12.349  12.688  63.475  1.00  0.00    -0.496 C  
ATOM     29  OG  SER A   1     -12.136  11.366  62.983  1.00  0.00    -0.934 OA 
ATOM     30  HG  SER A   1     -12.824  11.047  62.411  1.00  0.00     0.000 HD 
ENDBRANCH  24  28
ENDBRANCH  22  24
ENDBRANCH  19  22
ENDBRANCH  13  19
BRANCH  18  31
HETATM   31  C   UNK A   0      -9.818   8.993  70.097  1.00  0.00    -0.187 C  
HETATM   32  H   UNK A   0      -9.244   9.238  71.945  1.00  0.00     0.000 HD 
HETATM   33  O   UNK A   0      -8.994   9.457  71.055  1.00  0.00    -0.231 OA 
BRANCH  31  34
ATOM     34  N   SER A   1     -10.827   8.256  70.412  1.00  0.00    -0.234 NA 
ATOM     35  H   SER A   1     -11.766   8.468  70.074  1.00  0.00     0.000 HD 
BRANCH  34  36
ATOM     36  CA  SER A   1     -10.567   7.077  71.293  1.00  0.00    -0.218 C  
BRANCH  36  37
ATOM     37  CB  SER A   1     -11.606   7.088  72.417  1.00  0.00    -0.245 C  
ATOM     38  HG  SER A   1     -13.537   7.442  72.596  1.00  0.00     0.000 HD 
ATOM     39  OG  SER A   1     -12.891   7.434  71.899  1.00  0.00    -0.317 OA 
ENDBRANCH  36  37
BRANCH  36  40
ATOM     40  C   SER A   1     -10.689   5.784  70.464  1.00  0.00    -0.291 C  
ATOM     41  H   SER A   1     -11.360   5.262  68.685  1.00  0.00     0.000 HD 
ATOM     42  O   SER A   1     -11.284   6.058  69.196  1.00  0.00    -0.378 OA 
ENDBRANCH  36  40
ENDBRANCH  34  36
ENDBRANCH  31  34
ENDBRANCH  18  31
ENDBRANCH   8  10
ENDBRANCH   5   8
ENDBRANCH   1   5
TORSDOF 13
ENDMDL
MODEL       46
REMARK 921   NORMALIZED FREE ENERGY PREDICTED BY IDOCK:   -4.74 KCAL/MOL
REMARK 922        TOTAL FREE ENERGY PREDICTED BY IDOCK:   -9.27 KCAL/MOL
REMARK 923 INTER-LIGAND FREE ENERGY PREDICTED BY IDOCK:   -8.18 KCAL/MOL
REMARK 924 INTRA-LIGAND FREE ENERGY PREDICTED BY IDOCK:   -1.09 KCAL/MOL
REMARK 927      BINDING AFFINITY PREDICTED BY RF-SCORE:    0.00 PKD
ROOT
HETATM    1  C   UNK A   0      -9.157   6.477  66.327  1.00  0.00    -0.148 C  
HETATM    2  O   UNK A   0     -10.551   6.831  66.303  1.00  0.00    -0.452 OA 
HETATM    3  C   UNK A   0      -8.968   5.174  65.583  1.00  0.00    -0.154 C  
HETATM    4  H   UNK A   0     -10.669   7.649  66.771  1.00  0.00     0.000 HD 
ENDROOT
BRANCH   1   5
HETATM    5  C   UNK A   0      -8.406   7.594  65.623  1.00  0.00    -0.140 C  
HETATM    6  O   UNK A   0      -8.427   7.475  64.275  1.00  0.00    -0.367 OA 
HETATM    7  H   UNK A   0      -7.957   8.173  63.834  1.00  0.00     0.000 HD 
BRANCH   5   8
HETATM    8  N   UNK A   0      -7.853   8.581  66.247  1.00  0.00    -0.097 NA 
HETATM    9  H   UNK A   0      -6.899   8.860  66.023  1.00  0.00     0.000 HD 
BRANCH   8  10
HETATM   10  C   UNK A   0      -8.589   9.278  67.254  1.00  0.00    -0.125 A  
HETATM   11  C   UNK A   0      -9.515  10.298  66.933  1.00  0.00    -0.169 A  
HETATM   12  I   UNK A   0      -9.888  10.707  64.810  1.00  0.00    -0.405 I  
HETATM   13  C   UNK A   0     -10.290  10.914  67.939  1.00  0.00    -0.216 A  
HETATM   14  I   UNK A   0      -6.886   7.467  69.067  1.00  0.00    -0.073 I  
HETATM   15  C   UNK A   0     -10.322  10.306  69.229  1.00  0.00    -0.231 A  
HETATM   16  I   UNK A   0     -12.082  10.723  70.455  1.00  0.00    -0.483 I  
HETATM   17  C   UNK A   0      -8.505   8.827  68.606  1.00  0.00    -0.129 A  
HETATM   18  C   UNK A   0      -9.423   9.260  69.593  1.00  0.00    -0.188 A  
BRANCH  13  19
HETATM   19  C   UNK A   0     -10.980  12.227  67.740  1.00  0.00    -0.232 C  
HETATM   20  O   UNK A   0     -12.141  12.207  67.071  1.00  0.00    -0.591 OA 
HETATM   21  H   UNK A   0     -12.579  13.040  66.944  1.00  0.00     0.000 HD 
BRANCH  19  22
ATOM     22  N   SER A   1     -10.512  13.338  68.189  1.00  0.00    -0.238 NA 
ATOM     23  H   SER A   1      -9.539  13.419  68.483  1.00  0.00     0.000 HD 
BRANCH  22  24
ATOM     24  CA  SER A   1     -11.437  14.503  68.267  1.00  0.00    -0.311 C  
BRANCH  24  25
ATOM     25  C   SER A   1     -10.813  15.632  67.427  1.00  0.00    -0.315 C  
ATOM     26  H   SER A   1     -10.471  17.560  67.627  1.00  0.00     0.000 HD 
ATOM     27  O   SER A   1     -10.855  16.863  68.146  1.00  0.00    -0.362 OA 
ENDBRANCH  24  25
BRANCH  24  28
ATOM     28  CB  SER A   1     -11.621  15.022  69.709  1.00  0.00    -0.304 C  
ATOM     29  OG  SER A   1     -10.412  15.104  70.461  1.00  0.00    -0.504 OA 
ATOM     30  HG  SER A   1     -10.525  15.424  71.348  1.00  0.00     0.000 HD 
ENDBRANCH  24  28
ENDBRANCH  22  24
ENDBRANCH  19  22
ENDBRANCH  13  19
BRANCH  18  31
HETATM   31  C   UNK A   0      -9.507   8.614  70.954  1.00  0.00    -0.194 C  
HETATM   32  H   UNK A   0      -8.916   8.861  72.797  1.00  0.00     0.000 HD 
HETATM   33  O   UNK A   0      -8.864   9.268  71.940  1.00  0.00    -0.274 OA 
BRANCH  31  34
ATOM     34  N   SER A   1     -10.086   7.487  71.195  1.00  0.00    -0.189 NA 
ATOM     35  H   SER A   1      -9.946   6.998  72.079  1.00  0.00     0.000 HD 
BRANCH  34  36
ATOM     36  CA  SER A   1     -10.970   6.928  70.128  1.00  0.00    -0.281 C  
BRANCH  36  37
ATOM     37  CB  SER A   1     -10.418   5.557  69.728  1.00  0.00    -0.319 C  
ATOM     38  HG  SER A   1      -9.933   3.875  70.633  1.00  0.00     0.000 HD 
ATOM     39  OG  SER A   1     -10.275   4.726  70.880  1.00  0.00    -0.223 OA 
ENDBRANCH  36  37
BRANCH  36  40
ATOM     40  C   SER A   1     -12.403   6.789  70.675  1.00  0.00    -0.173 C  
ATOM     41  H   SER A   1     -13.341   7.105  72.380  1.00  0.00     0.000 HD 
ATOM     42  O   SER A   1     -12.457   7.190  72.043  1.00  0.00    -0.299 OA 
ENDBRANCH  36  40
ENDBRANCH  34  36
ENDBRANCH  31  34
ENDBRANCH  18  31
ENDBRANCH   8  10
ENDBRANCH   5   8
ENDBRANCH   1   5
TORSDOF 13
ENDMDL
MODEL       47
REMARK 921   NORMALIZED FREE ENERGY PREDICTED BY IDOCK:   -4.74 KCAL/MOL
REMARK 922        TOTAL FREE ENERGY PREDICTED BY IDOCK:   -9.27 KCAL/MOL
REMARK 923 INTER-LIGAND FREE ENERGY PREDICTED BY IDOCK:   -8.30 KCAL/MOL
REMARK 924 INTRA-LIGAND FREE ENERGY PREDICTED BY IDOCK:   -0.97 KCAL/MOL
REMARK 927      BINDING AFFINITY PREDICTED BY RF-SCORE:    0.00 PKD
ROOT
HETATM    1  C   UNK A   0     -12.991   9.558  71.409  1.00  0.00    -0.368 C  
HETATM    2  O   UNK A   0     -12.604   8.739  72.527  1.00  0.00    -0.391 OA 
HETATM    3  C   UNK A   0     -13.411  10.919  71.919  1.00  0.00    -0.429 C  
HETATM    4  H   UNK A   0     -12.341   7.884  72.206  1.00  0.00     0.000 HD 
ENDROOT
BRANCH   1   5
HETATM    5  C   UNK A   0     -11.769   9.690  70.516  1.00  0.00    -0.242 C  
HETATM    6  O   UNK A   0     -10.605   9.567  71.195  1.00  0.00    -0.319 OA 
HETATM    7  H   UNK A   0      -9.840   9.649  70.637  1.00  0.00     0.000 HD 
BRANCH   5   8
HETATM    8  N   UNK A   0     -11.839   9.849  69.236  1.00  0.00    -0.415 NA 
HETATM    9  H   UNK A   0     -12.694   9.606  68.735  1.00  0.00     0.000 HD 
BRANCH   8  10
HETATM   10  C   UNK A   0     -10.712  10.366  68.527  1.00  0.00    -0.221 A  
HETATM   11  C   UNK A   0     -10.484  11.756  68.395  1.00  0.00    -0.215 A  
HETATM   12  I   UNK A   0     -11.863  13.119  69.422  1.00  0.00    -0.245 I  
HETATM   13  C   UNK A   0      -9.320  12.241  67.761  1.00  0.00    -0.194 A  
HETATM   14  I   UNK A   0     -10.237   7.362  68.062  1.00  0.00    -0.256 I  
HETATM   15  C   UNK A   0      -8.260  11.321  67.509  1.00  0.00    -0.124 A  
HETATM   16  I   UNK A   0      -6.255  12.173  67.341  1.00  0.00    -0.098 I  
HETATM   17  C   UNK A   0      -9.705   9.459  68.076  1.00  0.00    -0.145 A  
HETATM   18  C   UNK A   0      -8.434   9.912  67.648  1.00  0.00    -0.114 A  
BRANCH  13  19
HETATM   19  C   UNK A   0      -9.201  13.643  67.249  1.00  0.00    -0.232 C  
HETATM   20  O   UNK A   0      -8.735  14.564  68.103  1.00  0.00    -0.158 OA 
HETATM   21  H   UNK A   0      -8.659  15.453  67.778  1.00  0.00     0.000 HD 
BRANCH  19  22
ATOM     22  N   SER A   1      -9.512  13.975  66.045  1.00  0.00    -0.499 NA 
ATOM     23  H   SER A   1      -8.878  13.791  65.268  1.00  0.00     0.000 HD 
BRANCH  22  24
ATOM     24  CA  SER A   1     -10.827  14.639  65.824  1.00  0.00    -0.323 C  
BRANCH  24  25
ATOM     25  C   SER A   1     -11.687  13.669  64.993  1.00  0.00    -0.339 C  
ATOM     26  H   SER A   1     -13.580  13.493  64.482  1.00  0.00     0.000 HD 
ATOM     27  O   SER A   1     -13.049  14.092  64.994  1.00  0.00    -0.742 OA 
ENDBRANCH  24  25
BRANCH  24  28
ATOM     28  CB  SER A   1     -10.702  15.962  65.041  1.00  0.00    -0.404 C  
ATOM     29  OG  SER A   1     -11.532  16.039  63.883  1.00  0.00    -1.188 OA 
ATOM     30  HG  SER A   1     -11.454  16.854  63.401  1.00  0.00     0.000 HD 
ENDBRANCH  24  28
ENDBRANCH  22  24
ENDBRANCH  19  22
ENDBRANCH  13  19
BRANCH  18  31
HETATM   31  C   UNK A   0      -7.282   8.968  67.407  1.00  0.00    -0.083 C  
HETATM   32  H   UNK A   0      -5.979   7.879  68.367  1.00  0.00     0.000 HD 
HETATM   33  O   UNK A   0      -6.704   8.474  68.518  1.00  0.00    -0.058 OA 
BRANCH  31  34
ATOM     34  N   SER A   1      -6.808   8.673  66.245  1.00  0.00    -0.069 NA 
ATOM     35  H   SER A   1      -6.109   9.262  65.793  1.00  0.00     0.000 HD 
BRANCH  34  36
ATOM     36  CA  SER A   1      -7.324   7.433  65.588  1.00  0.00    -0.074 C  
BRANCH  36  37
ATOM     37  CB  SER A   1      -7.391   7.691  64.081  1.00  0.00    -0.094 C  
ATOM     38  HG  SER A   1      -8.282   8.967  62.871  1.00  0.00     0.000 HD 
ATOM     39  OG  SER A   1      -8.240   8.807  63.807  1.00  0.00    -0.163 OA 
ENDBRANCH  36  37
BRANCH  36  40
ATOM     40  C   SER A   1      -6.368   6.263  65.888  1.00  0.00    -0.039 C  
ATOM     41  H   SER A   1      -6.361   4.304  65.670  1.00  0.00     0.000 HD 
ATOM     42  O   SER A   1      -6.951   5.025  65.485  1.00  0.00    -0.060 OA 
ENDBRANCH  36  40
ENDBRANCH  34  36
ENDBRANCH  31  34
ENDBRANCH  18  31
ENDBRANCH   8  10
ENDBRANCH   5   8
ENDBRANCH   1   5
TORSDOF 13
ENDMDL
MODEL       48
REMARK 921   NORMALIZED FREE ENERGY PREDICTED BY IDOCK:   -4.72 KCAL/MOL
REMARK 922        TOTAL FREE ENERGY PREDICTED BY IDOCK:   -9.25 KCAL/MOL
REMARK 923 INTER-LIGAND FREE ENERGY PREDICTED BY IDOCK:   -8.17 KCAL/MOL
REMARK 924 INTRA-LIGAND FREE ENERGY PREDICTED BY IDOCK:   -1.08 KCAL/MOL
REMARK 927      BINDING AFFINITY PREDICTED BY RF-SCORE:    0.00 PKD
ROOT
HETATM    1  C   UNK A   0      -7.592  17.611  68.627  1.00  0.00    -0.276 C  
HETATM    2  O   UNK A   0      -6.397  17.650  69.427  1.00  0.00    -0.236 OA 
HETATM    3  C   UNK A   0      -8.245  18.974  68.653  1.00  0.00    -0.399 C  
HETATM    4  H   UNK A   0      -5.987  16.793  69.411  1.00  0.00     0.000 HD 
ENDROOT
BRANCH   1   5
HETATM    5  C   UNK A   0      -7.163  17.265  67.211  1.00  0.00    -0.165 C  
HETATM    6  O   UNK A   0      -6.673  18.329  66.534  1.00  0.00    -0.184 OA 
HETATM    7  H   UNK A   0      -6.405  18.113  65.648  1.00  0.00     0.000 HD 
BRANCH   5   8
HETATM    8  N   UNK A   0      -7.212  16.068  66.728  1.00  0.00    -0.176 NA 
HETATM    9  H   UNK A   0      -6.605  15.802  65.953  1.00  0.00     0.000 HD 
BRANCH   8  10
HETATM   10  C   UNK A   0      -8.124  15.119  67.285  1.00  0.00    -0.201 A  
HETATM   11  C   UNK A   0      -9.521  15.218  67.086  1.00  0.00    -0.214 A  
HETATM   12  I   UNK A   0     -10.256  16.822  65.781  1.00  0.00    -0.042 I  
HETATM   13  C   UNK A   0     -10.393  14.223  67.577  1.00  0.00    -0.248 A  
HETATM   14  I   UNK A   0      -5.500  13.998  68.435  1.00  0.00    -0.127 I  
HETATM   15  C   UNK A   0      -9.826  12.995  68.027  1.00  0.00    -0.224 A  
HETATM   16  I   UNK A   0     -11.132  11.244  67.971  1.00  0.00    -0.398 I  
HETATM   17  C   UNK A   0      -7.602  13.955  67.925  1.00  0.00    -0.156 A  
HETATM   18  C   UNK A   0      -8.421  12.840  68.223  1.00  0.00    -0.161 A  
BRANCH  13  19
HETATM   19  C   UNK A   0     -11.864  14.448  67.746  1.00  0.00    -0.368 C  
HETATM   20  O   UNK A   0     -12.661  14.024  66.755  1.00  0.00    -0.517 OA 
HETATM   21  H   UNK A   0     -13.594  14.166  66.862  1.00  0.00     0.000 HD 
BRANCH  19  22
ATOM     22  N   SER A   1     -12.370  15.007  68.788  1.00  0.00    -0.598 NA 
ATOM     23  H   SER A   1     -13.227  15.556  68.727  1.00  0.00     0.000 HD 
BRANCH  22  24
ATOM     24  CA  SER A   1     -11.665  14.825  70.088  1.00  0.00    -0.301 C  
BRANCH  24  25
ATOM     25  C   SER A   1     -12.617  14.047  71.014  1.00  0.00    -0.366 C  
ATOM     26  H   SER A   1     -14.473  14.216  71.647  1.00  0.00     0.000 HD 
ATOM     27  O   SER A   1     -13.886  14.696  71.075  1.00  0.00    -0.335 OA 
ENDBRANCH  24  25
BRANCH  24  28
ATOM     28  CB  SER A   1     -11.319  16.165  70.770  1.00  0.00    -0.368 C  
ATOM     29  OG  SER A   1     -12.084  16.441  71.941  1.00  0.00    -0.613 OA 
ATOM     30  HG  SER A   1     -11.871  17.266  72.361  1.00  0.00     0.000 HD 
ENDBRANCH  24  28
ENDBRANCH  22  24
ENDBRANCH  19  22
ENDBRANCH  13  19
BRANCH  18  31
HETATM   31  C   UNK A   0      -7.850  11.516  68.667  1.00  0.00    -0.137 C  
HETATM   32  H   UNK A   0      -6.990   9.914  67.959  1.00  0.00     0.000 HD 
HETATM   33  O   UNK A   0      -7.350  10.747  67.680  1.00  0.00    -0.091 OA 
BRANCH  31  34
ATOM     34  N   SER A   1      -7.870  11.079  69.879  1.00  0.00    -0.286 NA 
ATOM     35  H   SER A   1      -7.888  11.719  70.673  1.00  0.00     0.000 HD 
BRANCH  34  36
ATOM     36  CA  SER A   1      -7.868   9.597  70.075  1.00  0.00    -0.165 C  
BRANCH  36  37
ATOM     37  CB  SER A   1      -6.798   9.261  71.118  1.00  0.00    -0.063 C  
ATOM     38  HG  SER A   1      -6.746   8.689  73.003  1.00  0.00     0.000 HD 
ATOM     39  OG  SER A   1      -7.410   8.898  72.355  1.00  0.00    -0.335 OA 
ENDBRANCH  36  37
BRANCH  36  40
ATOM     40  C   SER A   1      -9.256   9.146  70.568  1.00  0.00    -0.241 C  
ATOM     41  H   SER A   1     -10.546   7.713  70.156  1.00  0.00     0.000 HD 
ATOM     42  O   SER A   1      -9.690   7.992  69.852  1.00  0.00    -0.178 OA 
ENDBRANCH  36  40
ENDBRANCH  34  36
ENDBRANCH  31  34
ENDBRANCH  18  31
ENDBRANCH   8  10
ENDBRANCH   5   8
ENDBRANCH   1   5
TORSDOF 13
ENDMDL
MODEL       49
REMARK 921   NORMALIZED FREE ENERGY PREDICTED BY IDOCK:   -4.71 KCAL/MOL
REMARK 922        TOTAL FREE ENERGY PREDICTED BY IDOCK:   -9.22 KCAL/MOL
REMARK 923 INTER-LIGAND FREE ENERGY PREDICTED BY IDOCK:   -7.98 KCAL/MOL
REMARK 924 INTRA-LIGAND FREE ENERGY PREDICTED BY IDOCK:   -1.24 KCAL/MOL
REMARK 927      BINDING AFFINITY PREDICTED BY RF-SCORE:    0.00 PKD
ROOT
HETATM    1  C   UNK A   0      -8.005   9.488  66.352  1.00  0.00    -0.111 C  
HETATM    2  O   UNK A   0      -7.338   8.215  66.416  1.00  0.00    -0.077 OA 
HETATM    3  C   UNK A   0      -7.158  10.446  65.544  1.00  0.00    -0.133 C  
HETATM    4  H   UNK A   0      -7.870   7.613  66.924  1.00  0.00     0.000 HD 
ENDROOT
BRANCH   1   5
HETATM    5  C   UNK A   0      -9.335   9.254  65.657  1.00  0.00    -0.244 C  
HETATM    6  O   UNK A   0      -9.222   9.187  64.310  1.00  0.00    -0.433 OA 
HETATM    7  H   UNK A   0     -10.054   9.041  63.875  1.00  0.00     0.000 HD 
BRANCH   5   8
HETATM    8  N   UNK A   0     -10.447   9.082  66.292  1.00  0.00    -0.196 NA 
HETATM    9  H   UNK A   0     -11.152   8.441  65.930  1.00  0.00     0.000 HD 
BRANCH   8  10
HETATM   10  C   UNK A   0     -10.683   9.798  67.506  1.00  0.00    -0.264 A  
HETATM   11  C   UNK A   0     -11.017  11.173  67.511  1.00  0.00    -0.275 A  
HETATM   12  I   UNK A   0     -11.283  12.166  65.573  1.00  0.00    -0.347 I  
HETATM   13  C   UNK A   0     -11.326  11.838  68.717  1.00  0.00    -0.325 A  
HETATM   14  I   UNK A   0      -9.959   7.055  68.698  1.00  0.00    -0.193 I  
HETATM   15  C   UNK A   0     -11.565  11.046  69.878  1.00  0.00    -0.337 A  
HETATM   16  I   UNK A   0     -12.815  11.946  71.428  1.00  0.00     0.034 I  
HETATM   17  C   UNK A   0     -10.740   9.073  68.735  1.00  0.00    -0.108 A  
HETATM   18  C   UNK A   0     -11.265   9.651  69.915  1.00  0.00    -0.244 A  
BRANCH  13  19
HETATM   19  C   UNK A   0     -11.304  13.329  68.849  1.00  0.00    -0.288 C  
HETATM   20  O   UNK A   0     -12.459  13.974  68.640  1.00  0.00    -0.494 OA 
HETATM   21  H   UNK A   0     -12.445  14.920  68.724  1.00  0.00     0.000 HD 
BRANCH  19  22
ATOM     22  N   SER A   1     -10.242  13.987  69.160  1.00  0.00    -0.431 NA 
ATOM     23  H   SER A   1      -9.638  13.681  69.923  1.00  0.00     0.000 HD 
BRANCH  22  24
ATOM     24  CA  SER A   1      -9.924  15.209  68.370  1.00  0.00    -0.222 C  
BRANCH  24  25
ATOM     25  C   SER A   1      -8.436  15.122  67.984  1.00  0.00    -0.148 C  
ATOM     26  H   SER A   1      -7.265  13.867  67.021  1.00  0.00     0.000 HD 
ATOM     27  O   SER A   1      -8.183  13.921  67.258  1.00  0.00    -0.178 OA 
ENDBRANCH  24  25
BRANCH  24  28
ATOM     28  CB  SER A   1     -10.137  16.509  69.172  1.00  0.00    -0.287 C  
ATOM     29  OG  SER A   1     -11.302  16.505  69.996  1.00  0.00    -0.407 OA 
ATOM     30  HG  SER A   1     -11.433  17.305  70.490  1.00  0.00     0.000 HD 
ENDBRANCH  24  28
ENDBRANCH  22  24
ENDBRANCH  19  22
ENDBRANCH  13  19
BRANCH  18  31
HETATM   31  C   UNK A   0     -11.562   8.834  71.149  1.00  0.00    -0.289 C  
HETATM   32  H   UNK A   0     -12.923   7.659  71.906  1.00  0.00     0.000 HD 
HETATM   33  O   UNK A   0     -12.735   8.173  71.129  1.00  0.00    -0.243 OA 
BRANCH  31  34
ATOM     34  N   SER A   1     -10.811   8.788  72.195  1.00  0.00    -0.360 NA 
ATOM     35  H   SER A   1     -10.737   9.584  72.830  1.00  0.00     0.000 HD 
BRANCH  34  36
ATOM     36  CA  SER A   1     -10.054   7.523  72.442  1.00  0.00    -0.203 C  
BRANCH  36  37
ATOM     37  CB  SER A   1      -8.560   7.861  72.449  1.00  0.00    -0.146 C  
ATOM     38  HG  SER A   1      -7.305   8.834  73.616  1.00  0.00     0.000 HD 
ATOM     39  OG  SER A   1      -8.231   8.624  73.611  1.00  0.00    -0.395 OA 
ENDBRANCH  36  37
BRANCH  36  40
ATOM     40  C   SER A   1     -10.476   6.934  73.801  1.00  0.00    -0.357 C  
ATOM     41  H   SER A   1     -11.178   5.223  74.484  1.00  0.00     0.000 HD 
ATOM     42  O   SER A   1     -10.918   5.586  73.646  1.00  0.00    -0.279 OA 
ENDBRANCH  36  40
ENDBRANCH  34  36
ENDBRANCH  31  34
ENDBRANCH  18  31
ENDBRANCH   8  10
ENDBRANCH   5   8
ENDBRANCH   1   5
TORSDOF 13
ENDMDL
MODEL       50
REMARK 921   NORMALIZED FREE ENERGY PREDICTED BY IDOCK:   -4.69 KCAL/MOL
REMARK 922        TOTAL FREE ENERGY PREDICTED BY IDOCK:   -9.19 KCAL/MOL
REMARK 923 INTER-LIGAND FREE ENERGY PREDICTED BY IDOCK:   -8.11 KCAL/MOL
REMARK 924 INTRA-LIGAND FREE ENERGY PREDICTED BY IDOCK:   -1.08 KCAL/MOL
REMARK 927      BINDING AFFINITY PREDICTED BY RF-SCORE:    0.00 PKD
ROOT
HETATM    1  C   UNK A   0     -12.015   7.455  71.905  1.00  0.00    -0.302 C  
HETATM    2  O   UNK A   0     -11.665   7.834  73.248  1.00  0.00    -0.659 OA 
HETATM    3  C   UNK A   0     -13.497   7.673  71.703  1.00  0.00    -0.415 C  
HETATM    4  H   UNK A   0     -10.734   7.697  73.375  1.00  0.00     0.000 HD 
ENDROOT
BRANCH   1   5
HETATM    5  C   UNK A   0     -11.223   8.356  70.973  1.00  0.00    -0.266 C  
HETATM    6  O   UNK A   0     -10.052   8.770  71.508  1.00  0.00    -0.243 OA 
HETATM    7  H   UNK A   0      -9.557   9.334  70.926  1.00  0.00     0.000 HD 
BRANCH   5   8
HETATM    8  N   UNK A   0     -11.607   8.649  69.774  1.00  0.00    -0.350 NA 
HETATM    9  H   UNK A   0     -12.347   8.110  69.326  1.00  0.00     0.000 HD 
BRANCH   8  10
HETATM   10  C   UNK A   0     -10.988   9.735  69.082  1.00  0.00    -0.175 A  
HETATM   11  C   UNK A   0     -11.287  11.084  69.384  1.00  0.00    -0.284 A  
HETATM   12  I   UNK A   0     -12.659  11.477  71.050  1.00  0.00    -0.162 I  
HETATM   13  C   UNK A   0     -10.600  12.138  68.744  1.00  0.00    -0.230 A  
HETATM   14  I   UNK A   0      -9.705   7.392  67.553  1.00  0.00    -0.249 I  
HETATM   15  C   UNK A   0      -9.425  11.821  68.002  1.00  0.00    -0.188 A  
HETATM   16  I   UNK A   0      -7.969  13.431  67.756  1.00  0.00    -0.213 I  
HETATM   17  C   UNK A   0      -9.924   9.454  68.171  1.00  0.00    -0.175 A  
HETATM   18  C   UNK A   0      -9.069  10.474  67.689  1.00  0.00    -0.146 A  
BRANCH  13  19
HETATM   19  C   UNK A   0     -11.116  13.543  68.720  1.00  0.00    -0.264 C  
HETATM   20  O   UNK A   0     -10.583  14.400  69.601  1.00  0.00    -0.426 OA 
HETATM   21  H   UNK A   0     -10.910  15.292  69.586  1.00  0.00     0.000 HD 
BRANCH  19  22
ATOM     22  N   SER A   1     -12.019  13.942  67.894  1.00  0.00    -0.409 NA 
ATOM     23  H   SER A   1     -12.910  14.310  68.226  1.00  0.00     0.000 HD 
BRANCH  22  24
ATOM     24  CA  SER A   1     -11.720  13.849  66.438  1.00  0.00    -0.383 C  
BRANCH  24  25
ATOM     25  C   SER A   1     -10.999  15.151  66.040  1.00  0.00    -0.332 C  
ATOM     26  H   SER A   1     -10.915  16.332  64.469  1.00  0.00     0.000 HD 
ATOM     27  O   SER A   1     -11.360  15.530  64.714  1.00  0.00    -0.410 OA 
ENDBRANCH  24  25
BRANCH  24  28
ATOM     28  CB  SER A   1     -12.994  13.723  65.576  1.00  0.00    -0.315 C  
ATOM     29  OG  SER A   1     -12.850  12.874  64.439  1.00  0.00    -0.696 OA 
ATOM     30  HG  SER A   1     -13.634  12.796  63.908  1.00  0.00     0.000 HD 
ENDBRANCH  24  28
ENDBRANCH  22  24
ENDBRANCH  19  22
ENDBRANCH  13  19
BRANCH  18  31
HETATM   31  C   UNK A   0      -7.800  10.171  66.932  1.00  0.00    -0.107 C  
HETATM   32  H   UNK A   0      -5.945   9.638  67.220  1.00  0.00     0.000 HD 
HETATM   33  O   UNK A   0      -6.745   9.829  67.696  1.00  0.00    -0.068 OA 
BRANCH  31  34
ATOM     34  N   SER A   1      -7.666  10.277  65.655  1.00  0.00    -0.143 NA 
ATOM     35  H   SER A   1      -8.247  10.917  65.112  1.00  0.00     0.000 HD 
BRANCH  34  36
ATOM     36  CA  SER A   1      -6.627   9.425  65.001  1.00  0.00    -0.084 C  
BRANCH  36  37
ATOM     37  CB  SER A   1      -7.324   8.191  64.422  1.00  0.00    -0.093 C  
ATOM     38  HG  SER A   1      -7.237   6.237  64.660  1.00  0.00     0.000 HD 
ATOM     39  OG  SER A   1      -6.805   7.003  65.020  1.00  0.00    -0.049 OA 
ENDBRANCH  36  37
BRANCH  36  40
ATOM     40  C   SER A   1      -5.942  10.228  63.879  1.00  0.00    -0.133 C  
ATOM     41  H   SER A   1      -6.422  10.934  62.101  1.00  0.00     0.000 HD 
ATOM     42  O   SER A   1      -6.844  10.439  62.793  1.00  0.00    -0.138 OA 
ENDBRANCH  36  40
ENDBRANCH  34  36
ENDBRANCH  31  34
ENDBRANCH  18  31
ENDBRANCH   8  10
ENDBRANCH   5   8
ENDBRANCH   1   5
TORSDOF 13
ENDMDL
MODEL       51
REMARK 921   NORMALIZED FREE ENERGY PREDICTED BY IDOCK:   -4.68 KCAL/MOL
REMARK 922        TOTAL FREE ENERGY PREDICTED BY IDOCK:   -9.16 KCAL/MOL
REMARK 923 INTER-LIGAND FREE ENERGY PREDICTED BY IDOCK:   -8.28 KCAL/MOL
REMARK 924 INTRA-LIGAND FREE ENERGY PREDICTED BY IDOCK:   -0.89 KCAL/MOL
REMARK 927      BINDING AFFINITY PREDICTED BY RF-SCORE:    0.00 PKD
ROOT
HETATM    1  C   UNK A   0     -12.014  15.354  69.687  1.00  0.00    -0.343 C  
HETATM    2  O   UNK A   0     -13.394  15.608  70.001  1.00  0.00    -0.584 OA 
HETATM    3  C   UNK A   0     -11.180  15.569  70.930  1.00  0.00    -0.409 C  
HETATM    4  H   UNK A   0     -13.918  15.473  69.220  1.00  0.00     0.000 HD 
ENDROOT
BRANCH   1   5
HETATM    5  C   UNK A   0     -11.923  13.904  69.243  1.00  0.00    -0.357 C  
HETATM    6  O   UNK A   0     -12.639  13.649  68.124  1.00  0.00    -0.181 OA 
HETATM    7  H   UNK A   0     -12.583  12.742  67.846  1.00  0.00     0.000 HD 
BRANCH   5   8
HETATM    8  N   UNK A   0     -11.193  13.022  69.843  1.00  0.00    -0.486 NA 
HETATM    9  H   UNK A   0     -10.845  13.200  70.785  1.00  0.00     0.000 HD 
BRANCH   8  10
HETATM   10  C   UNK A   0     -10.877  11.798  69.178  1.00  0.00    -0.172 A  
HETATM   11  C   UNK A   0     -10.064  11.764  68.020  1.00  0.00    -0.192 A  
HETATM   12  I   UNK A   0      -9.192  13.654  67.328  1.00  0.00    -0.266 I  
HETATM   13  C   UNK A   0      -9.698  10.535  67.430  1.00  0.00    -0.190 A  
HETATM   14  I   UNK A   0     -12.713  10.688  71.383  1.00  0.00    -0.471 I  
HETATM   15  C   UNK A   0      -9.927   9.339  68.171  1.00  0.00    -0.177 A  
HETATM   16  I   UNK A   0      -8.656   7.633  67.678  1.00  0.00    -0.113 I  
HETATM   17  C   UNK A   0     -11.258  10.564  69.786  1.00  0.00    -0.298 A  
HETATM   18  C   UNK A   0     -10.722   9.327  69.356  1.00  0.00    -0.222 A  
BRANCH  13  19
HETATM   19  C   UNK A   0      -9.188  10.432  66.026  1.00  0.00    -0.167 C  
HETATM   20  O   UNK A   0      -7.861  10.505  65.855  1.00  0.00    -0.143 OA 
HETATM   21  H   UNK A   0      -7.538  10.439  64.964  1.00  0.00     0.000 HD 
BRANCH  19  22
ATOM     22  N   SER A   1      -9.963  10.266  65.012  1.00  0.00    -0.325 NA 
ATOM     23  H   SER A   1     -10.561   9.444  64.934  1.00  0.00     0.000 HD 
BRANCH  22  24
ATOM     24  CA  SER A   1      -9.958  11.315  63.953  1.00  0.00    -0.321 C  
BRANCH  24  25
ATOM     25  C   SER A   1     -11.425  11.720  63.713  1.00  0.00    -0.420 C  
ATOM     26  H   SER A   1     -12.773  12.851  64.594  1.00  0.00     0.000 HD 
ATOM     27  O   SER A   1     -11.868  12.602  64.742  1.00  0.00    -0.342 OA 
ENDBRANCH  24  25
BRANCH  24  28
ATOM     28  CB  SER A   1      -9.374  10.810  62.618  1.00  0.00    -0.313 C  
ATOM     29  OG  SER A   1      -9.286   9.390  62.516  1.00  0.00    -0.543 OA 
ATOM     30  HG  SER A   1      -8.926   9.080  61.693  1.00  0.00     0.000 HD 
ENDBRANCH  24  28
ENDBRANCH  22  24
ENDBRANCH  19  22
ENDBRANCH  13  19
BRANCH  18  31
HETATM   31  C   UNK A   0     -10.915   8.050  70.137  1.00  0.00    -0.226 C  
HETATM   32  H   UNK A   0     -11.951   6.397  70.121  1.00  0.00     0.000 HD 
HETATM   33  O   UNK A   0     -11.829   7.201  69.630  1.00  0.00     0.070 OA 
BRANCH  31  34
ATOM     34  N   SER A   1     -10.321   7.773  71.247  1.00  0.00    -0.198 NA 
ATOM     35  H   SER A   1      -9.736   8.462  71.721  1.00  0.00     0.000 HD 
BRANCH  34  36
ATOM     36  CA  SER A   1     -10.523   6.404  71.810  1.00  0.00    -0.214 C  
BRANCH  36  37
ATOM     37  CB  SER A   1      -9.233   5.608  71.589  1.00  0.00    -0.142 C  
ATOM     38  HG  SER A   1      -8.553   4.290  70.291  1.00  0.00     0.000 HD 
ATOM     39  OG  SER A   1      -9.353   4.784  70.428  1.00  0.00    -0.130 OA 
ENDBRANCH  36  37
BRANCH  36  40
ATOM     40  C   SER A   1     -10.832   6.513  73.315  1.00  0.00    -0.248 C  
ATOM     41  H   SER A   1     -10.655   7.867  74.737  1.00  0.00     0.000 HD 
ATOM     42  O   SER A   1     -10.464   7.800  73.810  1.00  0.00    -0.152 OA 
ENDBRANCH  36  40
ENDBRANCH  34  36
ENDBRANCH  31  34
ENDBRANCH  18  31
ENDBRANCH   8  10
ENDBRANCH   5   8
ENDBRANCH   1   5
TORSDOF 13
ENDMDL
MODEL       52
REMARK 921   NORMALIZED FREE ENERGY PREDICTED BY IDOCK:   -4.67 KCAL/MOL
REMARK 922        TOTAL FREE ENERGY PREDICTED BY IDOCK:   -9.16 KCAL/MOL
REMARK 923 INTER-LIGAND FREE ENERGY PREDICTED BY IDOCK:   -8.03 KCAL/MOL
REMARK 924 INTRA-LIGAND FREE ENERGY PREDICTED BY IDOCK:   -1.13 KCAL/MOL
REMARK 927      BINDING AFFINITY PREDICTED BY RF-SCORE:    0.00 PKD
ROOT
HETATM    1  C   UNK A   0     -10.301   7.804  72.740  1.00  0.00    -0.313 C  
HETATM    2  O   UNK A   0     -10.788   7.492  74.057  1.00  0.00    -0.511 OA 
HETATM    3  C   UNK A   0      -8.803   7.599  72.709  1.00  0.00    -0.203 C  
HETATM    4  H   UNK A   0     -11.729   7.622  74.077  1.00  0.00     0.000 HD 
ENDROOT
BRANCH   1   5
HETATM    5  C   UNK A   0     -10.979   6.842  71.780  1.00  0.00    -0.230 C  
HETATM    6  O   UNK A   0     -10.951   5.560  72.211  1.00  0.00    -0.233 OA 
HETATM    7  H   UNK A   0     -11.376   4.958  71.611  1.00  0.00     0.000 HD 
BRANCH   5   8
HETATM    8  N   UNK A   0     -11.568   7.221  70.694  1.00  0.00    -0.347 NA 
HETATM    9  H   UNK A   0     -12.493   6.861  70.459  1.00  0.00     0.000 HD 
BRANCH   8  10
HETATM   10  C   UNK A   0     -10.914   8.146  69.823  1.00  0.00    -0.132 A  
HETATM   11  C   UNK A   0     -11.249   9.520  69.804  1.00  0.00    -0.144 A  
HETATM   12  I   UNK A   0     -12.739  10.228  71.250  1.00  0.00    -0.591 I  
HETATM   13  C   UNK A   0     -10.531  10.428  68.996  1.00  0.00    -0.240 A  
HETATM   14  I   UNK A   0      -9.501   5.562  68.931  1.00  0.00    -0.213 I  
HETATM   15  C   UNK A   0      -9.303   9.989  68.420  1.00  0.00    -0.138 A  
HETATM   16  I   UNK A   0      -7.851  11.545  67.925  1.00  0.00    -0.153 I  
HETATM   17  C   UNK A   0      -9.786   7.703  69.068  1.00  0.00    -0.160 A  
HETATM   18  C   UNK A   0      -8.911   8.617  68.433  1.00  0.00    -0.142 A  
BRANCH  13  19
HETATM   19  C   UNK A   0     -11.060  11.780  68.632  1.00  0.00    -0.238 C  
HETATM   20  O   UNK A   0     -10.675  12.809  69.400  1.00  0.00    -0.439 OA 
HETATM   21  H   UNK A   0     -11.011  13.667  69.169  1.00  0.00     0.000 HD 
BRANCH  19  22
ATOM     22  N   SER A   1     -11.838  11.979  67.626  1.00  0.00    -0.564 NA 
ATOM     23  H   SER A   1     -12.770  11.567  67.593  1.00  0.00     0.000 HD 
BRANCH  22  24
ATOM     24  CA  SER A   1     -11.333  12.830  66.513  1.00  0.00    -0.322 C  
BRANCH  24  25
ATOM     25  C   SER A   1     -12.069  14.179  66.606  1.00  0.00    -0.451 C  
ATOM     26  H   SER A   1     -12.309  15.774  65.478  1.00  0.00     0.000 HD 
ATOM     27  O   SER A   1     -11.855  14.941  65.420  1.00  0.00    -0.299 OA 
ENDBRANCH  24  25
BRANCH  24  28
ATOM     28  CB  SER A   1     -11.617  12.222  65.123  1.00  0.00    -0.351 C  
ATOM     29  OG  SER A   1     -12.953  12.415  64.662  1.00  0.00    -0.793 OA 
ATOM     30  HG  SER A   1     -13.128  12.041  63.806  1.00  0.00     0.000 HD 
ENDBRANCH  24  28
ENDBRANCH  22  24
ENDBRANCH  19  22
ENDBRANCH  13  19
BRANCH  18  31
HETATM   31  C   UNK A   0      -7.588   8.190  67.846  1.00  0.00    -0.102 C  
HETATM   32  H   UNK A   0      -5.810   7.586  68.376  1.00  0.00     0.000 HD 
HETATM   33  O   UNK A   0      -6.643   7.855  68.746  1.00  0.00    -0.050 OA 
BRANCH  31  34
ATOM     34  N   SER A   1      -7.312   8.189  66.587  1.00  0.00    -0.081 NA 
ATOM     35  H   SER A   1      -6.372   8.398  66.250  1.00  0.00     0.000 HD 
BRANCH  34  36
ATOM     36  CA  SER A   1      -8.424   7.867  65.641  1.00  0.00    -0.147 C  
BRANCH  36  37
ATOM     37  CB  SER A   1      -8.654   9.091  64.750  1.00  0.00    -0.175 C  
ATOM     38  HG  SER A   1      -7.641  10.107  63.400  1.00  0.00     0.000 HD 
ATOM     39  OG  SER A   1      -7.498   9.347  63.952  1.00  0.00    -0.109 OA 
ENDBRANCH  36  37
BRANCH  36  40
ATOM     40  C   SER A   1      -8.029   6.649  64.785  1.00  0.00    -0.118 C  
ATOM     41  H   SER A   1      -6.481   5.440  64.612  1.00  0.00     0.000 HD 
ATOM     42  O   SER A   1      -6.725   6.191  65.140  1.00  0.00    -0.042 OA 
ENDBRANCH  36  40
ENDBRANCH  34  36
ENDBRANCH  31  34
ENDBRANCH  18  31
ENDBRANCH   8  10
ENDBRANCH   5   8
ENDBRANCH   1   5
TORSDOF 13
ENDMDL
MODEL       53
REMARK 921   NORMALIZED FREE ENERGY PREDICTED BY IDOCK:   -4.67 KCAL/MOL
REMARK 922        TOTAL FREE ENERGY PREDICTED BY IDOCK:   -9.14 KCAL/MOL
REMARK 923 INTER-LIGAND FREE ENERGY PREDICTED BY IDOCK:   -8.15 KCAL/MOL
REMARK 924 INTRA-LIGAND FREE ENERGY PREDICTED BY IDOCK:   -0.99 KCAL/MOL
REMARK 927      BINDING AFFINITY PREDICTED BY RF-SCORE:    0.00 PKD
ROOT
HETATM    1  C   UNK A   0     -11.397  13.682  65.937  1.00  0.00    -0.309 C  
HETATM    2  O   UNK A   0     -10.232  14.045  65.175  1.00  0.00    -0.381 OA 
HETATM    3  C   UNK A   0     -12.413  13.051  65.011  1.00  0.00    -0.534 C  
HETATM    4  H   UNK A   0      -9.594  14.442  65.756  1.00  0.00     0.000 HD 
ENDROOT
BRANCH   1   5
HETATM    5  C   UNK A   0     -10.945  12.674  66.979  1.00  0.00    -0.265 C  
HETATM    6  O   UNK A   0     -10.012  13.172  67.824  1.00  0.00    -0.216 OA 
HETATM    7  H   UNK A   0      -9.729  12.542  68.476  1.00  0.00     0.000 HD 
BRANCH   5   8
HETATM    8  N   UNK A   0     -11.441  11.485  67.079  1.00  0.00    -0.496 NA 
HETATM    9  H   UNK A   0     -12.381  11.291  66.737  1.00  0.00     0.000 HD 
BRANCH   8  10
HETATM   10  C   UNK A   0     -10.663  10.445  67.673  1.00  0.00    -0.286 A  
HETATM   11  C   UNK A   0     -10.778  10.114  69.044  1.00  0.00    -0.221 A  
HETATM   12  I   UNK A   0     -12.290  11.175  70.227  1.00  0.00    -0.308 I  
HETATM   13  C   UNK A   0     -10.060   9.027  69.588  1.00  0.00    -0.202 A  
HETATM   14  I   UNK A   0      -9.519  10.332  64.819  1.00  0.00    -0.384 I  
HETATM   15  C   UNK A   0      -9.441   8.112  68.687  1.00  0.00    -0.147 A  
HETATM   16  I   UNK A   0      -9.096   6.091  69.440  1.00  0.00    -0.155 I  
HETATM   17  C   UNK A   0      -9.865   9.613  66.830  1.00  0.00    -0.200 A  
HETATM   18  C   UNK A   0      -9.319   8.392  67.293  1.00  0.00    -0.181 A  
BRANCH  13  19
HETATM   19  C   UNK A   0      -9.831   8.863  71.058  1.00  0.00    -0.253 C  
HETATM   20  O   UNK A   0      -8.605   9.149  71.517  1.00  0.00    -0.339 OA 
HETATM   21  H   UNK A   0      -8.460   9.045  72.450  1.00  0.00     0.000 HD 
BRANCH  19  22
ATOM     22  N   SER A   1     -10.753   8.481  71.871  1.00  0.00    -0.297 NA 
ATOM     23  H   SER A   1     -11.516   9.105  72.133  1.00  0.00     0.000 HD 
BRANCH  22  24
ATOM     24  CA  SER A   1     -10.670   7.097  72.416  1.00  0.00    -0.241 C  
BRANCH  24  25
ATOM     25  C   SER A   1     -12.041   6.436  72.180  1.00  0.00    -0.268 C  
ATOM     26  H   SER A   1     -13.448   6.481  70.805  1.00  0.00     0.000 HD 
ATOM     27  O   SER A   1     -12.602   6.889  70.950  1.00  0.00    -0.357 OA 
ENDBRANCH  24  25
BRANCH  24  28
ATOM     28  CB  SER A   1     -10.379   7.071  73.931  1.00  0.00    -0.348 C  
ATOM     29  OG  SER A   1      -9.216   7.802  74.317  1.00  0.00    -0.422 OA 
ATOM     30  HG  SER A   1      -9.037   7.786  75.250  1.00  0.00     0.000 HD 
ENDBRANCH  24  28
ENDBRANCH  22  24
ENDBRANCH  19  22
ENDBRANCH  13  19
BRANCH  18  31
HETATM   31  C   UNK A   0      -8.690   7.386  66.360  1.00  0.00    -0.142 C  
HETATM   32  H   UNK A   0      -6.951   6.818  65.681  1.00  0.00     0.000 HD 
HETATM   33  O   UNK A   0      -7.348   7.451  66.268  1.00  0.00    -0.079 OA 
BRANCH  31  34
ATOM     34  N   SER A   1      -9.348   6.548  65.635  1.00  0.00    -0.368 NA 
ATOM     35  H   SER A   1     -10.283   6.766  65.288  1.00  0.00     0.000 HD 
BRANCH  34  36
ATOM     36  CA  SER A   1      -8.687   5.245  65.322  1.00  0.00    -0.151 C  
BRANCH  36  37
ATOM     37  CB  SER A   1      -9.648   4.121  65.719  1.00  0.00    -0.190 C  
ATOM     38  HG  SER A   1     -11.591   3.900  65.966  1.00  0.00     0.000 HD 
ATOM     39  OG  SER A   1     -10.994   4.597  65.719  1.00  0.00    -0.237 OA 
ENDBRANCH  36  37
BRANCH  36  40
ATOM     40  C   SER A   1      -8.380   5.179  63.814  1.00  0.00    -0.130 C  
ATOM     41  H   SER A   1      -6.804   5.373  62.645  1.00  0.00     0.000 HD 
ATOM     42  O   SER A   1      -6.994   5.413  63.574  1.00  0.00    -0.044 OA 
ENDBRANCH  36  40
ENDBRANCH  34  36
ENDBRANCH  31  34
ENDBRANCH  18  31
ENDBRANCH   8  10
ENDBRANCH   5   8
ENDBRANCH   1   5
TORSDOF 13
ENDMDL
MODEL       54
REMARK 921   NORMALIZED FREE ENERGY PREDICTED BY IDOCK:   -4.66 KCAL/MOL
REMARK 922        TOTAL FREE ENERGY PREDICTED BY IDOCK:   -9.13 KCAL/MOL
REMARK 923 INTER-LIGAND FREE ENERGY PREDICTED BY IDOCK:   -8.53 KCAL/MOL
REMARK 924 INTRA-LIGAND FREE ENERGY PREDICTED BY IDOCK:   -0.61 KCAL/MOL
REMARK 927      BINDING AFFINITY PREDICTED BY RF-SCORE:    0.00 PKD
ROOT
HETATM    1  C   UNK A   0     -12.801  14.331  71.528  1.00  0.00    -0.346 C  
HETATM    2  O   UNK A   0     -13.920  15.002  70.923  1.00  0.00    -0.661 OA 
HETATM    3  C   UNK A   0     -12.634  14.834  72.945  1.00  0.00    -0.482 C  
HETATM    4  H   UNK A   0     -14.024  14.686  70.033  1.00  0.00     0.000 HD 
ENDROOT
BRANCH   1   5
HETATM    5  C   UNK A   0     -13.128  12.848  71.537  1.00  0.00    -0.298 C  
HETATM    6  O   UNK A   0     -13.442  12.384  72.769  1.00  0.00    -0.547 OA 
HETATM    7  H   UNK A   0     -13.647  11.457  72.775  1.00  0.00     0.000 HD 
BRANCH   5   8
HETATM    8  N   UNK A   0     -13.156  12.121  70.469  1.00  0.00     0.324 NA 
HETATM    9  H   UNK A   0     -14.009  12.058  69.913  1.00  0.00     0.000 HD 
BRANCH   8  10
HETATM   10  C   UNK A   0     -11.985  11.407  70.072  1.00  0.00    -0.363 A  
HETATM   11  C   UNK A   0     -11.070  11.934  69.130  1.00  0.00    -0.228 A  
HETATM   12  I   UNK A   0     -11.439  13.959  68.371  1.00  0.00    -0.414 I  
HETATM   13  C   UNK A   0      -9.878  11.246  68.817  1.00  0.00    -0.194 A  
HETATM   14  I   UNK A   0     -13.201   9.318  71.975  1.00  0.00    -0.576 I  
HETATM   15  C   UNK A   0      -9.485  10.165  69.659  1.00  0.00    -0.200 A  
HETATM   16  I   UNK A   0      -7.352   9.693  69.701  1.00  0.00    -0.144 I  
HETATM   17  C   UNK A   0     -11.645  10.202  70.759  1.00  0.00    -0.357 A  
HETATM   18  C   UNK A   0     -10.364   9.613  70.638  1.00  0.00    -0.365 A  
BRANCH  13  19
HETATM   19  C   UNK A   0      -9.079  11.532  67.583  1.00  0.00    -0.168 C  
HETATM   20  O   UNK A   0      -8.072  12.409  67.702  1.00  0.00    -0.145 OA 
HETATM   21  H   UNK A   0      -7.565  12.590  66.919  1.00  0.00     0.000 HD 
BRANCH  19  22
ATOM     22  N   SER A   1      -9.315  10.967  66.451  1.00  0.00    -0.172 NA 
ATOM     23  H   SER A   1     -10.163  11.176  65.925  1.00  0.00     0.000 HD 
BRANCH  22  24
ATOM     24  CA  SER A   1      -8.309   9.997  65.934  1.00  0.00    -0.127 C  
BRANCH  24  25
ATOM     25  C   SER A   1      -8.180  10.247  64.420  1.00  0.00    -0.159 C  
ATOM     26  H   SER A   1      -9.319  10.070  62.825  1.00  0.00     0.000 HD 
ATOM     27  O   SER A   1      -9.399   9.916  63.759  1.00  0.00    -0.268 OA 
ENDBRANCH  24  25
BRANCH  24  28
ATOM     28  CB  SER A   1      -8.734   8.529  66.145  1.00  0.00    -0.152 C  
ATOM     29  OG  SER A   1     -10.146   8.330  66.198  1.00  0.00    -0.470 OA 
ATOM     30  HG  SER A   1     -10.407   7.426  66.328  1.00  0.00     0.000 HD 
ENDBRANCH  24  28
ENDBRANCH  22  24
ENDBRANCH  19  22
ENDBRANCH  13  19
BRANCH  18  31
HETATM   31  C   UNK A   0      -9.905   8.492  71.538  1.00  0.00    -0.239 C  
HETATM   32  H   UNK A   0      -8.768   8.150  73.086  1.00  0.00     0.000 HD 
HETATM   33  O   UNK A   0      -9.057   8.856  72.519  1.00  0.00    -0.349 OA 
BRANCH  31  34
ATOM     34  N   SER A   1     -10.222   7.252  71.383  1.00  0.00    -0.189 NA 
ATOM     35  H   SER A   1     -10.655   6.718  72.136  1.00  0.00     0.000 HD 
BRANCH  34  36
ATOM     36  CA  SER A   1      -9.930   6.630  70.056  1.00  0.00    -0.172 C  
BRANCH  36  37
ATOM     37  CB  SER A   1      -9.042   5.405  70.295  1.00  0.00    -0.136 C  
ATOM     38  HG  SER A   1      -9.278   3.452  70.422  1.00  0.00     0.000 HD 
ATOM     39  OG  SER A   1      -9.828   4.213  70.273  1.00  0.00    -0.203 OA 
ENDBRANCH  36  37
BRANCH  36  40
ATOM     40  C   SER A   1     -11.253   6.210  69.388  1.00  0.00    -0.396 C  
ATOM     41  H   SER A   1     -11.961   6.039  67.556  1.00  0.00     0.000 HD 
ATOM     42  O   SER A   1     -11.146   6.298  67.968  1.00  0.00    -0.333 OA 
ENDBRANCH  36  40
ENDBRANCH  34  36
ENDBRANCH  31  34
ENDBRANCH  18  31
ENDBRANCH   8  10
ENDBRANCH   5   8
ENDBRANCH   1   5
TORSDOF 13
ENDMDL
MODEL       55
REMARK 921   NORMALIZED FREE ENERGY PREDICTED BY IDOCK:   -4.65 KCAL/MOL
REMARK 922        TOTAL FREE ENERGY PREDICTED BY IDOCK:   -9.11 KCAL/MOL
REMARK 923 INTER-LIGAND FREE ENERGY PREDICTED BY IDOCK:   -8.07 KCAL/MOL
REMARK 924 INTRA-LIGAND FREE ENERGY PREDICTED BY IDOCK:   -1.04 KCAL/MOL
REMARK 927      BINDING AFFINITY PREDICTED BY RF-SCORE:    0.00 PKD
ROOT
HETATM    1  C   UNK A   0      -6.726  16.308  68.804  1.00  0.00    -0.144 C  
HETATM    2  O   UNK A   0      -5.471  15.971  69.422  1.00  0.00    -0.111 OA 
HETATM    3  C   UNK A   0      -6.940  17.801  68.909  1.00  0.00    -0.250 C  
HETATM    4  H   UNK A   0      -5.336  15.033  69.356  1.00  0.00     0.000 HD 
ENDROOT
BRANCH   1   5
HETATM    5  C   UNK A   0      -6.622  15.897  67.345  1.00  0.00    -0.188 C  
HETATM    6  O   UNK A   0      -5.564  16.457  66.714  1.00  0.00    -0.345 OA 
HETATM    7  H   UNK A   0      -5.499  16.201  65.801  1.00  0.00     0.000 HD 
BRANCH   5   8
HETATM    8  N   UNK A   0      -7.430  15.059  66.784  1.00  0.00    -0.278 NA 
HETATM    9  H   UNK A   0      -7.459  14.975  65.768  1.00  0.00     0.000 HD 
BRANCH   8  10
HETATM   10  C   UNK A   0      -8.284  14.252  67.597  1.00  0.00    -0.185 A  
HETATM   11  C   UNK A   0      -9.585  14.671  67.962  1.00  0.00    -0.212 A  
HETATM   12  I   UNK A   0     -10.316  16.567  67.137  1.00  0.00    -0.227 I  
HETATM   13  C   UNK A   0     -10.439  13.820  68.696  1.00  0.00    -0.245 A  
HETATM   14  I   UNK A   0      -5.792  12.447  67.574  1.00  0.00    -0.078 I  
HETATM   15  C   UNK A   0     -10.074  12.447  68.821  1.00  0.00    -0.055 A  
HETATM   16  I   UNK A   0     -11.705  11.038  69.178  1.00  0.00    -0.342 I  
HETATM   17  C   UNK A   0      -7.875  12.922  67.919  1.00  0.00    -0.151 A  
HETATM   18  C   UNK A   0      -8.781  11.973  68.447  1.00  0.00    -0.147 A  
BRANCH  13  19
HETATM   19  C   UNK A   0     -11.641  14.321  69.434  1.00  0.00    -0.306 C  
HETATM   20  O   UNK A   0     -12.720  14.629  68.700  1.00  0.00    -0.353 OA 
HETATM   21  H   UNK A   0     -13.482  14.947  69.169  1.00  0.00     0.000 HD 
BRANCH  19  22
ATOM     22  N   SER A   1     -11.672  14.447  70.714  1.00  0.00    -0.452 NA 
ATOM     23  H   SER A   1     -11.017  13.941  71.309  1.00  0.00     0.000 HD 
BRANCH  22  24
ATOM     24  CA  SER A   1     -12.696  15.357  71.300  1.00  0.00    -0.436 C  
BRANCH  24  25
ATOM     25  C   SER A   1     -12.073  15.988  72.559  1.00  0.00    -0.537 C  
ATOM     26  H   SER A   1     -12.671  16.509  74.360  1.00  0.00     0.000 HD 
ATOM     27  O   SER A   1     -13.056  16.120  73.583  1.00  0.00    -0.594 OA 
ENDBRANCH  24  25
BRANCH  24  28
ATOM     28  CB  SER A   1     -13.982  14.615  71.720  1.00  0.00    -0.477 C  
ATOM     29  OG  SER A   1     -13.754  13.452  72.514  1.00  0.00    -0.613 OA 
ATOM     30  HG  SER A   1     -14.546  12.995  72.773  1.00  0.00     0.000 HD 
ENDBRANCH  24  28
ENDBRANCH  22  24
ENDBRANCH  19  22
ENDBRANCH  13  19
BRANCH  18  31
HETATM   31  C   UNK A   0      -8.439  10.508  68.560  1.00  0.00    -0.131 C  
HETATM   32  H   UNK A   0      -8.138   9.111  69.888  1.00  0.00     0.000 HD 
HETATM   33  O   UNK A   0      -8.354  10.033  69.817  1.00  0.00    -0.171 OA 
BRANCH  31  34
ATOM     34  N   SER A   1      -8.177   9.738  67.559  1.00  0.00    -0.114 NA 
ATOM     35  H   SER A   1      -7.333   9.166  67.537  1.00  0.00     0.000 HD 
BRANCH  34  36
ATOM     36  CA  SER A   1      -9.160   9.718  66.433  1.00  0.00    -0.155 C  
BRANCH  36  37
ATOM     37  CB  SER A   1      -8.447  10.224  65.176  1.00  0.00    -0.168 C  
ATOM     38  HG  SER A   1      -6.755   9.867  64.232  1.00  0.00     0.000 HD 
ATOM     39  OG  SER A   1      -7.198   9.553  65.011  1.00  0.00    -0.101 OA 
ENDBRANCH  36  37
BRANCH  36  40
ATOM     40  C   SER A   1      -9.662   8.278  66.221  1.00  0.00    -0.183 C  
ATOM     41  H   SER A   1     -11.063   7.106  66.965  1.00  0.00     0.000 HD 
ATOM     42  O   SER A   1     -10.753   7.994  67.096  1.00  0.00    -0.322 OA 
ENDBRANCH  36  40
ENDBRANCH  34  36
ENDBRANCH  31  34
ENDBRANCH  18  31
ENDBRANCH   8  10
ENDBRANCH   5   8
ENDBRANCH   1   5
TORSDOF 13
ENDMDL
MODEL       56
REMARK 921   NORMALIZED FREE ENERGY PREDICTED BY IDOCK:   -4.65 KCAL/MOL
REMARK 922        TOTAL FREE ENERGY PREDICTED BY IDOCK:   -9.11 KCAL/MOL
REMARK 923 INTER-LIGAND FREE ENERGY PREDICTED BY IDOCK:   -7.81 KCAL/MOL
REMARK 924 INTRA-LIGAND FREE ENERGY PREDICTED BY IDOCK:   -1.30 KCAL/MOL
REMARK 927      BINDING AFFINITY PREDICTED BY RF-SCORE:    0.00 PKD
ROOT
HETATM    1  C   UNK A   0      -8.552  16.543  66.454  1.00  0.00    -0.312 C  
HETATM    2  O   UNK A   0      -9.783  16.891  65.795  1.00  0.00    -0.517 OA 
HETATM    3  C   UNK A   0      -7.453  17.454  65.955  1.00  0.00    -0.255 C  
HETATM    4  H   UNK A   0     -10.473  16.319  66.109  1.00  0.00     0.000 HD 
ENDROOT
BRANCH   1   5
HETATM    5  C   UNK A   0      -8.773  16.760  67.942  1.00  0.00    -0.203 C  
HETATM    6  O   UNK A   0      -9.299  17.973  68.226  1.00  0.00    -0.277 OA 
HETATM    7  H   UNK A   0      -9.437  18.109  69.156  1.00  0.00     0.000 HD 
BRANCH   5   8
HETATM    8  N   UNK A   0      -8.533  15.856  68.834  1.00  0.00    -0.205 NA 
HETATM    9  H   UNK A   0      -8.276  16.127  69.783  1.00  0.00     0.000 HD 
BRANCH   8  10
HETATM   10  C   UNK A   0      -8.630  14.475  68.481  1.00  0.00    -0.175 A  
HETATM   11  C   UNK A   0      -7.497  13.719  68.098  1.00  0.00    -0.124 A  
HETATM   12  I   UNK A   0      -5.539  14.705  68.173  1.00  0.00    -0.082 I  
HETATM   13  C   UNK A   0      -7.606  12.337  67.835  1.00  0.00    -0.127 A  
HETATM   14  I   UNK A   0     -11.609  15.052  68.992  1.00  0.00    -0.357 I  
HETATM   15  C   UNK A   0      -8.804  11.670  68.226  1.00  0.00    -0.167 A  
HETATM   16  I   UNK A   0      -8.643   9.523  68.597  1.00  0.00    -0.127 I  
HETATM   17  C   UNK A   0      -9.874  13.799  68.673  1.00  0.00    -0.157 A  
HETATM   18  C   UNK A   0      -9.965  12.387  68.641  1.00  0.00    -0.117 A  
BRANCH  13  19
HETATM   19  C   UNK A   0      -6.570  11.575  67.068  1.00  0.00    -0.138 C  
HETATM   20  O   UNK A   0      -5.600  10.984  67.779  1.00  0.00    -0.040 OA 
HETATM   21  H   UNK A   0      -4.943  10.501  67.292  1.00  0.00     0.000 HD 
BRANCH  19  22
ATOM     22  N   SER A   1      -6.591  11.463  65.786  1.00  0.00    -0.289 NA 
ATOM     23  H   SER A   1      -6.457  12.276  65.184  1.00  0.00     0.000 HD 
BRANCH  22  24
ATOM     24  CA  SER A   1      -6.819  10.109  65.208  1.00  0.00    -0.137 C  
BRANCH  24  25
ATOM     25  C   SER A   1      -5.780   9.916  64.088  1.00  0.00    -0.111 C  
ATOM     26  H   SER A   1      -5.612  10.369  62.180  1.00  0.00     0.000 HD 
ATOM     27  O   SER A   1      -6.253  10.489  62.871  1.00  0.00    -0.146 OA 
ENDBRANCH  24  25
BRANCH  24  28
ATOM     28  CB  SER A   1      -8.225   9.953  64.592  1.00  0.00    -0.153 C  
ATOM     29  OG  SER A   1      -8.830  11.182  64.195  1.00  0.00    -0.367 OA 
ATOM     30  HG  SER A   1      -9.696  11.086  63.816  1.00  0.00     0.000 HD 
ENDBRANCH  24  28
ENDBRANCH  22  24
ENDBRANCH  19  22
ENDBRANCH  13  19
BRANCH  18  31
HETATM   31  C   UNK A   0     -11.206  11.651  69.083  1.00  0.00    -0.263 C  
HETATM   32  H   UNK A   0     -12.789  10.766  68.365  1.00  0.00     0.000 HD 
HETATM   33  O   UNK A   0     -12.008  11.230  68.087  1.00  0.00    -0.610 OA 
BRANCH  31  34
ATOM     34  N   SER A   1     -11.549  11.467  70.312  1.00  0.00    -0.475 NA 
ATOM     35  H   SER A   1     -11.189  12.063  71.058  1.00  0.00     0.000 HD 
BRANCH  34  36
ATOM     36  CA  SER A   1     -12.494  10.345  70.600  1.00  0.00    -0.348 C  
BRANCH  36  37
ATOM     37  CB  SER A   1     -11.670   9.068  70.783  1.00  0.00    -0.242 C  
ATOM     38  HG  SER A   1     -10.494   8.292  72.160  1.00  0.00     0.000 HD 
ATOM     39  OG  SER A   1     -11.006   9.084  72.047  1.00  0.00    -0.358 OA 
ENDBRANCH  36  37
BRANCH  36  40
ATOM     40  C   SER A   1     -13.283  10.662  71.885  1.00  0.00    -0.423 C  
ATOM     41  H   SER A   1     -13.791  12.263  72.917  1.00  0.00     0.000 HD 
ATOM     42  O   SER A   1     -13.304  12.068  72.125  1.00  0.00    -0.510 OA 
ENDBRANCH  36  40
ENDBRANCH  34  36
ENDBRANCH  31  34
ENDBRANCH  18  31
ENDBRANCH   8  10
ENDBRANCH   5   8
ENDBRANCH   1   5
TORSDOF 13
ENDMDL
MODEL       57
REMARK 921   NORMALIZED FREE ENERGY PREDICTED BY IDOCK:   -4.63 KCAL/MOL
REMARK 922        TOTAL FREE ENERGY PREDICTED BY IDOCK:   -9.09 KCAL/MOL
REMARK 923 INTER-LIGAND FREE ENERGY PREDICTED BY IDOCK:   -7.78 KCAL/MOL
REMARK 924 INTRA-LIGAND FREE ENERGY PREDICTED BY IDOCK:   -1.31 KCAL/MOL
REMARK 927      BINDING AFFINITY PREDICTED BY RF-SCORE:    0.00 PKD
ROOT
HETATM    1  C   UNK A   0     -12.144  15.688  70.346  1.00  0.00    -0.394 C  
HETATM    2  O   UNK A   0     -13.534  15.331  70.248  1.00  0.00    -0.646 OA 
HETATM    3  C   UNK A   0     -11.752  15.741  71.806  1.00  0.00    -0.562 C  
HETATM    4  H   UNK A   0     -13.780  15.298  69.331  1.00  0.00     0.000 HD 
ENDROOT
BRANCH   1   5
HETATM    5  C   UNK A   0     -11.359  14.598  69.635  1.00  0.00    -0.280 C  
HETATM    6  O   UNK A   0     -10.042  14.609  69.945  1.00  0.00    -0.434 OA 
HETATM    7  H   UNK A   0      -9.551  13.928  69.500  1.00  0.00     0.000 HD 
BRANCH   5   8
HETATM    8  N   UNK A   0     -11.906  13.722  68.859  1.00  0.00    -0.342 NA 
HETATM    9  H   UNK A   0     -12.757  13.951  68.346  1.00  0.00     0.000 HD 
BRANCH   8  10
HETATM   10  C   UNK A   0     -11.310  12.430  68.724  1.00  0.00    -0.293 A  
HETATM   11  C   UNK A   0     -11.563  11.390  69.649  1.00  0.00    -0.330 A  
HETATM   12  I   UNK A   0     -13.008  11.779  71.254  1.00  0.00     0.136 I  
HETATM   13  C   UNK A   0     -11.029  10.099  69.448  1.00  0.00    -0.285 A  
HETATM   14  I   UNK A   0      -9.992  13.822  66.317  1.00  0.00    -0.290 I  
HETATM   15  C   UNK A   0     -10.469   9.794  68.173  1.00  0.00    -0.216 A  
HETATM   16  I   UNK A   0     -10.438   7.684  67.606  1.00  0.00    -0.233 I  
HETATM   17  C   UNK A   0     -10.567  12.133  67.542  1.00  0.00    -0.214 A  
HETATM   18  C   UNK A   0     -10.215  10.806  67.199  1.00  0.00    -0.255 A  
BRANCH  13  19
HETATM   19  C   UNK A   0     -10.927   9.086  70.546  1.00  0.00    -0.252 C  
HETATM   20  O   UNK A   0     -12.014   8.341  70.787  1.00  0.00    -0.442 OA 
HETATM   21  H   UNK A   0     -11.949   7.698  71.484  1.00  0.00     0.000 HD 
BRANCH  19  22
ATOM     22  N   SER A   1      -9.854   8.906  71.233  1.00  0.00    -0.263 NA 
ATOM     23  H   SER A   1      -9.145   9.637  71.304  1.00  0.00     0.000 HD 
BRANCH  22  24
ATOM     24  CA  SER A   1      -9.679   7.598  71.923  1.00  0.00    -0.164 C  
BRANCH  24  25
ATOM     25  C   SER A   1      -8.926   7.877  73.237  1.00  0.00    -0.264 C  
ATOM     26  H   SER A   1      -7.310   8.851  73.796  1.00  0.00     0.000 HD 
ATOM     27  O   SER A   1      -7.775   8.679  72.985  1.00  0.00    -0.361 OA 
ENDBRANCH  24  25
BRANCH  24  28
ATOM     28  CB  SER A   1      -8.848   6.595  71.096  1.00  0.00    -0.137 C  
ATOM     29  OG  SER A   1      -7.691   7.158  70.483  1.00  0.00    -0.091 OA 
ATOM     30  HG  SER A   1      -7.179   6.541  69.974  1.00  0.00     0.000 HD 
ENDBRANCH  24  28
ENDBRANCH  22  24
ENDBRANCH  19  22
ENDBRANCH  13  19
BRANCH  18  31
HETATM   31  C   UNK A   0      -9.655  10.445  65.845  1.00  0.00    -0.206 C  
HETATM   32  H   UNK A   0     -10.154  10.368  63.961  1.00  0.00     0.000 HD 
HETATM   33  O   UNK A   0     -10.507  10.595  64.813  1.00  0.00    -0.325 OA 
BRANCH  31  34
ATOM     34  N   SER A   1      -8.475   9.965  65.646  1.00  0.00    -0.139 NA 
ATOM     35  H   SER A   1      -8.288   9.319  64.879  1.00  0.00     0.000 HD 
BRANCH  34  36
ATOM     36  CA  SER A   1      -7.392  10.394  66.583  1.00  0.00    -0.114 C  
BRANCH  36  37
ATOM     37  CB  SER A   1      -7.057   9.208  67.491  1.00  0.00    -0.079 C  
ATOM     38  HG  SER A   1      -7.248   8.749  69.398  1.00  0.00     0.000 HD 
ATOM     39  OG  SER A   1      -7.456   9.484  68.834  1.00  0.00    -0.072 OA 
ENDBRANCH  36  37
BRANCH  36  40
ATOM     40  C   SER A   1      -6.152  10.813  65.770  1.00  0.00    -0.116 C  
ATOM     41  H   SER A   1      -5.347  10.375  64.024  1.00  0.00     0.000 HD 
ATOM     42  O   SER A   1      -6.111  10.117  64.525  1.00  0.00    -0.117 OA 
ENDBRANCH  36  40
ENDBRANCH  34  36
ENDBRANCH  31  34
ENDBRANCH  18  31
ENDBRANCH   8  10
ENDBRANCH   5   8
ENDBRANCH   1   5
TORSDOF 13
ENDMDL
MODEL       58
REMARK 921   NORMALIZED FREE ENERGY PREDICTED BY IDOCK:   -4.63 KCAL/MOL
REMARK 922        TOTAL FREE ENERGY PREDICTED BY IDOCK:   -9.08 KCAL/MOL
REMARK 923 INTER-LIGAND FREE ENERGY PREDICTED BY IDOCK:   -8.02 KCAL/MOL
REMARK 924 INTRA-LIGAND FREE ENERGY PREDICTED BY IDOCK:   -1.06 KCAL/MOL
REMARK 927      BINDING AFFINITY PREDICTED BY RF-SCORE:    0.00 PKD
ROOT
HETATM    1  C   UNK A   0      -6.635  17.039  66.461  1.00  0.00    -0.219 C  
HETATM    2  O   UNK A   0      -7.565  17.737  65.613  1.00  0.00    -0.541 OA 
HETATM    3  C   UNK A   0      -5.232  17.497  66.133  1.00  0.00    -0.215 C  
HETATM    4  H   UNK A   0      -8.446  17.449  65.820  1.00  0.00     0.000 HD 
ENDROOT
BRANCH   1   5
HETATM    5  C   UNK A   0      -6.982  17.409  67.893  1.00  0.00    -0.175 C  
HETATM    6  O   UNK A   0      -6.896  18.738  68.131  1.00  0.00    -0.229 OA 
HETATM    7  H   UNK A   0      -7.113  18.969  69.026  1.00  0.00     0.000 HD 
BRANCH   5   8
HETATM    8  N   UNK A   0      -7.372  16.547  68.774  1.00  0.00    -0.195 NA 
HETATM    9  H   UNK A   0      -7.166  16.693  69.761  1.00  0.00     0.000 HD 
BRANCH   8  10
HETATM   10  C   UNK A   0      -8.093  15.387  68.354  1.00  0.00    -0.140 A  
HETATM   11  C   UNK A   0      -7.468  14.124  68.226  1.00  0.00    -0.125 A  
HETATM   12  I   UNK A   0      -5.361  13.962  68.811  1.00  0.00    -0.099 I  
HETATM   13  C   UNK A   0      -8.220  12.977  67.890  1.00  0.00    -0.166 A  
HETATM   14  I   UNK A   0     -10.357  17.461  68.152  1.00  0.00    -0.361 I  
HETATM   15  C   UNK A   0      -9.641  13.063  67.954  1.00  0.00    -0.215 A  
HETATM   16  I   UNK A   0     -10.714  11.185  68.266  1.00  0.00    -0.323 I  
HETATM   17  C   UNK A   0      -9.511  15.470  68.212  1.00  0.00    -0.200 A  
HETATM   18  C   UNK A   0     -10.316  14.311  68.103  1.00  0.00    -0.233 A  
BRANCH  13  19
HETATM   19  C   UNK A   0      -7.592  11.723  67.366  1.00  0.00    -0.143 C  
HETATM   20  O   UNK A   0      -6.974  10.935  68.257  1.00  0.00    -0.066 OA 
HETATM   21  H   UNK A   0      -6.576  10.139  67.925  1.00  0.00     0.000 HD 
BRANCH  19  22
ATOM     22  N   SER A   1      -7.638  11.384  66.126  1.00  0.00    -0.367 NA 
ATOM     23  H   SER A   1      -7.954  12.040  65.412  1.00  0.00     0.000 HD 
BRANCH  22  24
ATOM     24  CA  SER A   1      -7.216  10.001  65.765  1.00  0.00    -0.117 C  
BRANCH  24  25
ATOM     25  C   SER A   1      -6.710  10.048  64.312  1.00  0.00    -0.128 C  
ATOM     26  H   SER A   1      -7.412  10.592  62.555  1.00  0.00     0.000 HD 
ATOM     27  O   SER A   1      -7.724  10.564  63.452  1.00  0.00    -0.110 OA 
ENDBRANCH  24  25
BRANCH  24  28
ATOM     28  CB  SER A   1      -8.375   8.986  65.838  1.00  0.00    -0.125 C  
ATOM     29  OG  SER A   1      -9.503   9.327  65.034  1.00  0.00    -0.432 OA 
ATOM     30  HG  SER A   1     -10.217   8.701  65.079  1.00  0.00     0.000 HD 
ENDBRANCH  24  28
ENDBRANCH  22  24
ENDBRANCH  19  22
ENDBRANCH  13  19
BRANCH  18  31
HETATM   31  C   UNK A   0     -11.821  14.363  68.203  1.00  0.00    -0.327 C  
HETATM   32  H   UNK A   0     -13.428  14.150  67.118  1.00  0.00     0.000 HD 
HETATM   33  O   UNK A   0     -12.481  14.117  67.055  1.00  0.00    -0.325 OA 
BRANCH  31  34
ATOM     34  N   SER A   1     -12.474  14.677  69.270  1.00  0.00    -0.572 NA 
ATOM     35  H   SER A   1     -13.329  15.232  69.224  1.00  0.00     0.000 HD 
BRANCH  34  36
ATOM     36  CA  SER A   1     -11.927  14.196  70.575  1.00  0.00    -0.323 C  
BRANCH  36  37
ATOM     37  CB  SER A   1     -11.449  15.417  71.365  1.00  0.00    -0.406 C  
ATOM     38  HG  SER A   1     -12.270  16.905  72.364  1.00  0.00     0.000 HD 
ATOM     39  OG  SER A   1     -12.567  16.147  71.874  1.00  0.00    -0.432 OA 
ENDBRANCH  36  37
BRANCH  36  40
ATOM     40  C   SER A   1     -13.035  13.458  71.349  1.00  0.00    -0.328 C  
ATOM     41  H   SER A   1     -13.472  11.597  71.834  1.00  0.00     0.000 HD 
ATOM     42  O   SER A   1     -12.789  12.052  71.356  1.00  0.00    -0.381 OA 
ENDBRANCH  36  40
ENDBRANCH  34  36
ENDBRANCH  31  34
ENDBRANCH  18  31
ENDBRANCH   8  10
ENDBRANCH   5   8
ENDBRANCH   1   5
TORSDOF 13
ENDMDL
MODEL       59
REMARK 921   NORMALIZED FREE ENERGY PREDICTED BY IDOCK:   -4.62 KCAL/MOL
REMARK 922        TOTAL FREE ENERGY PREDICTED BY IDOCK:   -9.06 KCAL/MOL
REMARK 923 INTER-LIGAND FREE ENERGY PREDICTED BY IDOCK:   -8.41 KCAL/MOL
REMARK 924 INTRA-LIGAND FREE ENERGY PREDICTED BY IDOCK:   -0.66 KCAL/MOL
REMARK 927      BINDING AFFINITY PREDICTED BY RF-SCORE:    0.00 PKD
ROOT
HETATM    1  C   UNK A   0     -12.759   9.397  71.720  1.00  0.00    -0.390 C  
HETATM    2  O   UNK A   0     -13.790   8.505  71.260  1.00  0.00    -0.552 OA 
HETATM    3  C   UNK A   0     -11.572   8.580  72.179  1.00  0.00    -0.447 C  
HETATM    4  H   UNK A   0     -14.536   9.018  70.972  1.00  0.00     0.000 HD 
ENDROOT
BRANCH   1   5
HETATM    5  C   UNK A   0     -12.368  10.264  70.535  1.00  0.00    -0.284 C  
HETATM    6  O   UNK A   0     -13.360  10.392  69.625  1.00  0.00    -0.372 OA 
HETATM    7  H   UNK A   0     -13.116  10.934  68.884  1.00  0.00     0.000 HD 
BRANCH   5   8
HETATM    8  N   UNK A   0     -11.225  10.860  70.439  1.00  0.00    -0.462 NA 
HETATM    9  H   UNK A   0     -10.650  11.005  71.269  1.00  0.00     0.000 HD 
BRANCH   8  10
HETATM   10  C   UNK A   0     -10.773  11.314  69.162  1.00  0.00    -0.207 A  
HETATM   11  C   UNK A   0     -10.009  10.491  68.303  1.00  0.00    -0.159 A  
HETATM   12  I   UNK A   0      -9.630   8.425  68.937  1.00  0.00    -0.169 I  
HETATM   13  C   UNK A   0      -9.645  10.933  67.013  1.00  0.00    -0.197 A  
HETATM   14  I   UNK A   0     -12.160  13.886  70.126  1.00  0.00    -0.331 I  
HETATM   15  C   UNK A   0     -10.287  12.096  66.495  1.00  0.00    -0.213 A  
HETATM   16  I   UNK A   0     -10.372  12.272  64.319  1.00  0.00    -0.388 I  
HETATM   17  C   UNK A   0     -11.236  12.574  68.675  1.00  0.00    -0.278 A  
HETATM   18  C   UNK A   0     -11.085  12.947  67.318  1.00  0.00    -0.309 A  
BRANCH  13  19
HETATM   19  C   UNK A   0      -8.542  10.302  66.221  1.00  0.00    -0.137 C  
HETATM   20  O   UNK A   0      -7.287  10.631  66.559  1.00  0.00    -0.120 OA 
HETATM   21  H   UNK A   0      -6.588  10.230  66.056  1.00  0.00     0.000 HD 
BRANCH  19  22
ATOM     22  N   SER A   1      -8.757   9.468  65.265  1.00  0.00    -0.155 NA 
ATOM     23  H   SER A   1      -9.642   9.465  64.758  1.00  0.00     0.000 HD 
BRANCH  22  24
ATOM     24  CA  SER A   1      -7.672   8.506  64.923  1.00  0.00    -0.105 C  
BRANCH  24  25
ATOM     25  C   SER A   1      -7.514   8.530  63.391  1.00  0.00    -0.112 C  
ATOM     26  H   SER A   1      -8.668   8.828  61.825  1.00  0.00     0.000 HD 
ATOM     27  O   SER A   1      -8.766   8.813  62.770  1.00  0.00    -0.173 OA 
ENDBRANCH  24  25
BRANCH  24  28
ATOM     28  CB  SER A   1      -8.002   7.060  65.349  1.00  0.00    -0.129 C  
ATOM     29  OG  SER A   1      -9.357   6.677  65.122  1.00  0.00    -0.120 OA 
ATOM     30  HG  SER A   1      -9.560   5.787  65.384  1.00  0.00     0.000 HD 
ENDBRANCH  24  28
ENDBRANCH  22  24
ENDBRANCH  19  22
ENDBRANCH  13  19
BRANCH  18  31
HETATM   31  C   UNK A   0     -11.780  14.151  66.731  1.00  0.00    -0.410 C  
HETATM   32  H   UNK A   0     -13.355  14.643  65.690  1.00  0.00     0.000 HD 
HETATM   33  O   UNK A   0     -12.917  13.885  66.059  1.00  0.00    -0.378 OA 
BRANCH  31  34
ATOM     34  N   SER A   1     -11.328  15.357  66.787  1.00  0.00    -0.200 NA 
ATOM     35  H   SER A   1     -11.879  16.111  67.196  1.00  0.00     0.000 HD 
BRANCH  34  36
ATOM     36  CA  SER A   1      -9.964  15.605  66.228  1.00  0.00    -0.295 C  
BRANCH  36  37
ATOM     37  CB  SER A   1     -10.010  16.914  65.435  1.00  0.00     0.181 C  
ATOM     38  HG  SER A   1     -11.072  17.673  63.959  1.00  0.00     0.000 HD 
ATOM     39  OG  SER A   1     -11.043  16.861  64.451  1.00  0.00    -1.128 OA 
ENDBRANCH  36  37
BRANCH  36  40
ATOM     40  C   SER A   1      -8.953  15.715  67.385  1.00  0.00    -0.194 C  
ATOM     41  H   SER A   1      -7.518  16.947  67.943  1.00  0.00     0.000 HD 
ATOM     42  O   SER A   1      -8.142  16.879  67.230  1.00  0.00    -0.175 OA 
ENDBRANCH  36  40
ENDBRANCH  34  36
ENDBRANCH  31  34
ENDBRANCH  18  31
ENDBRANCH   8  10
ENDBRANCH   5   8
ENDBRANCH   1   5
TORSDOF 13
ENDMDL
MODEL       60
REMARK 921   NORMALIZED FREE ENERGY PREDICTED BY IDOCK:   -4.61 KCAL/MOL
REMARK 922        TOTAL FREE ENERGY PREDICTED BY IDOCK:   -9.05 KCAL/MOL
REMARK 923 INTER-LIGAND FREE ENERGY PREDICTED BY IDOCK:   -9.66 KCAL/MOL
REMARK 924 INTRA-LIGAND FREE ENERGY PREDICTED BY IDOCK:    0.60 KCAL/MOL
REMARK 927      BINDING AFFINITY PREDICTED BY RF-SCORE:    0.00 PKD
ROOT
HETATM    1  C   UNK A   0      -7.187   7.679  65.896  1.00  0.00    -0.069 C  
HETATM    2  O   UNK A   0      -7.254   6.459  66.654  1.00  0.00    -0.074 OA 
HETATM    3  C   UNK A   0      -5.963   7.640  65.008  1.00  0.00    -0.038 C  
HETATM    4  H   UNK A   0      -8.022   6.484  67.212  1.00  0.00     0.000 HD 
ENDROOT
BRANCH   1   5
HETATM    5  C   UNK A   0      -8.446   7.740  65.047  1.00  0.00    -0.036 C  
HETATM    6  O   UNK A   0      -8.236   7.361  63.765  1.00  0.00    -0.327 OA 
HETATM    7  H   UNK A   0      -9.023   7.399  63.234  1.00  0.00     0.000 HD 
BRANCH   5   8
HETATM    8  N   UNK A   0      -9.604   8.067  65.518  1.00  0.00    -0.222 NA 
HETATM    9  H   UNK A   0     -10.418   7.482  65.331  1.00  0.00     0.000 HD 
BRANCH   8  10
HETATM   10  C   UNK A   0      -9.736   9.255  66.301  1.00  0.00    -0.271 A  
HETATM   11  C   UNK A   0      -9.662  10.544  65.723  1.00  0.00    -0.223 A  
HETATM   12  I   UNK A   0      -9.455  10.676  63.543  1.00  0.00    -0.395 I  
HETATM   13  C   UNK A   0      -9.879  11.700  66.504  1.00  0.00    -0.228 A  
HETATM   14  I   UNK A   0      -9.938   7.168  68.553  1.00  0.00    -0.198 I  
HETATM   15  C   UNK A   0     -10.439  11.536  67.805  1.00  0.00    -0.188 A  
HETATM   16  I   UNK A   0     -11.517  13.252  68.620  1.00  0.00    -0.412 I  
HETATM   17  C   UNK A   0     -10.110   9.138  67.674  1.00  0.00    -0.220 A  
HETATM   18  C   UNK A   0     -10.554  10.254  68.421  1.00  0.00    -0.247 A  
BRANCH  13  19
HETATM   19  C   UNK A   0      -9.444  13.064  66.069  1.00  0.00    -0.096 C  
HETATM   20  O   UNK A   0      -8.456  13.639  66.769  1.00  0.00    -0.419 OA 
HETATM   21  H   UNK A   0      -8.180  14.505  66.492  1.00  0.00     0.000 HD 
BRANCH  19  22
ATOM     22  N   SER A   1      -9.966  13.677  65.064  1.00  0.00    -0.592 NA 
ATOM     23  H   SER A   1      -9.548  13.617  64.136  1.00  0.00     0.000 HD 
BRANCH  22  24
ATOM     24  CA  SER A   1     -11.200  14.477  65.302  1.00  0.00    -0.352 C  
BRANCH  24  25
ATOM     25  C   SER A   1     -12.247  14.007  64.275  1.00  0.00    -0.418 C  
ATOM     26  H   SER A   1     -13.668  12.649  64.182  1.00  0.00     0.000 HD 
ATOM     27  O   SER A   1     -13.022  12.939  64.815  1.00  0.00    -0.743 OA 
ENDBRANCH  24  25
BRANCH  24  28
ATOM     28  CB  SER A   1     -10.976  15.991  65.101  1.00  0.00    -0.348 C  
ATOM     29  OG  SER A   1     -11.332  16.469  63.805  1.00  0.00    -1.553 OA 
ATOM     30  HG  SER A   1     -11.194  17.401  63.682  1.00  0.00     0.000 HD 
ENDBRANCH  24  28
ENDBRANCH  22  24
ENDBRANCH  19  22
ENDBRANCH  13  19
BRANCH  18  31
HETATM   31  C   UNK A   0     -11.184  10.111  69.785  1.00  0.00    -0.272 C  
HETATM   32  H   UNK A   0     -12.927  10.083  70.662  1.00  0.00     0.000 HD 
HETATM   33  O   UNK A   0     -12.530  10.172  69.804  1.00  0.00    -0.004 OA 
BRANCH  31  34
ATOM     34  N   SER A   1     -10.526  10.000  70.888  1.00  0.00    -0.341 NA 
ATOM     35  H   SER A   1     -10.127  10.816  71.351  1.00  0.00     0.000 HD 
BRANCH  34  36
ATOM     36  CA  SER A   1     -10.373   8.627  71.459  1.00  0.00    -0.271 C  
BRANCH  36  37
ATOM     37  CB  SER A   1      -9.345   8.700  72.591  1.00  0.00    -0.095 C  
ATOM     38  HG  SER A   1      -7.420   9.082  72.774  1.00  0.00     0.000 HD 
ATOM     39  OG  SER A   1      -8.058   9.038  72.072  1.00  0.00    -0.360 OA 
ENDBRANCH  36  37
BRANCH  36  40
ATOM     40  C   SER A   1     -11.732   8.147  72.001  1.00  0.00    -0.332 C  
ATOM     41  H   SER A   1     -12.768   6.469  72.036  1.00  0.00     0.000 HD 
ATOM     42  O   SER A   1     -11.930   6.766  71.701  1.00  0.00    -0.311 OA 
ENDBRANCH  36  40
ENDBRANCH  34  36
ENDBRANCH  31  34
ENDBRANCH  18  31
ENDBRANCH   8  10
ENDBRANCH   5   8
ENDBRANCH   1   5
TORSDOF 13
ENDMDL
MODEL       61
REMARK 921   NORMALIZED FREE ENERGY PREDICTED BY IDOCK:   -4.61 KCAL/MOL
REMARK 922        TOTAL FREE ENERGY PREDICTED BY IDOCK:   -9.04 KCAL/MOL
REMARK 923 INTER-LIGAND FREE ENERGY PREDICTED BY IDOCK:   -7.76 KCAL/MOL
REMARK 924 INTRA-LIGAND FREE ENERGY PREDICTED BY IDOCK:   -1.28 KCAL/MOL
REMARK 927      BINDING AFFINITY PREDICTED BY RF-SCORE:    0.00 PKD
ROOT
HETATM    1  C   UNK A   0     -12.130  14.417  69.230  1.00  0.00    -0.299 C  
HETATM    2  O   UNK A   0     -11.528  14.808  70.477  1.00  0.00    -0.292 OA 
HETATM    3  C   UNK A   0     -11.625  15.329  68.134  1.00  0.00    -0.344 C  
HETATM    4  H   UNK A   0     -11.846  14.236  71.166  1.00  0.00     0.000 HD 
ENDROOT
BRANCH   1   5
HETATM    5  C   UNK A   0     -11.694  12.987  68.961  1.00  0.00    -0.329 C  
HETATM    6  O   UNK A   0     -12.244  12.471  67.838  1.00  0.00    -0.352 OA 
HETATM    7  H   UNK A   0     -11.972  11.576  67.669  1.00  0.00     0.000 HD 
BRANCH   5   8
HETATM    8  N   UNK A   0     -10.844  12.353  69.700  1.00  0.00    -0.419 NA 
HETATM    9  H   UNK A   0     -10.528  12.758  70.581  1.00  0.00     0.000 HD 
BRANCH   8  10
HETATM   10  C   UNK A   0     -10.349  11.083  69.273  1.00  0.00    -0.154 A  
HETATM   11  C   UNK A   0     -10.957   9.870  69.676  1.00  0.00    -0.252 A  
HETATM   12  I   UNK A   0     -12.776   9.994  70.895  1.00  0.00    -0.309 I  
HETATM   13  C   UNK A   0     -10.500   8.632  69.174  1.00  0.00    -0.223 A  
HETATM   14  I   UNK A   0      -8.256  12.891  67.927  1.00  0.00    -0.201 I  
HETATM   15  C   UNK A   0      -9.613   8.645  68.059  1.00  0.00    -0.149 A  
HETATM   16  I   UNK A   0      -9.595   6.851  66.811  1.00  0.00    -0.176 I  
HETATM   17  C   UNK A   0      -9.315  11.040  68.290  1.00  0.00    -0.172 A  
HETATM   18  C   UNK A   0      -8.992   9.846  67.602  1.00  0.00    -0.133 A  
BRANCH  13  19
HETATM   19  C   UNK A   0     -10.820   7.325  69.832  1.00  0.00    -0.247 C  
HETATM   20  O   UNK A   0     -11.861   6.638  69.343  1.00  0.00    -0.651 OA 
HETATM   21  H   UNK A   0     -12.063   5.809  69.760  1.00  0.00     0.000 HD 
BRANCH  19  22
ATOM     22  N   SER A   1     -10.136   6.852  70.814  1.00  0.00    -0.194 NA 
ATOM     23  H   SER A   1      -9.118   6.799  70.770  1.00  0.00     0.000 HD 
BRANCH  22  24
ATOM     24  CA  SER A   1     -10.879   6.383  72.017  1.00  0.00    -0.239 C  
BRANCH  24  25
ATOM     25  C   SER A   1     -10.779   7.500  73.073  1.00  0.00    -0.384 C  
ATOM     26  H   SER A   1      -9.364   8.613  73.869  1.00  0.00     0.000 HD 
ATOM     27  O   SER A   1      -9.425   7.924  73.217  1.00  0.00    -0.255 OA 
ENDBRANCH  24  25
BRANCH  24  28
ATOM     28  CB  SER A   1     -10.280   5.096  72.622  1.00  0.00    -0.186 C  
ATOM     29  OG  SER A   1      -9.499   5.309  73.796  1.00  0.00    -0.132 OA 
ATOM     30  HG  SER A   1      -9.131   4.516  74.168  1.00  0.00     0.000 HD 
ENDBRANCH  24  28
ENDBRANCH  22  24
ENDBRANCH  19  22
ENDBRANCH  13  19
BRANCH  18  31
HETATM   31  C   UNK A   0      -8.085   9.831  66.396  1.00  0.00    -0.116 C  
HETATM   32  H   UNK A   0      -6.409   9.062  65.761  1.00  0.00     0.000 HD 
HETATM   33  O   UNK A   0      -6.980   9.071  66.520  1.00  0.00    -0.078 OA 
BRANCH  31  34
ATOM     34  N   SER A   1      -8.277  10.525  65.327  1.00  0.00    -0.189 NA 
ATOM     35  H   SER A   1      -7.638  11.273  65.059  1.00  0.00     0.000 HD 
BRANCH  34  36
ATOM     36  CA  SER A   1      -9.473  10.189  64.496  1.00  0.00    -0.303 C  
BRANCH  36  37
ATOM     37  CB  SER A   1     -10.271  11.477  64.274  1.00  0.00    -0.311 C  
ATOM     38  HG  SER A   1     -11.762  12.422  65.148  1.00  0.00     0.000 HD 
ATOM     39  OG  SER A   1     -11.267  11.623  65.286  1.00  0.00    -0.279 OA 
ENDBRANCH  36  37
BRANCH  36  40
ATOM     40  C   SER A   1      -9.009   9.607  63.147  1.00  0.00    -0.232 C  
ATOM     41  H   SER A   1      -7.848  10.161  61.653  1.00  0.00     0.000 HD 
ATOM     42  O   SER A   1      -8.135  10.519  62.484  1.00  0.00    -0.155 OA 
ENDBRANCH  36  40
ENDBRANCH  34  36
ENDBRANCH  31  34
ENDBRANCH  18  31
ENDBRANCH   8  10
ENDBRANCH   5   8
ENDBRANCH   1   5
TORSDOF 13
ENDMDL
MODEL       62
REMARK 921   NORMALIZED FREE ENERGY PREDICTED BY IDOCK:   -4.60 KCAL/MOL
REMARK 922        TOTAL FREE ENERGY PREDICTED BY IDOCK:   -9.03 KCAL/MOL
REMARK 923 INTER-LIGAND FREE ENERGY PREDICTED BY IDOCK:   -7.53 KCAL/MOL
REMARK 924 INTRA-LIGAND FREE ENERGY PREDICTED BY IDOCK:   -1.51 KCAL/MOL
REMARK 927      BINDING AFFINITY PREDICTED BY RF-SCORE:    0.00 PKD
ROOT
HETATM    1  C   UNK A   0      -9.806   3.285  65.035  1.00  0.00    -0.030 C  
HETATM    2  O   UNK A   0     -10.871   3.235  64.069  1.00  0.00    -0.428 OA 
HETATM    3  C   UNK A   0      -8.489   3.061  64.327  1.00  0.00    -0.089 C  
HETATM    4  H   UNK A   0     -11.698   3.376  64.514  1.00  0.00     0.000 HD 
ENDROOT
BRANCH   1   5
HETATM    5  C   UNK A   0      -9.837   4.673  65.652  1.00  0.00    -0.204 C  
HETATM    6  O   UNK A   0     -11.086   5.188  65.731  1.00  0.00    -0.779 OA 
HETATM    7  H   UNK A   0     -11.106   6.056  66.117  1.00  0.00     0.000 HD 
BRANCH   5   8
HETATM    8  N   UNK A   0      -8.785   5.273  66.103  1.00  0.00    -0.125 NA 
HETATM    9  H   UNK A   0      -7.872   4.823  66.041  1.00  0.00     0.000 HD 
BRANCH   8  10
HETATM   10  C   UNK A   0      -8.910   6.569  66.690  1.00  0.00    -0.132 A  
HETATM   11  C   UNK A   0      -9.276   6.745  68.045  1.00  0.00    -0.117 A  
HETATM   12  I   UNK A   0      -9.537   4.947  69.274  1.00  0.00    -0.267 I  
HETATM   13  C   UNK A   0      -9.311   8.033  68.623  1.00  0.00    -0.146 A  
HETATM   14  I   UNK A   0      -8.218   7.407  63.811  1.00  0.00     0.382 I  
HETATM   15  C   UNK A   0      -8.711   9.108  67.905  1.00  0.00    -0.128 A  
HETATM   16  I   UNK A   0      -8.031  10.810  69.094  1.00  0.00     0.005 I  
HETATM   17  C   UNK A   0      -8.501   7.710  65.935  1.00  0.00    -0.143 A  
HETATM   18  C   UNK A   0      -8.306   8.973  66.543  1.00  0.00    -0.115 A  
BRANCH  13  19
HETATM   19  C   UNK A   0     -10.045   8.330  69.894  1.00  0.00    -0.195 C  
HETATM   20  O   UNK A   0      -9.388   8.106  71.040  1.00  0.00    -0.146 OA 
HETATM   21  H   UNK A   0      -9.854   8.295  71.846  1.00  0.00     0.000 HD 
BRANCH  19  22
ATOM     22  N   SER A   1     -11.246   8.791  69.915  1.00  0.00    -0.433 NA 
ATOM     23  H   SER A   1     -11.984   8.366  69.354  1.00  0.00     0.000 HD 
BRANCH  22  24
ATOM     24  CA  SER A   1     -11.525   9.967  70.787  1.00  0.00    -0.354 C  
BRANCH  24  25
ATOM     25  C   SER A   1     -12.622   9.542  71.780  1.00  0.00    -0.405 C  
ATOM     26  H   SER A   1     -12.814   8.255  73.256  1.00  0.00     0.000 HD 
ATOM     27  O   SER A   1     -12.137   8.517  72.644  1.00  0.00    -0.378 OA 
ENDBRANCH  24  25
BRANCH  24  28
ATOM     28  CB  SER A   1     -12.039  11.187  69.995  1.00  0.00    -0.359 C  
ATOM     29  OG  SER A   1     -12.405  10.898  68.647  1.00  0.00    -0.805 OA 
ATOM     30  HG  SER A   1     -12.722  11.649  68.159  1.00  0.00     0.000 HD 
ENDBRANCH  24  28
ENDBRANCH  22  24
ENDBRANCH  19  22
ENDBRANCH  13  19
BRANCH  18  31
HETATM   31  C   UNK A   0      -7.641  10.120  65.823  1.00  0.00    -0.134 C  
HETATM   32  H   UNK A   0      -5.876  10.802  65.346  1.00  0.00     0.000 HD 
HETATM   33  O   UNK A   0      -6.295  10.080  65.799  1.00  0.00    -0.080 OA 
BRANCH  31  34
ATOM     34  N   SER A   1      -8.268  11.121  65.305  1.00  0.00    -0.367 NA 
ATOM     35  H   SER A   1      -7.788  11.998  65.100  1.00  0.00     0.000 HD 
BRANCH  34  36
ATOM     36  CA  SER A   1      -9.724  10.945  65.018  1.00  0.00    -0.267 C  
BRANCH  36  37
ATOM     37  CB  SER A   1     -10.503  11.891  65.935  1.00  0.00    -0.258 C  
ATOM     38  HG  SER A   1     -10.332  13.745  66.581  1.00  0.00     0.000 HD 
ATOM     39  OG  SER A   1      -9.849  13.158  66.012  1.00  0.00    -0.280 OA 
ENDBRANCH  36  37
BRANCH  36  40
ATOM     40  C   SER A   1      -9.996  11.287  63.541  1.00  0.00    -0.376 C  
ATOM     41  H   SER A   1     -11.556  11.735  62.421  1.00  0.00     0.000 HD 
ATOM     42  O   SER A   1     -11.387  11.524  63.331  1.00  0.00    -0.374 OA 
ENDBRANCH  36  40
ENDBRANCH  34  36
ENDBRANCH  31  34
ENDBRANCH  18  31
ENDBRANCH   8  10
ENDBRANCH   5   8
ENDBRANCH   1   5
TORSDOF 13
ENDMDL
MODEL       63
REMARK 921   NORMALIZED FREE ENERGY PREDICTED BY IDOCK:   -4.57 KCAL/MOL
REMARK 922        TOTAL FREE ENERGY PREDICTED BY IDOCK:   -8.97 KCAL/MOL
REMARK 923 INTER-LIGAND FREE ENERGY PREDICTED BY IDOCK:   -8.16 KCAL/MOL
REMARK 924 INTRA-LIGAND FREE ENERGY PREDICTED BY IDOCK:   -0.81 KCAL/MOL
REMARK 927      BINDING AFFINITY PREDICTED BY RF-SCORE:    0.00 PKD
ROOT
HETATM    1  C   UNK A   0      -6.566  17.824  68.310  1.00  0.00    -0.196 C  
HETATM    2  O   UNK A   0      -7.723  18.579  68.710  1.00  0.00    -0.305 OA 
HETATM    3  C   UNK A   0      -5.439  18.101  69.280  1.00  0.00    -0.204 C  
HETATM    4  H   UNK A   0      -8.431  18.405  68.100  1.00  0.00     0.000 HD 
ENDROOT
BRANCH   1   5
HETATM    5  C   UNK A   0      -6.956  16.357  68.371  1.00  0.00    -0.144 C  
HETATM    6  O   UNK A   0      -7.161  15.917  69.634  1.00  0.00    -0.199 OA 
HETATM    7  H   UNK A   0      -7.405  15.000  69.673  1.00  0.00     0.000 HD 
BRANCH   5   8
HETATM    8  N   UNK A   0      -7.127  15.624  67.321  1.00  0.00    -0.210 NA 
HETATM    9  H   UNK A   0      -6.612  15.827  66.464  1.00  0.00     0.000 HD 
BRANCH   8  10
HETATM   10  C   UNK A   0      -8.043  14.528  67.367  1.00  0.00    -0.200 A  
HETATM   11  C   UNK A   0      -7.621  13.213  67.673  1.00  0.00    -0.171 A  
HETATM   12  I   UNK A   0      -5.512  12.913  68.198  1.00  0.00    -0.114 I  
HETATM   13  C   UNK A   0      -8.557  12.163  67.794  1.00  0.00    -0.164 A  
HETATM   14  I   UNK A   0      -9.995  16.753  66.526  1.00  0.00    -0.345 I  
HETATM   15  C   UNK A   0      -9.939  12.502  67.876  1.00  0.00    -0.212 A  
HETATM   16  I   UNK A   0     -11.236  11.054  68.874  1.00  0.00    -0.434 I  
HETATM   17  C   UNK A   0      -9.442  14.793  67.258  1.00  0.00    -0.214 A  
HETATM   18  C   UNK A   0     -10.411  13.820  67.598  1.00  0.00    -0.242 A  
BRANCH  13  19
HETATM   19  C   UNK A   0      -8.167  10.719  67.727  1.00  0.00    -0.112 C  
HETATM   20  O   UNK A   0      -8.004  10.080  68.893  1.00  0.00    -0.089 OA 
HETATM   21  H   UNK A   0      -7.757   9.163  68.850  1.00  0.00     0.000 HD 
BRANCH  19  22
ATOM     22  N   SER A   1      -8.002  10.091  66.616  1.00  0.00    -0.113 NA 
ATOM     23  H   SER A   1      -7.069   9.931  66.235  1.00  0.00     0.000 HD 
BRANCH  22  24
ATOM     24  CA  SER A   1      -9.217   9.606  65.903  1.00  0.00    -0.194 C  
BRANCH  24  25
ATOM     25  C   SER A   1      -9.368   8.110  66.237  1.00  0.00    -0.196 C  
ATOM     26  H   SER A   1     -10.740   6.938  67.022  1.00  0.00     0.000 HD 
ATOM     27  O   SER A   1     -10.647   7.861  66.816  1.00  0.00    -0.326 OA 
ENDBRANCH  24  25
BRANCH  24  28
ATOM     28  CB  SER A   1      -9.105   9.748  64.371  1.00  0.00    -0.248 C  
ATOM     29  OG  SER A   1     -10.301  10.195  63.735  1.00  0.00    -0.426 OA 
ATOM     30  HG  SER A   1     -10.232  10.282  62.792  1.00  0.00     0.000 HD 
ENDBRANCH  24  28
ENDBRANCH  22  24
ENDBRANCH  19  22
ENDBRANCH  13  19
BRANCH  18  31
HETATM   31  C   UNK A   0     -11.877  14.154  67.728  1.00  0.00    -0.379 C  
HETATM   32  H   UNK A   0     -13.550  14.087  66.726  1.00  0.00     0.000 HD 
HETATM   33  O   UNK A   0     -12.627  13.877  66.645  1.00  0.00    -0.351 OA 
BRANCH  31  34
ATOM     34  N   SER A   1     -12.410  14.721  68.756  1.00  0.00    -0.588 NA 
ATOM     35  H   SER A   1     -13.319  15.180  68.697  1.00  0.00     0.000 HD 
BRANCH  34  36
ATOM     36  CA  SER A   1     -11.642  14.679  70.038  1.00  0.00    -0.284 C  
BRANCH  36  37
ATOM     37  CB  SER A   1     -11.289  16.118  70.424  1.00  0.00    -0.363 C  
ATOM     38  HG  SER A   1     -11.414  17.256  72.027  1.00  0.00     0.000 HD 
ATOM     39  OG  SER A   1     -11.632  16.363  71.788  1.00  0.00    -0.453 OA 
ENDBRANCH  36  37
BRANCH  36  40
ATOM     40  C   SER A   1     -12.512  14.030  71.131  1.00  0.00    -0.371 C  
ATOM     41  H   SER A   1     -14.397  14.084  71.706  1.00  0.00     0.000 HD 
ATOM     42  O   SER A   1     -13.861  14.484  71.032  1.00  0.00    -0.311 OA 
ENDBRANCH  36  40
ENDBRANCH  34  36
ENDBRANCH  31  34
ENDBRANCH  18  31
ENDBRANCH   8  10
ENDBRANCH   5   8
ENDBRANCH   1   5
TORSDOF 13
ENDMDL
MODEL       64
REMARK 921   NORMALIZED FREE ENERGY PREDICTED BY IDOCK:   -4.57 KCAL/MOL
REMARK 922        TOTAL FREE ENERGY PREDICTED BY IDOCK:   -8.97 KCAL/MOL
REMARK 923 INTER-LIGAND FREE ENERGY PREDICTED BY IDOCK:   -8.06 KCAL/MOL
REMARK 924 INTRA-LIGAND FREE ENERGY PREDICTED BY IDOCK:   -0.91 KCAL/MOL
REMARK 927      BINDING AFFINITY PREDICTED BY RF-SCORE:    0.00 PKD
ROOT
HETATM    1  C   UNK A   0      -6.985  17.379  68.309  1.00  0.00    -0.193 C  
HETATM    2  O   UNK A   0      -8.211  18.105  68.504  1.00  0.00    -0.301 OA 
HETATM    3  C   UNK A   0      -6.185  17.412  69.592  1.00  0.00    -0.233 C  
HETATM    4  H   UNK A   0      -8.713  18.085  67.698  1.00  0.00     0.000 HD 
ENDROOT
BRANCH   1   5
HETATM    5  C   UNK A   0      -7.370  15.948  67.972  1.00  0.00    -0.131 C  
HETATM    6  O   UNK A   0      -7.076  15.611  66.695  1.00  0.00    -0.228 OA 
HETATM    7  H   UNK A   0      -7.317  14.716  66.483  1.00  0.00     0.000 HD 
BRANCH   5   8
HETATM    8  N   UNK A   0      -7.875  15.127  68.832  1.00  0.00    -0.150 NA 
HETATM    9  H   UNK A   0      -7.913  15.378  69.820  1.00  0.00     0.000 HD 
BRANCH   8  10
HETATM   10  C   UNK A   0      -8.378  13.865  68.391  1.00  0.00    -0.157 A  
HETATM   11  C   UNK A   0      -9.704  13.711  67.922  1.00  0.00    -0.234 A  
HETATM   12  I   UNK A   0     -10.951  15.510  67.775  1.00  0.00    -0.264 I  
HETATM   13  C   UNK A   0     -10.151  12.472  67.414  1.00  0.00    -0.211 A  
HETATM   14  I   UNK A   0      -5.558  12.986  69.250  1.00  0.00    -0.098 I  
HETATM   15  C   UNK A   0      -9.176  11.472  67.128  1.00  0.00    -0.169 A  
HETATM   16  I   UNK A   0      -9.726   9.981  65.628  1.00  0.00    -0.333 I  
HETATM   17  C   UNK A   0      -7.474  12.766  68.271  1.00  0.00    -0.124 A  
HETATM   18  C   UNK A   0      -7.822  11.592  67.562  1.00  0.00    -0.133 A  
BRANCH  13  19
HETATM   19  C   UNK A   0     -11.602  12.133  67.271  1.00  0.00    -0.334 C  
HETATM   20  O   UNK A   0     -12.090  11.196  68.096  1.00  0.00    -0.676 OA 
HETATM   21  H   UNK A   0     -13.011  10.981  68.005  1.00  0.00     0.000 HD 
BRANCH  19  22
ATOM     22  N   SER A   1     -12.373  12.706  66.414  1.00  0.00    -0.459 NA 
ATOM     23  H   SER A   1     -13.267  13.108  66.696  1.00  0.00     0.000 HD 
BRANCH  22  24
ATOM     24  CA  SER A   1     -11.918  12.763  64.997  1.00  0.00    -0.412 C  
BRANCH  24  25
ATOM     25  C   SER A   1     -11.982  14.238  64.561  1.00  0.00    -0.462 C  
ATOM     26  H   SER A   1     -12.788  15.278  63.097  1.00  0.00     0.000 HD 
ATOM     27  O   SER A   1     -12.748  14.367  63.366  1.00  0.00    -0.689 OA 
ENDBRANCH  24  25
BRANCH  24  28
ATOM     28  CB  SER A   1     -12.817  11.942  64.049  1.00  0.00    -0.171 C  
ATOM     29  OG  SER A   1     -12.139  11.407  62.914  1.00  0.00    -0.919 OA 
ATOM     30  HG  SER A   1     -12.693  10.902  62.331  1.00  0.00     0.000 HD 
ENDBRANCH  24  28
ENDBRANCH  22  24
ENDBRANCH  19  22
ENDBRANCH  13  19
BRANCH  18  31
HETATM   31  C   UNK A   0      -6.807  10.531  67.212  1.00  0.00    -0.082 C  
HETATM   32  H   UNK A   0      -5.492  10.073  65.846  1.00  0.00     0.000 HD 
HETATM   33  O   UNK A   0      -6.131  10.740  66.066  1.00  0.00    -0.115 OA 
BRANCH  31  34
ATOM     34  N   SER A   1      -6.608   9.456  67.894  1.00  0.00    -0.062 NA 
ATOM     35  H   SER A   1      -5.869   8.799  67.644  1.00  0.00     0.000 HD 
BRANCH  34  36
ATOM     36  CA  SER A   1      -7.504   9.210  69.065  1.00  0.00    -0.074 C  
BRANCH  36  37
ATOM     37  CB  SER A   1      -8.340   7.963  68.766  1.00  0.00    -0.128 C  
ATOM     38  HG  SER A   1     -10.209   7.384  69.005  1.00  0.00     0.000 HD 
ATOM     39  OG  SER A   1      -9.690   8.158  69.191  1.00  0.00    -0.160 OA 
ENDBRANCH  36  37
BRANCH  36  40
ATOM     40  C   SER A   1      -6.646   8.988  70.325  1.00  0.00    -0.045 C  
ATOM     41  H   SER A   1      -6.305   9.920  72.029  1.00  0.00     0.000 HD 
ATOM     42  O   SER A   1      -6.834  10.056  71.252  1.00  0.00    -0.310 OA 
ENDBRANCH  36  40
ENDBRANCH  34  36
ENDBRANCH  31  34
ENDBRANCH  18  31
ENDBRANCH   8  10
ENDBRANCH   5   8
ENDBRANCH   1   5
TORSDOF 13
ENDMDL
MODEL       65
REMARK 921   NORMALIZED FREE ENERGY PREDICTED BY IDOCK:   -4.56 KCAL/MOL
REMARK 922        TOTAL FREE ENERGY PREDICTED BY IDOCK:   -8.96 KCAL/MOL
REMARK 923 INTER-LIGAND FREE ENERGY PREDICTED BY IDOCK:   -7.85 KCAL/MOL
REMARK 924 INTRA-LIGAND FREE ENERGY PREDICTED BY IDOCK:   -1.11 KCAL/MOL
REMARK 927      BINDING AFFINITY PREDICTED BY RF-SCORE:    0.00 PKD
ROOT
HETATM    1  C   UNK A   0     -11.985   7.717  71.729  1.00  0.00    -0.296 C  
HETATM    2  O   UNK A   0     -12.980   7.143  70.864  1.00  0.00    -0.578 OA 
HETATM    3  C   UNK A   0     -10.842   6.738  71.883  1.00  0.00    -0.261 C  
HETATM    4  H   UNK A   0     -13.697   7.758  70.768  1.00  0.00     0.000 HD 
ENDROOT
BRANCH   1   5
HETATM    5  C   UNK A   0     -11.495   8.988  71.054  1.00  0.00    -0.295 C  
HETATM    6  O   UNK A   0     -10.330   9.443  71.569  1.00  0.00    -0.327 OA 
HETATM    7  H   UNK A   0     -10.023  10.237  71.147  1.00  0.00     0.000 HD 
BRANCH   5   8
HETATM    8  N   UNK A   0     -12.104   9.541  70.058  1.00  0.00    -0.433 NA 
HETATM    9  H   UNK A   0     -13.077   9.311  69.859  1.00  0.00     0.000 HD 
BRANCH   8  10
HETATM   10  C   UNK A   0     -11.404  10.478  69.237  1.00  0.00    -0.262 A  
HETATM   11  C   UNK A   0     -11.588  11.875  69.371  1.00  0.00    -0.325 A  
HETATM   12  I   UNK A   0     -12.907  12.581  70.975  1.00  0.00     0.169 I  
HETATM   13  C   UNK A   0     -10.824  12.781  68.606  1.00  0.00    -0.284 A  
HETATM   14  I   UNK A   0     -10.333   7.868  68.010  1.00  0.00    -0.181 I  
HETATM   15  C   UNK A   0      -9.686  12.279  67.909  1.00  0.00    -0.202 A  
HETATM   16  I   UNK A   0      -8.104  13.721  67.467  1.00  0.00    -0.151 I  
HETATM   17  C   UNK A   0     -10.376  10.001  68.369  1.00  0.00    -0.191 A  
HETATM   18  C   UNK A   0      -9.445  10.880  67.766  1.00  0.00    -0.165 A  
BRANCH  13  19
HETATM   19  C   UNK A   0     -11.222  14.211  68.409  1.00  0.00    -0.265 C  
HETATM   20  O   UNK A   0     -10.700  15.109  69.255  1.00  0.00    -0.230 OA 
HETATM   21  H   UNK A   0     -10.953  16.016  69.130  1.00  0.00     0.000 HD 
BRANCH  19  22
ATOM     22  N   SER A   1     -12.016  14.592  67.471  1.00  0.00    -0.534 NA 
ATOM     23  H   SER A   1     -12.815  15.194  67.669  1.00  0.00     0.000 HD 
BRANCH  22  24
ATOM     24  CA  SER A   1     -11.733  14.124  66.085  1.00  0.00    -0.393 C  
BRANCH  24  25
ATOM     25  C   SER A   1     -11.253  15.349  65.284  1.00  0.00    -0.310 C  
ATOM     26  H   SER A   1     -11.789  16.305  63.650  1.00  0.00     0.000 HD 
ATOM     27  O   SER A   1     -12.085  15.549  64.144  1.00  0.00    -0.564 OA 
ENDBRANCH  24  25
BRANCH  24  28
ATOM     28  CB  SER A   1     -12.981  13.549  65.383  1.00  0.00    -0.231 C  
ATOM     29  OG  SER A   1     -12.695  12.555  64.401  1.00  0.00    -0.656 OA 
ATOM     30  HG  SER A   1     -13.464  12.201  63.970  1.00  0.00     0.000 HD 
ENDBRANCH  24  28
ENDBRANCH  22  24
ENDBRANCH  19  22
ENDBRANCH  13  19
BRANCH  18  31
HETATM   31  C   UNK A   0      -8.212  10.382  67.053  1.00  0.00    -0.123 C  
HETATM   32  H   UNK A   0      -7.617   9.732  65.312  1.00  0.00     0.000 HD 
HETATM   33  O   UNK A   0      -8.393  10.045  65.761  1.00  0.00    -0.124 OA 
BRANCH  31  34
ATOM     34  N   SER A   1      -7.062  10.214  67.610  1.00  0.00    -0.085 NA 
ATOM     35  H   SER A   1      -6.250  10.762  67.326  1.00  0.00     0.000 HD 
BRANCH  34  36
ATOM     36  CA  SER A   1      -6.966   9.184  68.689  1.00  0.00    -0.063 C  
BRANCH  36  37
ATOM     37  CB  SER A   1      -5.877   8.183  68.291  1.00  0.00    -0.037 C  
ATOM     38  HG  SER A   1      -4.807   7.773  66.687  1.00  0.00     0.000 HD 
ATOM     39  OG  SER A   1      -5.483   8.394  66.935  1.00  0.00    -0.035 OA 
ENDBRANCH  36  37
BRANCH  36  40
ATOM     40  C   SER A   1      -6.601   9.871  70.018  1.00  0.00    -0.091 C  
ATOM     41  H   SER A   1      -7.387  10.059  71.816  1.00  0.00     0.000 HD 
ATOM     42  O   SER A   1      -7.612   9.635  70.997  1.00  0.00    -0.326 OA 
ENDBRANCH  36  40
ENDBRANCH  34  36
ENDBRANCH  31  34
ENDBRANCH  18  31
ENDBRANCH   8  10
ENDBRANCH   5   8
ENDBRANCH   1   5
TORSDOF 13
ENDMDL
MODEL       66
REMARK 921   NORMALIZED FREE ENERGY PREDICTED BY IDOCK:   -4.55 KCAL/MOL
REMARK 922        TOTAL FREE ENERGY PREDICTED BY IDOCK:   -8.94 KCAL/MOL
REMARK 923 INTER-LIGAND FREE ENERGY PREDICTED BY IDOCK:   -8.07 KCAL/MOL
REMARK 924 INTRA-LIGAND FREE ENERGY PREDICTED BY IDOCK:   -0.87 KCAL/MOL
REMARK 927      BINDING AFFINITY PREDICTED BY RF-SCORE:    0.00 PKD
ROOT
HETATM    1  C   UNK A   0     -10.078  18.048  66.606  1.00  0.00    -0.372 C  
HETATM    2  O   UNK A   0     -10.537  18.332  67.940  1.00  0.00    -0.405 OA 
HETATM    3  C   UNK A   0      -8.675  18.587  66.445  1.00  0.00    -0.274 C  
HETATM    4  H   UNK A   0     -11.419  17.994  68.041  1.00  0.00     0.000 HD 
ENDROOT
BRANCH   1   5
HETATM    5  C   UNK A   0     -10.078  16.537  66.454  1.00  0.00    -0.312 C  
HETATM    6  O   UNK A   0      -9.698  16.132  65.220  1.00  0.00    -0.419 OA 
HETATM    7  H   UNK A   0      -9.698  15.186  65.124  1.00  0.00     0.000 HD 
BRANCH   5   8
HETATM    8  N   UNK A   0     -10.358  15.726  67.420  1.00  0.00    -0.276 NA 
HETATM    9  H   UNK A   0     -10.981  16.020  68.172  1.00  0.00     0.000 HD 
BRANCH   8  10
HETATM   10  C   UNK A   0      -9.790  14.416  67.428  1.00  0.00    -0.224 A  
HETATM   11  C   UNK A   0     -10.452  13.309  66.847  1.00  0.00    -0.261 A  
HETATM   12  I   UNK A   0     -12.350  13.682  65.812  1.00  0.00    -0.480 I  
HETATM   13  C   UNK A   0      -9.832  12.042  66.794  1.00  0.00    -0.218 A  
HETATM   14  I   UNK A   0      -7.605  15.899  69.008  1.00  0.00    -0.212 I  
HETATM   15  C   UNK A   0      -8.438  11.963  67.083  1.00  0.00    -0.173 A  
HETATM   16  I   UNK A   0      -7.360  10.274  66.212  1.00  0.00    -0.133 I  
HETATM   17  C   UNK A   0      -8.450  14.248  67.893  1.00  0.00    -0.168 A  
HETATM   18  C   UNK A   0      -7.721  13.060  67.649  1.00  0.00    -0.161 A  
BRANCH  13  19
HETATM   19  C   UNK A   0     -10.596  10.776  66.561  1.00  0.00    -0.218 C  
HETATM   20  O   UNK A   0     -10.475  10.208  65.353  1.00  0.00    -0.197 OA 
HETATM   21  H   UNK A   0     -10.960   9.404  65.206  1.00  0.00     0.000 HD 
BRANCH  19  22
ATOM     22  N   SER A   1     -11.333  10.228  67.463  1.00  0.00    -0.510 NA 
ATOM     23  H   SER A   1     -12.260   9.867  67.238  1.00  0.00     0.000 HD 
BRANCH  22  24
ATOM     24  CA  SER A   1     -10.789  10.139  68.847  1.00  0.00    -0.223 C  
BRANCH  24  25
ATOM     25  C   SER A   1     -10.579   8.644  69.153  1.00  0.00    -0.178 C  
ATOM     26  H   SER A   1     -11.160   7.355  70.522  1.00  0.00     0.000 HD 
ATOM     27  O   SER A   1     -11.291   8.277  70.333  1.00  0.00    -0.254 OA 
ENDBRANCH  24  25
BRANCH  24  28
ATOM     28  CB  SER A   1     -11.753  10.715  69.904  1.00  0.00    -0.317 C  
ATOM     29  OG  SER A   1     -13.110  10.307  69.744  1.00  0.00    -0.527 OA 
ATOM     30  HG  SER A   1     -13.704  10.662  70.395  1.00  0.00     0.000 HD 
ENDBRANCH  24  28
ENDBRANCH  22  24
ENDBRANCH  19  22
ENDBRANCH  13  19
BRANCH  18  31
HETATM   31  C   UNK A   0      -6.239  12.956  67.910  1.00  0.00    -0.125 C  
HETATM   32  H   UNK A   0      -4.543  13.778  67.406  1.00  0.00     0.000 HD 
HETATM   33  O   UNK A   0      -5.476  13.843  67.242  1.00  0.00    -0.310 OA 
BRANCH  31  34
ATOM     34  N   SER A   1      -5.687  12.062  68.657  1.00  0.00    -0.052 NA 
ATOM     35  H   SER A   1      -4.973  11.432  68.292  1.00  0.00     0.000 HD 
BRANCH  34  36
ATOM     36  CA  SER A   1      -6.136  11.987  70.081  1.00  0.00    -0.131 C  
BRANCH  36  37
ATOM     37  CB  SER A   1      -6.110  10.516  70.507  1.00  0.00    -0.118 C  
ATOM     38  HG  SER A   1      -7.424   9.101  70.897  1.00  0.00     0.000 HD 
ATOM     39  OG  SER A   1      -7.440  10.013  70.632  1.00  0.00    -0.302 OA 
ENDBRANCH  36  37
BRANCH  36  40
ATOM     40  C   SER A   1      -5.181  12.816  70.960  1.00  0.00    -0.165 C  
ATOM     41  H   SER A   1      -5.325  14.260  72.295  1.00  0.00     0.000 HD 
ATOM     42  O   SER A   1      -5.914  13.749  71.753  1.00  0.00    -0.356 OA 
ENDBRANCH  36  40
ENDBRANCH  34  36
ENDBRANCH  31  34
ENDBRANCH  18  31
ENDBRANCH   8  10
ENDBRANCH   5   8
ENDBRANCH   1   5
TORSDOF 13
ENDMDL
MODEL       67
REMARK 921   NORMALIZED FREE ENERGY PREDICTED BY IDOCK:   -4.54 KCAL/MOL
REMARK 922        TOTAL FREE ENERGY PREDICTED BY IDOCK:   -8.93 KCAL/MOL
REMARK 923 INTER-LIGAND FREE ENERGY PREDICTED BY IDOCK:   -7.98 KCAL/MOL
REMARK 924 INTRA-LIGAND FREE ENERGY PREDICTED BY IDOCK:   -0.95 KCAL/MOL
REMARK 927      BINDING AFFINITY PREDICTED BY RF-SCORE:    0.00 PKD
ROOT
HETATM    1  C   UNK A   0      -7.864  10.081  65.231  1.00  0.00    -0.138 C  
HETATM    2  O   UNK A   0      -8.047  10.853  64.031  1.00  0.00    -0.360 OA 
HETATM    3  C   UNK A   0      -7.243   8.750  64.871  1.00  0.00    -0.084 C  
HETATM    4  H   UNK A   0      -8.437  11.688  64.258  1.00  0.00     0.000 HD 
ENDROOT
BRANCH   1   5
HETATM    5  C   UNK A   0      -6.922  10.872  66.123  1.00  0.00    -0.099 C  
HETATM    6  O   UNK A   0      -5.837  11.336  65.463  1.00  0.00    -0.446 OA 
HETATM    7  H   UNK A   0      -5.247  11.831  66.021  1.00  0.00     0.000 HD 
BRANCH   5   8
HETATM    8  N   UNK A   0      -7.164  11.118  67.369  1.00  0.00    -0.100 NA 
HETATM    9  H   UNK A   0      -6.429  11.490  67.970  1.00  0.00     0.000 HD 
BRANCH   8  10
HETATM   10  C   UNK A   0      -8.467  10.865  67.897  1.00  0.00    -0.129 A  
HETATM   11  C   UNK A   0      -8.796   9.638  68.521  1.00  0.00    -0.124 A  
HETATM   12  I   UNK A   0      -7.198   8.156  68.765  1.00  0.00    -0.087 I  
HETATM   13  C   UNK A   0     -10.065   9.444  69.109  1.00  0.00    -0.200 A  
HETATM   14  I   UNK A   0      -8.953  13.674  66.740  1.00  0.00     0.012 I  
HETATM   15  C   UNK A   0     -10.896  10.586  69.304  1.00  0.00    -0.243 A  
HETATM   16  I   UNK A   0     -12.386  10.439  70.896  1.00  0.00    -0.538 I  
HETATM   17  C   UNK A   0      -9.413  11.933  67.940  1.00  0.00    -0.194 A  
HETATM   18  C   UNK A   0     -10.595  11.849  68.714  1.00  0.00    -0.234 A  
BRANCH  13  19
HETATM   19  C   UNK A   0     -10.610   8.087  69.427  1.00  0.00    -0.205 C  
HETATM   20  O   UNK A   0     -11.279   7.457  68.452  1.00  0.00    -0.434 OA 
HETATM   21  H   UNK A   0     -11.625   6.596  68.654  1.00  0.00     0.000 HD 
BRANCH  19  22
ATOM     22  N   SER A   1     -10.448   7.520  70.571  1.00  0.00    -0.216 NA 
ATOM     23  H   SER A   1      -9.874   7.950  71.296  1.00  0.00     0.000 HD 
BRANCH  22  24
ATOM     24  CA  SER A   1     -11.127   6.214  70.803  1.00  0.00    -0.309 C  
BRANCH  24  25
ATOM     25  C   SER A   1     -12.032   6.389  72.036  1.00  0.00    -0.326 C  
ATOM     26  H   SER A   1     -13.841   7.066  72.416  1.00  0.00     0.000 HD 
ATOM     27  O   SER A   1     -13.282   6.957  71.654  1.00  0.00    -0.354 OA 
ENDBRANCH  24  25
BRANCH  24  28
ATOM     28  CB  SER A   1     -10.133   5.070  71.094  1.00  0.00    -0.223 C  
ATOM     29  OG  SER A   1      -9.874   4.221  69.978  1.00  0.00    -0.215 OA 
ATOM     30  HG  SER A   1      -9.262   3.517  70.157  1.00  0.00     0.000 HD 
ENDBRANCH  24  28
ENDBRANCH  22  24
ENDBRANCH  19  22
ENDBRANCH  13  19
BRANCH  18  31
HETATM   31  C   UNK A   0     -11.477  13.047  68.971  1.00  0.00    -0.303 C  
HETATM   32  H   UNK A   0     -12.928  14.070  68.163  1.00  0.00     0.000 HD 
HETATM   33  O   UNK A   0     -12.373  13.316  68.002  1.00  0.00    -0.168 OA 
BRANCH  31  34
ATOM     34  N   SER A   1     -11.378  13.823  69.995  1.00  0.00    -0.481 NA 
ATOM     35  H   SER A   1     -10.879  13.531  70.836  1.00  0.00     0.000 HD 
BRANCH  34  36
ATOM     36  CA  SER A   1     -12.022  15.168  69.901  1.00  0.00    -0.337 C  
BRANCH  36  37
ATOM     37  CB  SER A   1     -12.761  15.431  71.216  1.00  0.00    -0.436 C  
ATOM     38  HG  SER A   1     -12.812  14.651  73.025  1.00  0.00     0.000 HD 
ATOM     39  OG  SER A   1     -12.354  14.489  72.209  1.00  0.00    -0.310 OA 
ENDBRANCH  36  37
BRANCH  36  40
ATOM     40  C   SER A   1     -10.937  16.238  69.674  1.00  0.00    -0.346 C  
ATOM     41  H   SER A   1     -10.273  17.335  68.177  1.00  0.00     0.000 HD 
ATOM     42  O   SER A   1     -10.941  16.675  68.316  1.00  0.00    -0.350 OA 
ENDBRANCH  36  40
ENDBRANCH  34  36
ENDBRANCH  31  34
ENDBRANCH  18  31
ENDBRANCH   8  10
ENDBRANCH   5   8
ENDBRANCH   1   5
TORSDOF 13
ENDMDL
MODEL       68
REMARK 921   NORMALIZED FREE ENERGY PREDICTED BY IDOCK:   -4.53 KCAL/MOL
REMARK 922        TOTAL FREE ENERGY PREDICTED BY IDOCK:   -8.91 KCAL/MOL
REMARK 923 INTER-LIGAND FREE ENERGY PREDICTED BY IDOCK:   -8.19 KCAL/MOL
REMARK 924 INTRA-LIGAND FREE ENERGY PREDICTED BY IDOCK:   -0.72 KCAL/MOL
REMARK 927      BINDING AFFINITY PREDICTED BY RF-SCORE:    0.00 PKD
ROOT
HETATM    1  C   UNK A   0     -10.463   7.105  72.637  1.00  0.00    -0.237 C  
HETATM    2  O   UNK A   0     -11.009   7.459  73.920  1.00  0.00    -0.536 OA 
HETATM    3  C   UNK A   0      -9.613   5.864  72.791  1.00  0.00    -0.163 C  
HETATM    4  H   UNK A   0     -11.543   8.239  73.823  1.00  0.00     0.000 HD 
ENDROOT
BRANCH   1   5
HETATM    5  C   UNK A   0     -11.641   6.819  71.721  1.00  0.00    -0.297 C  
HETATM    6  O   UNK A   0     -12.625   6.120  72.330  1.00  0.00    -0.542 OA 
HETATM    7  H   UNK A   0     -13.362   5.941  71.758  1.00  0.00     0.000 HD 
BRANCH   5   8
HETATM    8  N   UNK A   0     -11.713   7.249  70.504  1.00  0.00    -0.452 NA 
HETATM    9  H   UNK A   0     -12.314   6.777  69.829  1.00  0.00     0.000 HD 
BRANCH   8  10
HETATM   10  C   UNK A   0     -10.946   8.389  70.112  1.00  0.00    -0.215 A  
HETATM   11  C   UNK A   0      -9.702   8.261  69.450  1.00  0.00    -0.177 A  
HETATM   12  I   UNK A   0      -9.026   6.241  68.926  1.00  0.00    -0.123 I  
HETATM   13  C   UNK A   0      -9.004   9.402  68.999  1.00  0.00    -0.141 A  
HETATM   14  I   UNK A   0     -13.280   9.834  71.503  1.00  0.00    -0.423 I  
HETATM   15  C   UNK A   0      -9.696  10.648  68.976  1.00  0.00    -0.202 A  
HETATM   16  I   UNK A   0      -8.961  12.140  67.559  1.00  0.00    -0.208 I  
HETATM   17  C   UNK A   0     -11.522   9.688  70.249  1.00  0.00    -0.233 A  
HETATM   18  C   UNK A   0     -10.962  10.820  69.611  1.00  0.00    -0.320 A  
BRANCH  13  19
HETATM   19  C   UNK A   0      -7.547   9.375  68.655  1.00  0.00    -0.080 C  
HETATM   20  O   UNK A   0      -6.717  10.034  69.476  1.00  0.00    -0.047 OA 
HETATM   21  H   UNK A   0      -5.793  10.016  69.257  1.00  0.00     0.000 HD 
BRANCH  19  22
ATOM     22  N   SER A   1      -7.082   8.747  67.633  1.00  0.00    -0.078 NA 
ATOM     23  H   SER A   1      -6.529   7.897  67.744  1.00  0.00     0.000 HD 
BRANCH  22  24
ATOM     24  CA  SER A   1      -7.378   9.300  66.281  1.00  0.00    -0.092 C  
BRANCH  24  25
ATOM     25  C   SER A   1      -8.109   8.199  65.493  1.00  0.00    -0.130 C  
ATOM     26  H   SER A   1      -9.214   8.077  63.868  1.00  0.00     0.000 HD 
ATOM     27  O   SER A   1      -8.762   8.757  64.355  1.00  0.00    -0.136 OA 
ENDBRANCH  24  25
BRANCH  24  28
ATOM     28  CB  SER A   1      -6.102   9.683  65.503  1.00  0.00    -0.068 C  
ATOM     29  OG  SER A   1      -6.319  10.613  64.443  1.00  0.00    -0.353 OA 
ATOM     30  HG  SER A   1      -5.533  10.849  63.964  1.00  0.00     0.000 HD 
ENDBRANCH  24  28
ENDBRANCH  22  24
ENDBRANCH  19  22
ENDBRANCH  13  19
BRANCH  18  31
HETATM   31  C   UNK A   0     -11.685  12.143  69.537  1.00  0.00    -0.336 C  
HETATM   32  H   UNK A   0     -12.861  13.174  68.370  1.00  0.00     0.000 HD 
HETATM   33  O   UNK A   0     -12.405  12.341  68.417  1.00  0.00    -0.173 OA 
BRANCH  31  34
ATOM     34  N   SER A   1     -11.601  13.073  70.425  1.00  0.00    -0.511 NA 
ATOM     35  H   SER A   1     -10.757  13.198  70.985  1.00  0.00     0.000 HD 
BRANCH  34  36
ATOM     36  CA  SER A   1     -12.790  13.962  70.603  1.00  0.00    -0.222 C  
BRANCH  36  37
ATOM     37  CB  SER A   1     -13.334  13.746  72.018  1.00  0.00    -0.447 C  
ATOM     38  HG  SER A   1     -14.723  14.538  73.169  1.00  0.00     0.000 HD 
ATOM     39  OG  SER A   1     -14.386  14.671  72.291  1.00  0.00    -0.476 OA 
ENDBRANCH  36  37
BRANCH  36  40
ATOM     40  C   SER A   1     -12.362  15.429  70.412  1.00  0.00    -0.402 C  
ATOM     41  H   SER A   1     -11.728  16.575  68.938  1.00  0.00     0.000 HD 
ATOM     42  O   SER A   1     -11.992  15.670  69.056  1.00  0.00    -0.374 OA 
ENDBRANCH  36  40
ENDBRANCH  34  36
ENDBRANCH  31  34
ENDBRANCH  18  31
ENDBRANCH   8  10
ENDBRANCH   5   8
ENDBRANCH   1   5
TORSDOF 13
ENDMDL
MODEL       69
REMARK 921   NORMALIZED FREE ENERGY PREDICTED BY IDOCK:   -4.53 KCAL/MOL
REMARK 922        TOTAL FREE ENERGY PREDICTED BY IDOCK:   -8.90 KCAL/MOL
REMARK 923 INTER-LIGAND FREE ENERGY PREDICTED BY IDOCK:   -7.91 KCAL/MOL
REMARK 924 INTRA-LIGAND FREE ENERGY PREDICTED BY IDOCK:   -0.99 KCAL/MOL
REMARK 927      BINDING AFFINITY PREDICTED BY RF-SCORE:    0.00 PKD
ROOT
HETATM    1  C   UNK A   0     -12.257  10.896  70.025  1.00  0.00    -0.347 C  
HETATM    2  O   UNK A   0     -13.514  10.203  70.122  1.00  0.00    -0.474 OA 
HETATM    3  C   UNK A   0     -12.381  12.237  70.713  1.00  0.00    -0.383 C  
HETATM    4  H   UNK A   0     -13.436   9.361  69.689  1.00  0.00     0.000 HD 
ENDROOT
BRANCH   1   5
HETATM    5  C   UNK A   0     -11.225  10.038  70.737  1.00  0.00    -0.352 C  
HETATM    6  O   UNK A   0     -11.673   9.543  71.914  1.00  0.00    -0.374 OA 
HETATM    7  H   UNK A   0     -11.028   9.006  72.360  1.00  0.00     0.000 HD 
BRANCH   5   8
HETATM    8  N   UNK A   0     -10.063   9.767  70.241  1.00  0.00    -0.262 NA 
HETATM    9  H   UNK A   0      -9.225   9.864  70.815  1.00  0.00     0.000 HD 
BRANCH   8  10
HETATM   10  C   UNK A   0      -9.960   9.333  68.884  1.00  0.00    -0.181 A  
HETATM   11  C   UNK A   0      -9.601  10.218  67.840  1.00  0.00    -0.145 A  
HETATM   12  I   UNK A   0      -9.085  12.280  68.382  1.00  0.00     0.046 I  
HETATM   13  C   UNK A   0      -9.425   9.747  66.522  1.00  0.00    -0.228 A  
HETATM   14  I   UNK A   0     -10.876   6.691  70.168  1.00  0.00    -0.425 I  
HETATM   15  C   UNK A   0      -9.343   8.338  66.317  1.00  0.00    -0.204 A  
HETATM   16  I   UNK A   0      -8.270   7.677  64.532  1.00  0.00     0.182 I  
HETATM   17  C   UNK A   0     -10.065   7.938  68.596  1.00  0.00    -0.197 A  
HETATM   18  C   UNK A   0      -9.674   7.406  67.345  1.00  0.00    -0.196 A  
BRANCH  13  19
HETATM   19  C   UNK A   0      -9.434  10.653  65.330  1.00  0.00    -0.215 C  
HETATM   20  O   UNK A   0      -8.258  11.178  64.958  1.00  0.00    -0.375 OA 
HETATM   21  H   UNK A   0      -8.263  11.753  64.202  1.00  0.00     0.000 HD 
BRANCH  19  22
ATOM     22  N   SER A   1     -10.502  10.924  64.666  1.00  0.00    -0.337 NA 
ATOM     23  H   SER A   1     -10.987  10.203  64.132  1.00  0.00     0.000 HD 
BRANCH  22  24
ATOM     24  CA  SER A   1     -11.008  12.325  64.702  1.00  0.00    -0.306 C  
BRANCH  24  25
ATOM     25  C   SER A   1     -12.010  12.413  65.868  1.00  0.00    -0.367 C  
ATOM     26  H   SER A   1     -13.155  13.788  66.687  1.00  0.00     0.000 HD 
ATOM     27  O   SER A   1     -12.537  13.734  65.968  1.00  0.00    -0.454 OA 
ENDBRANCH  24  25
BRANCH  24  28
ATOM     28  CB  SER A   1     -11.742  12.727  63.406  1.00  0.00    -0.488 C  
ATOM     29  OG  SER A   1     -12.073  14.112  63.325  1.00  0.00    -0.916 OA 
ATOM     30  HG  SER A   1     -12.525  14.359  62.527  1.00  0.00     0.000 HD 
ENDBRANCH  24  28
ENDBRANCH  22  24
ENDBRANCH  19  22
ENDBRANCH  13  19
BRANCH  18  31
HETATM   31  C   UNK A   0      -9.543   5.921  67.107  1.00  0.00    -0.127 C  
HETATM   32  H   UNK A   0     -10.563   4.385  66.471  1.00  0.00     0.000 HD 
HETATM   33  O   UNK A   0     -10.645   5.319  66.621  1.00  0.00    -0.284 OA 
BRANCH  31  34
ATOM     34  N   SER A   1      -8.496   5.224  67.389  1.00  0.00    -0.106 NA 
ATOM     35  H   SER A   1      -7.880   5.481  68.160  1.00  0.00     0.000 HD 
BRANCH  34  36
ATOM     36  CA  SER A   1      -8.221   4.025  66.539  1.00  0.00    -0.101 C  
BRANCH  36  37
ATOM     37  CB  SER A   1      -6.808   4.168  65.965  1.00  0.00    -0.057 C  
ATOM     38  HG  SER A   1      -5.213   5.272  66.309  1.00  0.00     0.000 HD 
ATOM     39  OG  SER A   1      -6.089   5.183  66.666  1.00  0.00    -0.028 OA 
ENDBRANCH  36  37
BRANCH  36  40
ATOM     40  C   SER A   1      -8.320   2.755  67.405  1.00  0.00    -0.085 C  
ATOM     41  H   SER A   1      -9.107   0.954  67.251  1.00  0.00     0.000 HD 
ATOM     42  O   SER A   1      -9.046   1.737  66.717  1.00  0.00    -0.118 OA 
ENDBRANCH  36  40
ENDBRANCH  34  36
ENDBRANCH  31  34
ENDBRANCH  18  31
ENDBRANCH   8  10
ENDBRANCH   5   8
ENDBRANCH   1   5
TORSDOF 13
ENDMDL
MODEL       70
REMARK 921   NORMALIZED FREE ENERGY PREDICTED BY IDOCK:   -4.52 KCAL/MOL
REMARK 922        TOTAL FREE ENERGY PREDICTED BY IDOCK:   -8.89 KCAL/MOL
REMARK 923 INTER-LIGAND FREE ENERGY PREDICTED BY IDOCK:   -7.53 KCAL/MOL
REMARK 924 INTRA-LIGAND FREE ENERGY PREDICTED BY IDOCK:   -1.37 KCAL/MOL
REMARK 927      BINDING AFFINITY PREDICTED BY RF-SCORE:    0.00 PKD
ROOT
HETATM    1  C   UNK A   0     -10.460   3.842  72.427  1.00  0.00    -0.071 C  
HETATM    2  O   UNK A   0     -10.539   2.438  72.731  1.00  0.00    -0.156 OA 
HETATM    3  C   UNK A   0     -11.256   4.614  73.455  1.00  0.00    -0.400 C  
HETATM    4  H   UNK A   0     -10.039   1.954  72.085  1.00  0.00     0.000 HD 
ENDROOT
BRANCH   1   5
HETATM    5  C   UNK A   0      -8.993   4.228  72.506  1.00  0.00    -0.111 C  
HETATM    6  O   UNK A   0      -8.443   3.963  73.714  1.00  0.00    -0.090 OA 
HETATM    7  H   UNK A   0      -7.525   4.205  73.764  1.00  0.00     0.000 HD 
BRANCH   5   8
HETATM    8  N   UNK A   0      -8.330   4.707  71.506  1.00  0.00    -0.102 NA 
HETATM    9  H   UNK A   0      -7.339   4.494  71.397  1.00  0.00     0.000 HD 
BRANCH   8  10
HETATM   10  C   UNK A   0      -8.995   5.540  70.554  1.00  0.00    -0.136 A  
HETATM   11  C   UNK A   0      -9.329   6.885  70.840  1.00  0.00    -0.157 A  
HETATM   12  I   UNK A   0      -8.684   7.709  72.768  1.00  0.00    -0.258 I  
HETATM   13  C   UNK A   0      -9.910   7.710  69.854  1.00  0.00    -0.184 A  
HETATM   14  I   UNK A   0      -8.911   2.926  68.933  1.00  0.00    -0.234 I  
HETATM   15  C   UNK A   0      -9.900   7.253  68.503  1.00  0.00    -0.156 A  
HETATM   16  I   UNK A   0      -9.998   8.794  66.956  1.00  0.00    -0.364 I  
HETATM   17  C   UNK A   0      -9.186   5.052  69.225  1.00  0.00    -0.109 A  
HETATM   18  C   UNK A   0      -9.550   5.913  68.162  1.00  0.00    -0.130 A  
BRANCH  13  19
HETATM   19  C   UNK A   0     -10.630   8.981  70.183  1.00  0.00    -0.224 C  
HETATM   20  O   UNK A   0      -9.892  10.097  70.249  1.00  0.00    -0.396 OA 
HETATM   21  H   UNK A   0     -10.349  10.903  70.458  1.00  0.00     0.000 HD 
BRANCH  19  22
ATOM     22  N   SER A   1     -11.900   9.032  70.386  1.00  0.00    -0.468 NA 
ATOM     23  H   SER A   1     -12.538   9.340  69.653  1.00  0.00     0.000 HD 
BRANCH  22  24
ATOM     24  CA  SER A   1     -12.407   8.628  71.727  1.00  0.00    -0.346 C  
BRANCH  24  25
ATOM     25  C   SER A   1     -13.004   7.216  71.577  1.00  0.00    -0.383 C  
ATOM     26  H   SER A   1     -14.753   6.426  71.141  1.00  0.00     0.000 HD 
ATOM     27  O   SER A   1     -14.385   7.297  71.233  1.00  0.00    -0.402 OA 
ENDBRANCH  24  25
BRANCH  24  28
ATOM     28  CB  SER A   1     -13.516   9.564  72.252  1.00  0.00    -0.440 C  
ATOM     29  OG  SER A   1     -14.284   9.020  73.323  1.00  0.00    -1.192 OA 
ATOM     30  HG  SER A   1     -14.966   9.597  73.646  1.00  0.00     0.000 HD 
ENDBRANCH  24  28
ENDBRANCH  22  24
ENDBRANCH  19  22
ENDBRANCH  13  19
BRANCH  18  31
HETATM   31  C   UNK A   0      -9.514   5.471  66.720  1.00  0.00    -0.140 C  
HETATM   32  H   UNK A   0     -10.688   4.879  65.279  1.00  0.00     0.000 HD 
HETATM   33  O   UNK A   0     -10.710   5.157  66.187  1.00  0.00    -0.296 OA 
BRANCH  31  34
ATOM     34  N   SER A   1      -8.438   5.328  66.025  1.00  0.00    -0.117 NA 
ATOM     35  H   SER A   1      -7.564   5.029  66.456  1.00  0.00     0.000 HD 
BRANCH  34  36
ATOM     36  CA  SER A   1      -8.524   5.617  64.561  1.00  0.00    -0.070 C  
BRANCH  36  37
ATOM     37  CB  SER A   1      -7.506   6.714  64.237  1.00  0.00    -0.096 C  
ATOM     38  HG  SER A   1      -7.545   8.588  63.627  1.00  0.00     0.000 HD 
ATOM     39  OG  SER A   1      -8.176   7.907  63.829  1.00  0.00    -0.114 OA 
ENDBRANCH  36  37
BRANCH  36  40
ATOM     40  C   SER A   1      -8.201   4.336  63.769  1.00  0.00    -0.096 C  
ATOM     41  H   SER A   1      -8.076   2.402  64.129  1.00  0.00     0.000 HD 
ATOM     42  O   SER A   1      -8.275   3.192  64.617  1.00  0.00    -0.089 OA 
ENDBRANCH  36  40
ENDBRANCH  34  36
ENDBRANCH  31  34
ENDBRANCH  18  31
ENDBRANCH   8  10
ENDBRANCH   5   8
ENDBRANCH   1   5
TORSDOF 13
ENDMDL
MODEL       71
REMARK 921   NORMALIZED FREE ENERGY PREDICTED BY IDOCK:   -4.49 KCAL/MOL
REMARK 922        TOTAL FREE ENERGY PREDICTED BY IDOCK:   -8.84 KCAL/MOL
REMARK 923 INTER-LIGAND FREE ENERGY PREDICTED BY IDOCK:   -7.64 KCAL/MOL
REMARK 924 INTRA-LIGAND FREE ENERGY PREDICTED BY IDOCK:   -1.19 KCAL/MOL
REMARK 927      BINDING AFFINITY PREDICTED BY RF-SCORE:    0.00 PKD
ROOT
HETATM    1  C   UNK A   0      -6.486  10.970  70.190  1.00  0.00    -0.128 C  
HETATM    2  O   UNK A   0      -7.342   9.955  70.744  1.00  0.00    -0.312 OA 
HETATM    3  C   UNK A   0      -5.275  11.132  71.082  1.00  0.00    -0.098 C  
HETATM    4  H   UNK A   0      -8.103   9.854  70.184  1.00  0.00     0.000 HD 
ENDROOT
BRANCH   1   5
HETATM    5  C   UNK A   0      -6.060  10.484  68.816  1.00  0.00    -0.040 C  
HETATM    6  O   UNK A   0      -5.402   9.302  68.855  1.00  0.00    -0.037 OA 
HETATM    7  H   UNK A   0      -5.135   8.997  67.995  1.00  0.00     0.000 HD 
BRANCH   5   8
HETATM    8  N   UNK A   0      -6.346  11.109  67.722  1.00  0.00    -0.054 NA 
HETATM    9  H   UNK A   0      -5.793  10.949  66.880  1.00  0.00     0.000 HD 
BRANCH   8  10
HETATM   10  C   UNK A   0      -7.441  12.026  67.700  1.00  0.00    -0.132 A  
HETATM   11  C   UNK A   0      -7.259  13.415  67.897  1.00  0.00    -0.133 A  
HETATM   12  I   UNK A   0      -5.205  14.153  68.123  1.00  0.00    -0.044 I  
HETATM   13  C   UNK A   0      -8.345  14.309  67.788  1.00  0.00    -0.174 A  
HETATM   14  I   UNK A   0      -9.000   9.404  67.294  1.00  0.00    -0.158 I  
HETATM   15  C   UNK A   0      -9.556  13.828  67.211  1.00  0.00    -0.237 A  
HETATM   16  I   UNK A   0     -10.859  15.326  66.297  1.00  0.00    -0.217 I  
HETATM   17  C   UNK A   0      -8.731  11.551  67.312  1.00  0.00    -0.151 A  
HETATM   18  C   UNK A   0      -9.779  12.439  66.973  1.00  0.00    -0.211 A  
BRANCH  13  19
HETATM   19  C   UNK A   0      -8.311  15.696  68.352  1.00  0.00    -0.162 C  
HETATM   20  O   UNK A   0      -8.833  15.867  69.574  1.00  0.00    -0.242 OA 
HETATM   21  H   UNK A   0      -8.811  16.747  69.932  1.00  0.00     0.000 HD 
BRANCH  19  22
ATOM     22  N   SER A   1      -7.800  16.694  67.721  1.00  0.00    -0.162 NA 
ATOM     23  H   SER A   1      -7.096  16.555  66.996  1.00  0.00     0.000 HD 
BRANCH  22  24
ATOM     24  CA  SER A   1      -8.268  18.061  68.084  1.00  0.00    -0.271 C  
BRANCH  24  25
ATOM     25  C   SER A   1      -8.787  18.719  66.792  1.00  0.00    -0.305 C  
ATOM     26  H   SER A   1      -8.102  19.087  64.984  1.00  0.00     0.000 HD 
ATOM     27  O   SER A   1      -7.782  18.681  65.781  1.00  0.00    -0.491 OA 
ENDBRANCH  24  25
BRANCH  24  28
ATOM     28  CB  SER A   1      -7.139  18.945  68.654  1.00  0.00    -0.297 C  
ATOM     29  OG  SER A   1      -7.119  20.275  68.137  1.00  0.00    -0.293 OA 
ATOM     30  HG  SER A   1      -6.424  20.819  68.488  1.00  0.00     0.000 HD 
ENDBRANCH  24  28
ENDBRANCH  22  24
ENDBRANCH  19  22
ENDBRANCH  13  19
BRANCH  18  31
HETATM   31  C   UNK A   0     -11.059  11.966  66.328  1.00  0.00    -0.314 C  
HETATM   32  H   UNK A   0     -12.961  11.741  66.701  1.00  0.00     0.000 HD 
HETATM   33  O   UNK A   0     -12.155  12.039  67.107  1.00  0.00    -0.587 OA 
BRANCH  31  34
ATOM     34  N   SER A   1     -11.139  11.463  65.144  1.00  0.00    -0.188 NA 
ATOM     35  H   SER A   1     -11.454  10.504  64.996  1.00  0.00     0.000 HD 
BRANCH  34  36
ATOM     36  CA  SER A   1     -10.752  12.340  63.998  1.00  0.00    -0.396 C  
BRANCH  36  37
ATOM     37  CB  SER A   1      -9.979  11.486  62.989  1.00  0.00    -0.322 C  
ATOM     38  HG  SER A   1      -8.536  10.145  63.037  1.00  0.00     0.000 HD 
ATOM     39  OG  SER A   1      -9.016  10.675  63.662  1.00  0.00    -0.186 OA 
ENDBRANCH  36  37
BRANCH  36  40
ATOM     40  C   SER A   1     -12.023  12.917  63.346  1.00  0.00    -0.537 C  
ATOM     41  H   SER A   1     -13.912  12.390  63.136  1.00  0.00     0.000 HD 
ATOM     42  O   SER A   1     -13.128  12.034  63.537  1.00  0.00    -0.764 OA 
ENDBRANCH  36  40
ENDBRANCH  34  36
ENDBRANCH  31  34
ENDBRANCH  18  31
ENDBRANCH   8  10
ENDBRANCH   5   8
ENDBRANCH   1   5
TORSDOF 13
ENDMDL
MODEL       72
REMARK 921   NORMALIZED FREE ENERGY PREDICTED BY IDOCK:   -4.49 KCAL/MOL
REMARK 922        TOTAL FREE ENERGY PREDICTED BY IDOCK:   -8.83 KCAL/MOL
REMARK 923 INTER-LIGAND FREE ENERGY PREDICTED BY IDOCK:   -7.83 KCAL/MOL
REMARK 924 INTRA-LIGAND FREE ENERGY PREDICTED BY IDOCK:   -0.99 KCAL/MOL
REMARK 927      BINDING AFFINITY PREDICTED BY RF-SCORE:    0.00 PKD
ROOT
HETATM    1  C   UNK A   0      -5.166   9.690  69.632  1.00  0.00    -0.034 C  
HETATM    2  O   UNK A   0      -5.366   9.190  70.966  1.00  0.00    -0.028 OA 
HETATM    3  C   UNK A   0      -5.353   8.556  68.649  1.00  0.00    -0.036 C  
HETATM    4  H   UNK A   0      -5.247   9.902  71.583  1.00  0.00     0.000 HD 
ENDROOT
BRANCH   1   5
HETATM    5  C   UNK A   0      -6.219  10.760  69.400  1.00  0.00    -0.059 C  
HETATM    6  O   UNK A   0      -6.617  11.364  70.544  1.00  0.00    -0.508 OA 
HETATM    7  H   UNK A   0      -7.276  12.033  70.400  1.00  0.00     0.000 HD 
BRANCH   5   8
HETATM    8  N   UNK A   0      -6.646  11.093  68.227  1.00  0.00    -0.057 NA 
HETATM    9  H   UNK A   0      -6.172  10.751  67.392  1.00  0.00     0.000 HD 
BRANCH   8  10
HETATM   10  C   UNK A   0      -7.787  11.944  68.108  1.00  0.00    -0.134 A  
HETATM   11  C   UNK A   0      -9.105  11.430  68.076  1.00  0.00    -0.171 A  
HETATM   12  I   UNK A   0      -9.363   9.267  68.335  1.00  0.00    -0.154 I  
HETATM   13  C   UNK A   0     -10.218  12.296  68.042  1.00  0.00    -0.206 A  
HETATM   14  I   UNK A   0      -5.576  14.078  67.957  1.00  0.00    -0.022 I  
HETATM   15  C   UNK A   0     -10.003  13.678  68.318  1.00  0.00    -0.236 A  
HETATM   16  I   UNK A   0     -11.720  14.796  69.079  1.00  0.00    -0.316 I  
HETATM   17  C   UNK A   0      -7.603  13.359  68.184  1.00  0.00    -0.138 A  
HETATM   18  C   UNK A   0      -8.693  14.240  68.382  1.00  0.00    -0.181 A  
BRANCH  13  19
HETATM   19  C   UNK A   0     -11.583  11.845  67.622  1.00  0.00    -0.312 C  
HETATM   20  O   UNK A   0     -12.321  11.208  68.541  1.00  0.00    -0.694 OA 
HETATM   21  H   UNK A   0     -13.187  10.922  68.274  1.00  0.00     0.000 HD 
BRANCH  19  22
ATOM     22  N   SER A   1     -12.056  12.056  66.444  1.00  0.00    -0.537 NA 
ATOM     23  H   SER A   1     -13.058  11.992  66.260  1.00  0.00     0.000 HD 
BRANCH  22  24
ATOM     24  CA  SER A   1     -11.096  12.397  65.358  1.00  0.00    -0.306 C  
BRANCH  24  25
ATOM     25  C   SER A   1     -11.517  13.768  64.796  1.00  0.00    -0.356 C  
ATOM     26  H   SER A   1     -13.144  14.875  64.759  1.00  0.00     0.000 HD 
ATOM     27  O   SER A   1     -12.884  14.029  65.106  1.00  0.00    -0.696 OA 
ENDBRANCH  24  25
BRANCH  24  28
ATOM     28  CB  SER A   1     -11.118  11.377  64.201  1.00  0.00    -0.308 C  
ATOM     29  OG  SER A   1     -10.721  11.912  62.940  1.00  0.00    -0.657 OA 
ATOM     30  HG  SER A   1     -10.735  11.283  62.228  1.00  0.00     0.000 HD 
ENDBRANCH  24  28
ENDBRANCH  22  24
ENDBRANCH  19  22
ENDBRANCH  13  19
BRANCH  18  31
HETATM   31  C   UNK A   0      -8.498  15.700  68.711  1.00  0.00    -0.192 C  
HETATM   32  H   UNK A   0      -8.020  16.877  70.191  1.00  0.00     0.000 HD 
HETATM   33  O   UNK A   0      -8.142  15.958  69.984  1.00  0.00     0.252 OA 
BRANCH  31  34
ATOM     34  N   SER A   1      -8.705  16.670  67.888  1.00  0.00    -0.191 NA 
ATOM     35  H   SER A   1      -8.890  16.496  66.899  1.00  0.00     0.000 HD 
BRANCH  34  36
ATOM     36  CA  SER A   1      -8.663  18.059  68.439  1.00  0.00    -0.293 C  
BRANCH  36  37
ATOM     37  CB  SER A   1      -7.299  18.662  68.093  1.00  0.00    -0.255 C  
ATOM     38  HG  SER A   1      -5.927  19.747  69.001  1.00  0.00     0.000 HD 
ATOM     39  OG  SER A   1      -6.773  19.372  69.215  1.00  0.00    -0.312 OA 
ENDBRANCH  36  37
BRANCH  36  40
ATOM     40  C   SER A   1      -9.793  18.892  67.805  1.00  0.00    -0.337 C  
ATOM     41  H   SER A   1     -11.453  18.554  66.797  1.00  0.00     0.000 HD 
ATOM     42  O   SER A   1     -10.756  18.041  67.187  1.00  0.00    -0.356 OA 
ENDBRANCH  36  40
ENDBRANCH  34  36
ENDBRANCH  31  34
ENDBRANCH  18  31
ENDBRANCH   8  10
ENDBRANCH   5   8
ENDBRANCH   1   5
TORSDOF 13
ENDMDL
MODEL       73
REMARK 921   NORMALIZED FREE ENERGY PREDICTED BY IDOCK:   -4.48 KCAL/MOL
REMARK 922        TOTAL FREE ENERGY PREDICTED BY IDOCK:   -8.81 KCAL/MOL
REMARK 923 INTER-LIGAND FREE ENERGY PREDICTED BY IDOCK:   -7.91 KCAL/MOL
REMARK 924 INTRA-LIGAND FREE ENERGY PREDICTED BY IDOCK:   -0.90 KCAL/MOL
REMARK 927      BINDING AFFINITY PREDICTED BY RF-SCORE:    0.00 PKD
ROOT
HETATM    1  C   UNK A   0      -6.859   9.793  62.792  1.00  0.00    -0.110 C  
HETATM    2  O   UNK A   0      -6.099  10.945  62.383  1.00  0.00    -0.228 OA 
HETATM    3  C   UNK A   0      -6.016   8.553  62.593  1.00  0.00    -0.087 C  
HETATM    4  H   UNK A   0      -6.629  11.723  62.508  1.00  0.00     0.000 HD 
ENDROOT
BRANCH   1   5
HETATM    5  C   UNK A   0      -7.178   9.976  64.266  1.00  0.00    -0.133 C  
HETATM    6  O   UNK A   0      -6.339  10.840  64.883  1.00  0.00    -0.360 OA 
HETATM    7  H   UNK A   0      -6.538  10.955  65.805  1.00  0.00     0.000 HD 
BRANCH   5   8
HETATM    8  N   UNK A   0      -8.179   9.407  64.851  1.00  0.00    -0.133 NA 
HETATM    9  H   UNK A   0      -8.512   8.498  64.531  1.00  0.00     0.000 HD 
BRANCH   8  10
HETATM   10  C   UNK A   0      -8.817  10.060  65.950  1.00  0.00    -0.144 A  
HETATM   11  C   UNK A   0      -9.766  11.092  65.758  1.00  0.00    -0.225 A  
HETATM   12  I   UNK A   0     -10.329  11.591  63.698  1.00  0.00    -0.540 I  
HETATM   13  C   UNK A   0     -10.444  11.664  66.856  1.00  0.00    -0.262 A  
HETATM   14  I   UNK A   0      -6.963   8.174  67.522  1.00  0.00    -0.078 I  
HETATM   15  C   UNK A   0     -10.361  11.002  68.116  1.00  0.00    -0.182 A  
HETATM   16  I   UNK A   0     -12.000  11.365  69.514  1.00  0.00    -0.335 I  
HETATM   17  C   UNK A   0      -8.612   9.552  67.268  1.00  0.00    -0.128 A  
HETATM   18  C   UNK A   0      -9.435   9.941  68.352  1.00  0.00    -0.142 A  
BRANCH  13  19
HETATM   19  C   UNK A   0     -11.145  12.984  66.776  1.00  0.00    -0.286 C  
HETATM   20  O   UNK A   0     -12.418  12.971  66.356  1.00  0.00    -0.401 OA 
HETATM   21  H   UNK A   0     -12.863  13.808  66.306  1.00  0.00     0.000 HD 
BRANCH  19  22
ATOM     22  N   SER A   1     -10.583  14.095  67.101  1.00  0.00    -0.277 NA 
ATOM     23  H   SER A   1     -10.583  14.423  68.067  1.00  0.00     0.000 HD 
BRANCH  22  24
ATOM     24  CA  SER A   1      -9.931  14.887  66.021  1.00  0.00    -0.313 C  
BRANCH  24  25
ATOM     25  C   SER A   1      -8.602  15.417  66.590  1.00  0.00    -0.283 C  
ATOM     26  H   SER A   1      -7.171  14.758  67.769  1.00  0.00     0.000 HD 
ATOM     27  O   SER A   1      -7.991  14.431  67.418  1.00  0.00    -0.182 OA 
ENDBRANCH  24  25
BRANCH  24  28
ATOM     28  CB  SER A   1     -10.779  16.097  65.575  1.00  0.00    -0.342 C  
ATOM     29  OG  SER A   1     -10.824  16.292  64.163  1.00  0.00    -1.006 OA 
ATOM     30  HG  SER A   1     -11.346  17.037  63.889  1.00  0.00     0.000 HD 
ENDBRANCH  24  28
ENDBRANCH  22  24
ENDBRANCH  19  22
ENDBRANCH  13  19
BRANCH  18  31
HETATM   31  C   UNK A   0      -9.397   9.238  69.686  1.00  0.00    -0.179 C  
HETATM   32  H   UNK A   0      -8.311   9.090  71.300  1.00  0.00     0.000 HD 
HETATM   33  O   UNK A   0      -8.335   9.533  70.460  1.00  0.00    -0.184 OA 
BRANCH  31  34
ATOM     34  N   SER A   1     -10.259   8.363  70.077  1.00  0.00    -0.197 NA 
ATOM     35  H   SER A   1     -11.225   8.623  70.278  1.00  0.00     0.000 HD 
BRANCH  34  36
ATOM     36  CA  SER A   1      -9.787   6.952  70.224  1.00  0.00    -0.178 C  
BRANCH  36  37
ATOM     37  CB  SER A   1      -9.771   6.613  71.717  1.00  0.00    -0.161 C  
ATOM     38  HG  SER A   1     -10.559   5.246  72.897  1.00  0.00     0.000 HD 
ATOM     39  OG  SER A   1     -10.568   5.456  71.971  1.00  0.00    -0.215 OA 
ENDBRANCH  36  37
BRANCH  36  40
ATOM     40  C   SER A   1     -10.748   6.013  69.473  1.00  0.00    -0.335 C  
ATOM     41  H   SER A   1     -11.559   5.901  67.679  1.00  0.00     0.000 HD 
ATOM     42  O   SER A   1     -10.967   6.481  68.143  1.00  0.00    -0.280 OA 
ENDBRANCH  36  40
ENDBRANCH  34  36
ENDBRANCH  31  34
ENDBRANCH  18  31
ENDBRANCH   8  10
ENDBRANCH   5   8
ENDBRANCH   1   5
TORSDOF 13
ENDMDL
MODEL       74
REMARK 921   NORMALIZED FREE ENERGY PREDICTED BY IDOCK:   -4.48 KCAL/MOL
REMARK 922        TOTAL FREE ENERGY PREDICTED BY IDOCK:   -8.81 KCAL/MOL
REMARK 923 INTER-LIGAND FREE ENERGY PREDICTED BY IDOCK:   -8.51 KCAL/MOL
REMARK 924 INTRA-LIGAND FREE ENERGY PREDICTED BY IDOCK:   -0.30 KCAL/MOL
REMARK 927      BINDING AFFINITY PREDICTED BY RF-SCORE:    0.00 PKD
ROOT
HETATM    1  C   UNK A   0      -8.859   8.660  70.016  1.00  0.00    -0.142 C  
HETATM    2  O   UNK A   0      -8.611   9.695  70.983  1.00  0.00    -0.344 OA 
HETATM    3  C   UNK A   0      -8.202   7.381  70.485  1.00  0.00    -0.127 C  
HETATM    4  H   UNK A   0      -9.023  10.498  70.688  1.00  0.00     0.000 HD 
ENDROOT
BRANCH   1   5
HETATM    5  C   UNK A   0     -10.365   8.476  69.944  1.00  0.00    -0.210 C  
HETATM    6  O   UNK A   0     -10.939   8.342  71.162  1.00  0.00    -0.231 OA 
HETATM    7  H   UNK A   0     -11.881   8.227  71.117  1.00  0.00     0.000 HD 
BRANCH   5   8
HETATM    8  N   UNK A   0     -11.031   8.502  68.836  1.00  0.00    -0.429 NA 
HETATM    9  H   UNK A   0     -11.939   8.042  68.773  1.00  0.00     0.000 HD 
BRANCH   8  10
HETATM   10  C   UNK A   0     -10.486   9.177  67.702  1.00  0.00    -0.261 A  
HETATM   11  C   UNK A   0      -9.735   8.496  66.715  1.00  0.00    -0.236 A  
HETATM   12  I   UNK A   0      -9.524   6.321  66.913  1.00  0.00    -0.189 I  
HETATM   13  C   UNK A   0      -9.278   9.169  65.562  1.00  0.00    -0.287 A  
HETATM   14  I   UNK A   0     -11.750  11.588  69.136  1.00  0.00    -0.400 I  
HETATM   15  C   UNK A   0      -9.816  10.458  65.279  1.00  0.00    -0.297 A  
HETATM   16  I   UNK A   0      -9.779  11.088  63.187  1.00  0.00    -0.352 I  
HETATM   17  C   UNK A   0     -10.841  10.541  67.474  1.00  0.00    -0.301 A  
HETATM   18  C   UNK A   0     -10.598  11.176  66.233  1.00  0.00    -0.309 A  
BRANCH  13  19
HETATM   19  C   UNK A   0      -8.180   8.636  64.695  1.00  0.00    -0.165 C  
HETATM   20  O   UNK A   0      -8.445   7.525  63.993  1.00  0.00    -0.367 OA 
HETATM   21  H   UNK A   0      -7.748   7.187  63.443  1.00  0.00     0.000 HD 
BRANCH  19  22
ATOM     22  N   SER A   1      -7.029   9.203  64.598  1.00  0.00    -0.088 NA 
ATOM     23  H   SER A   1      -6.906  10.054  64.048  1.00  0.00     0.000 HD 
BRANCH  22  24
ATOM     24  CA  SER A   1      -5.881   8.578  65.313  1.00  0.00    -0.048 C  
BRANCH  24  25
ATOM     25  C   SER A   1      -5.349   7.448  64.411  1.00  0.00    -0.029 C  
ATOM     26  H   SER A   1      -5.099   7.136  62.484  1.00  0.00     0.000 HD 
ATOM     27  O   SER A   1      -5.427   7.833  63.040  1.00  0.00    -0.048 OA 
ENDBRANCH  24  25
BRANCH  24  28
ATOM     28  CB  SER A   1      -6.288   7.960  66.667  1.00  0.00    -0.050 C  
ATOM     29  OG  SER A   1      -6.008   8.786  67.795  1.00  0.00    -0.046 OA 
ATOM     30  HG  SER A   1      -6.258   8.406  68.629  1.00  0.00     0.000 HD 
ENDBRANCH  24  28
ENDBRANCH  22  24
ENDBRANCH  19  22
ENDBRANCH  13  19
BRANCH  18  31
HETATM   31  C   UNK A   0     -11.182  12.524  65.889  1.00  0.00    -0.320 C  
HETATM   32  H   UNK A   0     -12.822  13.349  65.229  1.00  0.00     0.000 HD 
HETATM   33  O   UNK A   0     -12.454  12.501  65.445  1.00  0.00    -0.630 OA 
BRANCH  31  34
ATOM     34  N   SER A   1     -10.535  13.637  65.940  1.00  0.00    -0.290 NA 
ATOM     35  H   SER A   1      -9.516  13.657  65.983  1.00  0.00     0.000 HD 
BRANCH  34  36
ATOM     36  CA  SER A   1     -11.337  14.898  65.932  1.00  0.00    -0.306 C  
BRANCH  36  37
ATOM     37  CB  SER A   1     -10.589  15.939  66.770  1.00  0.00    -0.309 C  
ATOM     38  HG  SER A   1     -10.605  16.575  68.635  1.00  0.00     0.000 HD 
ATOM     39  OG  SER A   1     -11.068  15.929  68.115  1.00  0.00    -0.317 OA 
ENDBRANCH  36  37
BRANCH  36  40
ATOM     40  C   SER A   1     -11.495  15.393  64.482  1.00  0.00    -0.311 C  
ATOM     41  H   SER A   1     -11.236  17.075  63.488  1.00  0.00     0.000 HD 
ATOM     42  O   SER A   1     -11.139  16.770  64.382  1.00  0.00    -1.072 OA 
ENDBRANCH  36  40
ENDBRANCH  34  36
ENDBRANCH  31  34
ENDBRANCH  18  31
ENDBRANCH   8  10
ENDBRANCH   5   8
ENDBRANCH   1   5
TORSDOF 13
ENDMDL
MODEL       75
REMARK 921   NORMALIZED FREE ENERGY PREDICTED BY IDOCK:   -4.47 KCAL/MOL
REMARK 922        TOTAL FREE ENERGY PREDICTED BY IDOCK:   -8.80 KCAL/MOL
REMARK 923 INTER-LIGAND FREE ENERGY PREDICTED BY IDOCK:   -7.92 KCAL/MOL
REMARK 924 INTRA-LIGAND FREE ENERGY PREDICTED BY IDOCK:   -0.88 KCAL/MOL
REMARK 927      BINDING AFFINITY PREDICTED BY RF-SCORE:    0.00 PKD
ROOT
HETATM    1  C   UNK A   0     -12.495  15.356  70.423  1.00  0.00    -0.404 C  
HETATM    2  O   UNK A   0     -13.921  15.356  70.609  1.00  0.00    -0.823 OA 
HETATM    3  C   UNK A   0     -11.823  15.388  71.777  1.00  0.00    -0.483 C  
HETATM    4  H   UNK A   0     -14.344  15.336  69.758  1.00  0.00     0.000 HD 
ENDROOT
BRANCH   1   5
HETATM    5  C   UNK A   0     -12.146  14.068  69.697  1.00  0.00    -0.355 C  
HETATM    6  O   UNK A   0     -12.661  14.011  68.447  1.00  0.00    -0.388 OA 
HETATM    7  H   UNK A   0     -12.443  13.205  67.993  1.00  0.00     0.000 HD 
BRANCH   5   8
HETATM    8  N   UNK A   0     -11.391  13.150  70.204  1.00  0.00    -0.487 NA 
HETATM    9  H   UNK A   0     -11.198  13.139  71.205  1.00  0.00     0.000 HD 
BRANCH   8  10
HETATM   10  C   UNK A   0     -10.827  12.151  69.352  1.00  0.00     0.027 A  
HETATM   11  C   UNK A   0      -9.797  12.449  68.429  1.00  0.00    -0.198 A  
HETATM   12  I   UNK A   0      -8.992  14.490  68.421  1.00  0.00    -0.163 I  
HETATM   13  C   UNK A   0      -9.200  11.429  67.659  1.00  0.00    -0.158 A  
HETATM   14  I   UNK A   0     -12.955  10.436  70.765  1.00  0.00    -0.051 I  
HETATM   15  C   UNK A   0      -9.456  10.074  68.023  1.00  0.00    -0.137 A  
HETATM   16  I   UNK A   0      -7.949   8.608  67.430  1.00  0.00    -0.101 I  
HETATM   17  C   UNK A   0     -11.200  10.787  69.548  1.00  0.00    -0.281 A  
HETATM   18  C   UNK A   0     -10.469   9.725  68.965  1.00  0.00    -0.229 A  
BRANCH  13  19
HETATM   19  C   UNK A   0      -8.407  11.709  66.420  1.00  0.00    -0.084 C  
HETATM   20  O   UNK A   0      -7.084  11.863  66.567  1.00  0.00    -0.369 OA 
HETATM   21  H   UNK A   0      -6.582  12.040  65.781  1.00  0.00     0.000 HD 
BRANCH  19  22
ATOM     22  N   SER A   1      -8.942  11.790  65.252  1.00  0.00    -0.405 NA 
ATOM     23  H   SER A   1      -8.415  11.544  64.414  1.00  0.00     0.000 HD 
BRANCH  22  24
ATOM     24  CA  SER A   1     -10.355  12.253  65.164  1.00  0.00    -0.286 C  
BRANCH  24  25
ATOM     25  C   SER A   1     -11.040  11.407  64.075  1.00  0.00    -0.322 C  
ATOM     26  H   SER A   1     -10.600  10.734  62.279  1.00  0.00     0.000 HD 
ATOM     27  O   SER A   1     -10.177  11.255  62.951  1.00  0.00    -0.265 OA 
ENDBRANCH  24  25
BRANCH  24  28
ATOM     28  CB  SER A   1     -10.470  13.738  64.762  1.00  0.00    -0.428 C  
ATOM     29  OG  SER A   1     -11.365  13.984  63.678  1.00  0.00    -0.424 OA 
ATOM     30  HG  SER A   1     -11.436  14.899  63.431  1.00  0.00     0.000 HD 
ENDBRANCH  24  28
ENDBRANCH  22  24
ENDBRANCH  19  22
ENDBRANCH  13  19
BRANCH  18  31
HETATM   31  C   UNK A   0     -10.692   8.284  69.355  1.00  0.00    -0.151 C  
HETATM   32  H   UNK A   0     -11.280   6.579  68.613  1.00  0.00     0.000 HD 
HETATM   33  O   UNK A   0     -11.140   7.486  68.368  1.00  0.00     0.044 OA 
BRANCH  31  34
ATOM     34  N   SER A   1     -10.538   7.816  70.546  1.00  0.00    -0.222 NA 
ATOM     35  H   SER A   1     -11.248   7.226  70.980  1.00  0.00     0.000 HD 
BRANCH  34  36
ATOM     36  CA  SER A   1      -9.278   8.174  71.266  1.00  0.00    -0.156 C  
BRANCH  36  37
ATOM     37  CB  SER A   1      -9.653   8.616  72.683  1.00  0.00    -0.126 C  
ATOM     38  HG  SER A   1      -9.122   8.166  74.527  1.00  0.00     0.000 HD 
ATOM     39  OG  SER A   1      -8.889   7.892  73.647  1.00  0.00    -0.235 OA 
ENDBRANCH  36  37
BRANCH  36  40
ATOM     40  C   SER A   1      -8.354   6.942  71.318  1.00  0.00    -0.119 C  
ATOM     41  H   SER A   1      -8.326   5.119  70.569  1.00  0.00     0.000 HD 
ATOM     42  O   SER A   1      -8.896   5.878  70.537  1.00  0.00    -0.140 OA 
ENDBRANCH  36  40
ENDBRANCH  34  36
ENDBRANCH  31  34
ENDBRANCH  18  31
ENDBRANCH   8  10
ENDBRANCH   5   8
ENDBRANCH   1   5
TORSDOF 13
ENDMDL
MODEL       76
REMARK 921   NORMALIZED FREE ENERGY PREDICTED BY IDOCK:   -4.46 KCAL/MOL
REMARK 922        TOTAL FREE ENERGY PREDICTED BY IDOCK:   -8.78 KCAL/MOL
REMARK 923 INTER-LIGAND FREE ENERGY PREDICTED BY IDOCK:   -7.14 KCAL/MOL
REMARK 924 INTRA-LIGAND FREE ENERGY PREDICTED BY IDOCK:   -1.64 KCAL/MOL
REMARK 927      BINDING AFFINITY PREDICTED BY RF-SCORE:    0.00 PKD
ROOT
HETATM    1  C   UNK A   0      -8.620  17.194  67.090  1.00  0.00    -0.204 C  
HETATM    2  O   UNK A   0      -9.937  17.632  66.708  1.00  0.00    -0.291 OA 
HETATM    3  C   UNK A   0      -8.256  17.830  68.412  1.00  0.00    -0.298 C  
HETATM    4  H   UNK A   0     -10.165  17.232  65.877  1.00  0.00     0.000 HD 
ENDROOT
BRANCH   1   5
HETATM    5  C   UNK A   0      -8.684  15.684  67.237  1.00  0.00    -0.194 C  
HETATM    6  O   UNK A   0      -8.925  15.049  66.067  1.00  0.00    -0.477 OA 
HETATM    7  H   UNK A   0      -8.965  14.104  66.159  1.00  0.00     0.000 HD 
BRANCH   5   8
HETATM    8  N   UNK A   0      -8.475  15.071  68.356  1.00  0.00    -0.147 NA 
HETATM    9  H   UNK A   0      -8.149  15.588  69.172  1.00  0.00     0.000 HD 
BRANCH   8  10
HETATM   10  C   UNK A   0      -8.703  13.663  68.441  1.00  0.00    -0.153 A  
HETATM   11  C   UNK A   0      -9.986  13.127  68.703  1.00  0.00    -0.111 A  
HETATM   12  I   UNK A   0     -11.665  14.529  68.860  1.00  0.00    -0.327 I  
HETATM   13  C   UNK A   0     -10.201  11.732  68.699  1.00  0.00    -0.211 A  
HETATM   14  I   UNK A   0      -5.661  13.632  67.976  1.00  0.00    -0.068 I  
HETATM   15  C   UNK A   0      -9.179  10.896  68.161  1.00  0.00    -0.158 A  
HETATM   16  I   UNK A   0      -9.818   8.950  67.399  1.00  0.00    -0.317 I  
HETATM   17  C   UNK A   0      -7.643  12.770  68.096  1.00  0.00    -0.134 A  
HETATM   18  C   UNK A   0      -7.876  11.394  67.861  1.00  0.00    -0.117 A  
BRANCH  13  19
HETATM   19  C   UNK A   0     -11.398  11.096  69.335  1.00  0.00    -0.283 C  
HETATM   20  O   UNK A   0     -12.440  10.830  68.535  1.00  0.00    -0.748 OA 
HETATM   21  H   UNK A   0     -13.199  10.426  68.938  1.00  0.00     0.000 HD 
BRANCH  19  22
ATOM     22  N   SER A   1     -11.448  10.795  70.585  1.00  0.00    -0.414 NA 
ATOM     23  H   SER A   1     -11.385  11.516  71.303  1.00  0.00     0.000 HD 
BRANCH  22  24
ATOM     24  CA  SER A   1     -11.602   9.359  70.950  1.00  0.00    -0.312 C  
BRANCH  24  25
ATOM     25  C   SER A   1     -12.774   9.269  71.944  1.00  0.00    -0.394 C  
ATOM     26  H   SER A   1     -14.174   7.967  72.412  1.00  0.00     0.000 HD 
ATOM     27  O   SER A   1     -13.451   8.022  71.799  1.00  0.00    -0.337 OA 
ENDBRANCH  24  25
BRANCH  24  28
ATOM     28  CB  SER A   1     -10.346   8.780  71.633  1.00  0.00    -0.321 C  
ATOM     29  OG  SER A   1      -9.144   9.494  71.350  1.00  0.00    -0.311 OA 
ATOM     30  HG  SER A   1      -8.370   9.137  71.771  1.00  0.00     0.000 HD 
ENDBRANCH  24  28
ENDBRANCH  22  24
ENDBRANCH  19  22
ENDBRANCH  13  19
BRANCH  18  31
HETATM   31  C   UNK A   0      -6.828  10.491  67.259  1.00  0.00    -0.082 C  
HETATM   32  H   UNK A   0      -6.172   9.856  65.534  1.00  0.00     0.000 HD 
HETATM   33  O   UNK A   0      -6.832  10.425  65.914  1.00  0.00    -0.117 OA 
BRANCH  31  34
ATOM     34  N   SER A   1      -6.007   9.767  67.940  1.00  0.00    -0.050 NA 
ATOM     35  H   SER A   1      -5.101   9.492  67.559  1.00  0.00     0.000 HD 
BRANCH  34  36
ATOM     36  CA  SER A   1      -6.435   9.347  69.309  1.00  0.00    -0.044 C  
BRANCH  36  37
ATOM     37  CB  SER A   1      -6.296   7.825  69.400  1.00  0.00    -0.035 C  
ATOM     38  HG  SER A   1      -7.230   6.340  70.297  1.00  0.00     0.000 HD 
ATOM     39  OG  SER A   1      -7.317   7.285  70.240  1.00  0.00    -0.078 OA 
ENDBRANCH  36  37
BRANCH  36  40
ATOM     40  C   SER A   1      -5.535  10.031  70.355  1.00  0.00    -0.051 C  
ATOM     41  H   SER A   1      -5.715  11.439  71.724  1.00  0.00     0.000 HD 
ATOM     42  O   SER A   1      -6.269  11.018  71.078  1.00  0.00    -0.356 OA 
ENDBRANCH  36  40
ENDBRANCH  34  36
ENDBRANCH  31  34
ENDBRANCH  18  31
ENDBRANCH   8  10
ENDBRANCH   5   8
ENDBRANCH   1   5
TORSDOF 13
ENDMDL
MODEL       77
REMARK 921   NORMALIZED FREE ENERGY PREDICTED BY IDOCK:   -4.45 KCAL/MOL
REMARK 922        TOTAL FREE ENERGY PREDICTED BY IDOCK:   -8.77 KCAL/MOL
REMARK 923 INTER-LIGAND FREE ENERGY PREDICTED BY IDOCK:   -7.62 KCAL/MOL
REMARK 924 INTRA-LIGAND FREE ENERGY PREDICTED BY IDOCK:   -1.15 KCAL/MOL
REMARK 927      BINDING AFFINITY PREDICTED BY RF-SCORE:    0.00 PKD
ROOT
HETATM    1  C   UNK A   0      -6.248  10.123  64.911  1.00  0.00    -0.125 C  
HETATM    2  O   UNK A   0      -5.249  11.149  64.768  1.00  0.00    -0.478 OA 
HETATM    3  C   UNK A   0      -5.625   8.783  64.593  1.00  0.00    -0.062 C  
HETATM    4  H   UNK A   0      -5.641  11.991  64.968  1.00  0.00     0.000 HD 
ENDROOT
BRANCH   1   5
HETATM    5  C   UNK A   0      -6.707  10.155  66.359  1.00  0.00    -0.092 C  
HETATM    6  O   UNK A   0      -6.372  11.302  66.993  1.00  0.00    -0.086 OA 
HETATM    7  H   UNK A   0      -6.659  11.322  67.899  1.00  0.00     0.000 HD 
BRANCH   5   8
HETATM    8  N   UNK A   0      -7.391   9.206  66.907  1.00  0.00    -0.089 NA 
HETATM    9  H   UNK A   0      -7.350   8.259  66.530  1.00  0.00     0.000 HD 
BRANCH   8  10
HETATM   10  C   UNK A   0      -8.208   9.492  68.044  1.00  0.00    -0.114 A  
HETATM   11  C   UNK A   0      -9.424  10.206  67.932  1.00  0.00    -0.141 A  
HETATM   12  I   UNK A   0     -10.095  10.770  65.921  1.00  0.00    -0.299 I  
HETATM   13  C   UNK A   0     -10.253  10.404  69.057  1.00  0.00    -0.233 A  
HETATM   14  I   UNK A   0      -5.881   8.068  69.468  1.00  0.00    -0.026 I  
HETATM   15  C   UNK A   0      -9.983   9.643  70.232  1.00  0.00    -0.270 A  
HETATM   16  I   UNK A   0     -11.667   9.316  71.586  1.00  0.00    -0.372 I  
HETATM   17  C   UNK A   0      -7.869   8.906  69.302  1.00  0.00    -0.096 A  
HETATM   18  C   UNK A   0      -8.780   8.890  70.384  1.00  0.00    -0.200 A  
BRANCH  13  19
HETATM   19  C   UNK A   0     -11.322  11.451  69.101  1.00  0.00    -0.288 C  
HETATM   20  O   UNK A   0     -12.554  11.076  68.729  1.00  0.00    -0.637 OA 
HETATM   21  H   UNK A   0     -13.232  11.741  68.757  1.00  0.00     0.000 HD 
BRANCH  19  22
ATOM     22  N   SER A   1     -11.102  12.659  69.486  1.00  0.00    -0.460 NA 
ATOM     23  H   SER A   1     -10.235  12.910  69.962  1.00  0.00     0.000 HD 
BRANCH  22  24
ATOM     24  CA  SER A   1     -12.153  13.678  69.216  1.00  0.00    -0.314 C  
BRANCH  24  25
ATOM     25  C   SER A   1     -11.842  14.293  67.838  1.00  0.00    -0.358 C  
ATOM     26  H   SER A   1     -11.199  16.016  67.138  1.00  0.00     0.000 HD 
ATOM     27  O   SER A   1     -11.390  15.637  67.988  1.00  0.00    -0.343 OA 
ENDBRANCH  24  25
BRANCH  24  28
ATOM     28  CB  SER A   1     -12.162  14.816  70.259  1.00  0.00    -0.338 C  
ATOM     29  OG  SER A   1     -13.351  15.604  70.255  1.00  0.00    -0.761 OA 
ATOM     30  HG  SER A   1     -13.356  16.304  70.898  1.00  0.00     0.000 HD 
ENDBRANCH  24  28
ENDBRANCH  22  24
ENDBRANCH  19  22
ENDBRANCH  13  19
BRANCH  18  31
HETATM   31  C   UNK A   0      -8.541   8.067  71.626  1.00  0.00    -0.129 C  
HETATM   32  H   UNK A   0      -7.996   8.246  73.491  1.00  0.00     0.000 HD 
HETATM   33  O   UNK A   0      -8.147   8.764  72.709  1.00  0.00    -0.398 OA 
BRANCH  31  34
ATOM     34  N   SER A   1      -8.634   6.782  71.682  1.00  0.00    -0.125 NA 
ATOM     35  H   SER A   1      -7.961   6.225  72.209  1.00  0.00     0.000 HD 
BRANCH  34  36
ATOM     36  CA  SER A   1      -9.767   6.143  70.946  1.00  0.00    -0.177 C  
BRANCH  36  37
ATOM     37  CB  SER A   1      -9.176   5.280  69.828  1.00  0.00    -0.126 C  
ATOM     38  HG  SER A   1      -7.524   4.251  69.516  1.00  0.00     0.000 HD 
ATOM     39  OG  SER A   1      -7.892   4.786  70.210  1.00  0.00    -0.057 OA 
ENDBRANCH  36  37
BRANCH  36  40
ATOM     40  C   SER A   1     -10.580   5.271  71.921  1.00  0.00    -0.209 C  
ATOM     41  H   SER A   1     -11.064   5.299  73.832  1.00  0.00     0.000 HD 
ATOM     42  O   SER A   1     -10.562   5.836  73.231  1.00  0.00    -0.222 OA 
ENDBRANCH  36  40
ENDBRANCH  34  36
ENDBRANCH  31  34
ENDBRANCH  18  31
ENDBRANCH   8  10
ENDBRANCH   5   8
ENDBRANCH   1   5
TORSDOF 13
ENDMDL
MODEL       78
REMARK 921   NORMALIZED FREE ENERGY PREDICTED BY IDOCK:   -4.45 KCAL/MOL
REMARK 922        TOTAL FREE ENERGY PREDICTED BY IDOCK:   -8.77 KCAL/MOL
REMARK 923 INTER-LIGAND FREE ENERGY PREDICTED BY IDOCK:   -7.97 KCAL/MOL
REMARK 924 INTRA-LIGAND FREE ENERGY PREDICTED BY IDOCK:   -0.80 KCAL/MOL
REMARK 927      BINDING AFFINITY PREDICTED BY RF-SCORE:    0.00 PKD
ROOT
HETATM    1  C   UNK A   0     -10.931  11.170  65.932  1.00  0.00    -0.103 C  
HETATM    2  O   UNK A   0     -11.952  12.139  66.229  1.00  0.00    -0.605 OA 
HETATM    3  C   UNK A   0     -10.646  11.198  64.447  1.00  0.00    -0.411 C  
HETATM    4  H   UNK A   0     -12.132  12.122  67.162  1.00  0.00     0.000 HD 
ENDROOT
BRANCH   1   5
HETATM    5  C   UNK A   0      -9.693  11.583  66.709  1.00  0.00    -0.199 C  
HETATM    6  O   UNK A   0      -9.085  12.675  66.190  1.00  0.00    -0.416 OA 
HETATM    7  H   UNK A   0      -8.310  12.933  66.675  1.00  0.00     0.000 HD 
BRANCH   5   8
HETATM    8  N   UNK A   0      -9.297  10.984  67.783  1.00  0.00    -0.156 NA 
HETATM    9  H   UNK A   0      -8.792  11.501  68.502  1.00  0.00     0.000 HD 
BRANCH   8  10
HETATM   10  C   UNK A   0      -9.571   9.593  67.956  1.00  0.00    -0.143 A  
HETATM   11  C   UNK A   0      -8.891   8.598  67.214  1.00  0.00    -0.133 A  
HETATM   12  I   UNK A   0      -7.298   9.249  65.855  1.00  0.00    -0.098 I  
HETATM   13  C   UNK A   0      -9.121   7.228  67.463  1.00  0.00    -0.125 A  
HETATM   14  I   UNK A   0     -11.642  10.741  69.921  1.00  0.00    -0.465 I  
HETATM   15  C   UNK A   0      -9.831   6.870  68.646  1.00  0.00    -0.145 A  
HETATM   16  I   UNK A   0      -9.454   4.867  69.434  1.00  0.00    -0.271 I  
HETATM   17  C   UNK A   0     -10.438   9.187  69.016  1.00  0.00    -0.221 A  
HETATM   18  C   UNK A   0     -10.514   7.839  69.439  1.00  0.00    -0.221 A  
BRANCH  13  19
HETATM   19  C   UNK A   0      -8.750   6.155  66.486  1.00  0.00    -0.133 C  
HETATM   20  O   UNK A   0      -7.550   5.581  66.642  1.00  0.00    -0.086 OA 
HETATM   21  H   UNK A   0      -7.315   4.900  66.023  1.00  0.00     0.000 HD 
BRANCH  19  22
ATOM     22  N   SER A   1      -9.533   5.772  65.539  1.00  0.00    -0.367 NA 
ATOM     23  H   SER A   1     -10.391   6.281  65.327  1.00  0.00     0.000 HD 
BRANCH  22  24
ATOM     24  CA  SER A   1      -9.146   4.561  64.763  1.00  0.00    -0.152 C  
BRANCH  24  25
ATOM     25  C   SER A   1      -8.430   5.051  63.490  1.00  0.00    -0.127 C  
ATOM     26  H   SER A   1      -8.350   4.540  61.591  1.00  0.00     0.000 HD 
ATOM     27  O   SER A   1      -8.792   4.238  62.376  1.00  0.00    -0.092 OA 
ENDBRANCH  24  25
BRANCH  24  28
ATOM     28  CB  SER A   1     -10.362   3.714  64.334  1.00  0.00    -0.194 C  
ATOM     29  OG  SER A   1     -11.622   4.269  64.705  1.00  0.00    -0.963 OA 
ATOM     30  HG  SER A   1     -12.371   3.748  64.442  1.00  0.00     0.000 HD 
ENDBRANCH  24  28
ENDBRANCH  22  24
ENDBRANCH  19  22
ENDBRANCH  13  19
BRANCH  18  31
HETATM   31  C   UNK A   0     -11.226   7.431  70.705  1.00  0.00    -0.271 C  
HETATM   32  H   UNK A   0     -12.832   6.510  71.321  1.00  0.00     0.000 HD 
HETATM   33  O   UNK A   0     -12.384   6.767  70.524  1.00  0.00    -0.326 OA 
BRANCH  31  34
ATOM     34  N   SER A   1     -10.830   7.727  71.896  1.00  0.00    -0.227 NA 
ATOM     35  H   SER A   1     -11.196   8.541  72.390  1.00  0.00     0.000 HD 
BRANCH  34  36
ATOM     36  CA  SER A   1      -9.813   6.829  72.523  1.00  0.00    -0.164 C  
BRANCH  36  37
ATOM     37  CB  SER A   1      -8.684   7.706  73.072  1.00  0.00    -0.163 C  
ATOM     38  HG  SER A   1      -7.857   9.440  72.632  1.00  0.00     0.000 HD 
ATOM     39  OG  SER A   1      -8.557   8.896  72.292  1.00  0.00    -0.397 OA 
ENDBRANCH  36  37
BRANCH  36  40
ATOM     40  C   SER A   1     -10.473   6.031  73.663  1.00  0.00    -0.269 C  
ATOM     41  H   SER A   1     -11.920   4.706  73.857  1.00  0.00     0.000 HD 
ATOM     42  O   SER A   1     -11.513   5.199  73.154  1.00  0.00    -0.323 OA 
ENDBRANCH  36  40
ENDBRANCH  34  36
ENDBRANCH  31  34
ENDBRANCH  18  31
ENDBRANCH   8  10
ENDBRANCH   5   8
ENDBRANCH   1   5
TORSDOF 13
ENDMDL
MODEL       79
REMARK 921   NORMALIZED FREE ENERGY PREDICTED BY IDOCK:   -4.43 KCAL/MOL
REMARK 922        TOTAL FREE ENERGY PREDICTED BY IDOCK:   -8.73 KCAL/MOL
REMARK 923 INTER-LIGAND FREE ENERGY PREDICTED BY IDOCK:   -7.97 KCAL/MOL
REMARK 924 INTRA-LIGAND FREE ENERGY PREDICTED BY IDOCK:   -0.76 KCAL/MOL
REMARK 927      BINDING AFFINITY PREDICTED BY RF-SCORE:    0.00 PKD
ROOT
HETATM    1  C   UNK A   0     -11.571  14.364  67.206  1.00  0.00    -0.379 C  
HETATM    2  O   UNK A   0     -12.906  14.140  66.717  1.00  0.00    -0.428 OA 
HETATM    3  C   UNK A   0     -11.609  15.448  68.259  1.00  0.00    -0.361 C  
HETATM    4  H   UNK A   0     -12.881  13.460  66.054  1.00  0.00     0.000 HD 
ENDROOT
BRANCH   1   5
HETATM    5  C   UNK A   0     -11.103  13.056  67.820  1.00  0.00    -0.262 C  
HETATM    6  O   UNK A   0     -10.042  13.211  68.645  1.00  0.00    -0.328 OA 
HETATM    7  H   UNK A   0      -9.748  12.393  69.029  1.00  0.00     0.000 HD 
BRANCH   5   8
HETATM    8  N   UNK A   0     -11.692  11.924  67.615  1.00  0.00    -0.532 NA 
HETATM    9  H   UNK A   0     -12.688  11.897  67.398  1.00  0.00     0.000 HD 
BRANCH   8  10
HETATM   10  C   UNK A   0     -10.940  10.713  67.696  1.00  0.00    -0.310 A  
HETATM   11  C   UNK A   0     -10.255  10.181  66.578  1.00  0.00    -0.223 A  
HETATM   12  I   UNK A   0     -10.281  11.343  64.717  1.00  0.00    -0.398 I  
HETATM   13  C   UNK A   0      -9.451   9.028  66.704  1.00  0.00    -0.251 A  
HETATM   14  I   UNK A   0     -12.023  10.800  70.574  1.00  0.00    -0.470 I  
HETATM   15  C   UNK A   0      -9.124   8.577  68.016  1.00  0.00    -0.140 A  
HETATM   16  I   UNK A   0      -7.294   7.400  68.210  1.00  0.00    -0.105 I  
HETATM   17  C   UNK A   0     -10.743  10.107  68.974  1.00  0.00    -0.221 A  
HETATM   18  C   UNK A   0      -9.771   9.098  69.176  1.00  0.00    -0.163 A  
BRANCH  13  19
HETATM   19  C   UNK A   0      -9.028   8.204  65.528  1.00  0.00    -0.032 C  
HETATM   20  O   UNK A   0      -9.411   6.920  65.516  1.00  0.00    -0.365 OA 
HETATM   21  H   UNK A   0      -9.142   6.397  64.770  1.00  0.00     0.000 HD 
BRANCH  19  22
ATOM     22  N   SER A   1      -8.338   8.682  64.552  1.00  0.00    -0.224 NA 
ATOM     23  H   SER A   1      -8.624   9.537  64.074  1.00  0.00     0.000 HD 
BRANCH  22  24
ATOM     24  CA  SER A   1      -7.109   7.947  64.141  1.00  0.00    -0.075 C  
BRANCH  24  25
ATOM     25  C   SER A   1      -6.035   9.004  63.828  1.00  0.00    -0.076 C  
ATOM     26  H   SER A   1      -5.919  10.968  63.752  1.00  0.00     0.000 HD 
ATOM     27  O   SER A   1      -6.582  10.315  63.946  1.00  0.00    -0.130 OA 
ENDBRANCH  24  25
BRANCH  24  28
ATOM     28  CB  SER A   1      -7.323   7.089  62.877  1.00  0.00    -0.081 C  
ATOM     29  OG  SER A   1      -8.692   6.848  62.557  1.00  0.00    -0.352 OA 
ATOM     30  HG  SER A   1      -8.823   6.320  61.778  1.00  0.00     0.000 HD 
ENDBRANCH  24  28
ENDBRANCH  22  24
ENDBRANCH  19  22
ENDBRANCH  13  19
BRANCH  18  31
HETATM   31  C   UNK A   0      -9.376   8.625  70.554  1.00  0.00    -0.175 C  
HETATM   32  H   UNK A   0      -8.223   9.098  72.054  1.00  0.00     0.000 HD 
HETATM   33  O   UNK A   0      -8.472   9.396  71.187  1.00  0.00    -0.303 OA 
BRANCH  31  34
ATOM     34  N   SER A   1      -9.797   7.537  71.103  1.00  0.00    -0.174 NA 
ATOM     35  H   SER A   1      -9.296   7.107  71.880  1.00  0.00     0.000 HD 
BRANCH  34  36
ATOM     36  CA  SER A   1     -11.050   6.933  70.556  1.00  0.00    -0.288 C  
BRANCH  36  37
ATOM     37  CB  SER A   1     -10.681   5.602  69.894  1.00  0.00    -0.329 C  
ATOM     38  HG  SER A   1     -10.625   4.862  68.069  1.00  0.00     0.000 HD 
ATOM     39  OG  SER A   1     -10.853   5.688  68.479  1.00  0.00    -0.213 OA 
ENDBRANCH  36  37
BRANCH  36  40
ATOM     40  C   SER A   1     -12.047   6.700  71.706  1.00  0.00    -0.353 C  
ATOM     41  H   SER A   1     -11.971   6.403  73.654  1.00  0.00     0.000 HD 
ATOM     42  O   SER A   1     -11.356   6.547  72.945  1.00  0.00    -0.230 OA 
ENDBRANCH  36  40
ENDBRANCH  34  36
ENDBRANCH  31  34
ENDBRANCH  18  31
ENDBRANCH   8  10
ENDBRANCH   5   8
ENDBRANCH   1   5
TORSDOF 13
ENDMDL
MODEL       80
REMARK 921   NORMALIZED FREE ENERGY PREDICTED BY IDOCK:   -4.43 KCAL/MOL
REMARK 922        TOTAL FREE ENERGY PREDICTED BY IDOCK:   -8.72 KCAL/MOL
REMARK 923 INTER-LIGAND FREE ENERGY PREDICTED BY IDOCK:   -7.86 KCAL/MOL
REMARK 924 INTRA-LIGAND FREE ENERGY PREDICTED BY IDOCK:   -0.86 KCAL/MOL
REMARK 927      BINDING AFFINITY PREDICTED BY RF-SCORE:    0.00 PKD
ROOT
HETATM    1  C   UNK A   0      -7.234  16.548  66.797  1.00  0.00    -0.225 C  
HETATM    2  O   UNK A   0      -8.223  17.119  65.922  1.00  0.00    -0.526 OA 
HETATM    3  C   UNK A   0      -5.986  17.401  66.752  1.00  0.00    -0.221 C  
HETATM    4  H   UNK A   0      -9.006  16.583  65.950  1.00  0.00     0.000 HD 
ENDROOT
BRANCH   1   5
HETATM    5  C   UNK A   0      -7.825  16.560  68.196  1.00  0.00    -0.168 C  
HETATM    6  O   UNK A   0      -8.074  17.810  68.652  1.00  0.00    -0.290 OA 
HETATM    7  H   UNK A   0      -8.443  17.818  69.528  1.00  0.00     0.000 HD 
BRANCH   5   8
HETATM    8  N   UNK A   0      -8.109  15.486  68.856  1.00  0.00    -0.176 NA 
HETATM    9  H   UNK A   0      -8.159  15.508  69.875  1.00  0.00     0.000 HD 
BRANCH   8  10
HETATM   10  C   UNK A   0      -8.351  14.268  68.150  1.00  0.00    -0.162 A  
HETATM   11  C   UNK A   0      -7.338  13.299  67.961  1.00  0.00    -0.127 A  
HETATM   12  I   UNK A   0      -5.387  13.665  68.896  1.00  0.00    -0.086 I  
HETATM   13  C   UNK A   0      -7.624  12.068  67.333  1.00  0.00    -0.151 A  
HETATM   14  I   UNK A   0     -11.121  15.569  67.831  1.00  0.00    -0.252 I  
HETATM   15  C   UNK A   0      -8.991  11.711  67.145  1.00  0.00    -0.173 A  
HETATM   16  I   UNK A   0      -9.424   9.575  66.984  1.00  0.00    -0.240 I  
HETATM   17  C   UNK A   0      -9.688  13.950  67.763  1.00  0.00    -0.225 A  
HETATM   18  C   UNK A   0     -10.050  12.647  67.344  1.00  0.00    -0.218 A  
BRANCH  13  19
HETATM   19  C   UNK A   0      -6.559  11.185  66.761  1.00  0.00    -0.133 C  
HETATM   20  O   UNK A   0      -6.512  11.078  65.426  1.00  0.00    -0.368 OA 
HETATM   21  H   UNK A   0      -5.836  10.517  65.063  1.00  0.00     0.000 HD 
BRANCH  19  22
ATOM     22  N   SER A   1      -5.707  10.555  67.491  1.00  0.00    -0.044 NA 
ATOM     23  H   SER A   1      -4.716  10.798  67.471  1.00  0.00     0.000 HD 
BRANCH  22  24
ATOM     24  CA  SER A   1      -6.213   9.461  68.366  1.00  0.00    -0.052 C  
BRANCH  24  25
ATOM     25  C   SER A   1      -6.257  10.016  69.802  1.00  0.00    -0.054 C  
ATOM     26  H   SER A   1      -7.621  10.336  71.184  1.00  0.00     0.000 HD 
ATOM     27  O   SER A   1      -7.594   9.994  70.298  1.00  0.00    -0.170 OA 
ENDBRANCH  24  25
BRANCH  24  28
ATOM     28  CB  SER A   1      -5.296   8.220  68.358  1.00  0.00    -0.033 C  
ATOM     29  OG  SER A   1      -5.482   7.362  67.234  1.00  0.00    -0.027 OA 
ATOM     30  HG  SER A   1      -4.918   6.598  67.229  1.00  0.00     0.000 HD 
ENDBRANCH  24  28
ENDBRANCH  22  24
ENDBRANCH  19  22
ENDBRANCH  13  19
BRANCH  18  31
HETATM   31  C   UNK A   0     -11.489  12.227  67.171  1.00  0.00    -0.352 C  
HETATM   32  H   UNK A   0     -12.978  11.448  68.162  1.00  0.00     0.000 HD 
HETATM   33  O   UNK A   0     -12.072  11.712  68.270  1.00  0.00    -0.552 OA 
BRANCH  31  34
ATOM     34  N   SER A   1     -12.138  12.280  66.059  1.00  0.00    -0.630 NA 
ATOM     35  H   SER A   1     -13.100  11.946  65.990  1.00  0.00     0.000 HD 
BRANCH  34  36
ATOM     36  CA  SER A   1     -11.426  12.850  64.875  1.00  0.00    -0.315 C  
BRANCH  36  37
ATOM     37  CB  SER A   1     -11.311  11.749  63.817  1.00  0.00    -0.438 C  
ATOM     38  HG  SER A   1      -9.867  10.783  62.887  1.00  0.00     0.000 HD 
ATOM     39  OG  SER A   1      -9.939  11.466  63.544  1.00  0.00    -0.311 OA 
ENDBRANCH  36  37
BRANCH  36  40
ATOM     40  C   SER A   1     -12.232  14.041  64.321  1.00  0.00    -0.418 C  
ATOM     41  H   SER A   1     -13.154  14.512  62.643  1.00  0.00     0.000 HD 
ATOM     42  O   SER A   1     -12.657  13.779  62.985  1.00  0.00    -0.721 OA 
ENDBRANCH  36  40
ENDBRANCH  34  36
ENDBRANCH  31  34
ENDBRANCH  18  31
ENDBRANCH   8  10
ENDBRANCH   5   8
ENDBRANCH   1   5
TORSDOF 13
ENDMDL
MODEL       81
REMARK 921   NORMALIZED FREE ENERGY PREDICTED BY IDOCK:   -4.40 KCAL/MOL
REMARK 922        TOTAL FREE ENERGY PREDICTED BY IDOCK:   -8.68 KCAL/MOL
REMARK 923 INTER-LIGAND FREE ENERGY PREDICTED BY IDOCK:   -8.31 KCAL/MOL
REMARK 924 INTRA-LIGAND FREE ENERGY PREDICTED BY IDOCK:   -0.38 KCAL/MOL
REMARK 927      BINDING AFFINITY PREDICTED BY RF-SCORE:    0.00 PKD
ROOT
HETATM    1  C   UNK A   0      -9.755   3.672  67.652  1.00  0.00    -0.051 C  
HETATM    2  O   UNK A   0      -8.806   3.185  66.686  1.00  0.00    -0.127 OA 
HETATM    3  C   UNK A   0      -9.218   3.413  69.042  1.00  0.00    -0.226 C  
HETATM    4  H   UNK A   0      -9.144   3.347  65.813  1.00  0.00     0.000 HD 
ENDROOT
BRANCH   1   5
HETATM    5  C   UNK A   0      -9.895   5.166  67.417  1.00  0.00    -0.166 C  
HETATM    6  O   UNK A   0     -10.957   5.480  66.639  1.00  0.00    -0.506 OA 
HETATM    7  H   UNK A   0     -11.045   6.415  66.492  1.00  0.00     0.000 HD 
BRANCH   5   8
HETATM    8  N   UNK A   0      -9.112   6.045  67.950  1.00  0.00    -0.118 NA 
HETATM    9  H   UNK A   0      -8.291   5.748  68.477  1.00  0.00     0.000 HD 
BRANCH   8  10
HETATM   10  C   UNK A   0      -9.405   7.435  67.797  1.00  0.00    -0.136 A  
HETATM   11  C   UNK A   0     -10.216   8.135  68.721  1.00  0.00    -0.207 A  
HETATM   12  I   UNK A   0     -10.928   7.044  70.486  1.00  0.00    -0.356 I  
HETATM   13  C   UNK A   0     -10.422   9.525  68.593  1.00  0.00    -0.237 A  
HETATM   14  I   UNK A   0      -7.736   7.010  65.247  1.00  0.00    -0.131 I  
HETATM   15  C   UNK A   0      -9.586  10.248  67.693  1.00  0.00    -0.152 A  
HETATM   16  I   UNK A   0      -9.325  12.378  68.108  1.00  0.00    -0.131 I  
HETATM   17  C   UNK A   0      -8.734   8.172  66.775  1.00  0.00    -0.135 A  
HETATM   18  C   UNK A   0      -8.735   9.588  66.757  1.00  0.00    -0.138 A  
BRANCH  13  19
HETATM   19  C   UNK A   0     -11.546  10.243  69.274  1.00  0.00    -0.119 C  
HETATM   20  O   UNK A   0     -12.368  10.960  68.496  1.00  0.00    -0.807 OA 
HETATM   21  H   UNK A   0     -13.081  11.415  68.929  1.00  0.00     0.000 HD 
BRANCH  19  22
ATOM     22  N   SER A   1     -11.745  10.182  70.544  1.00  0.00    -0.299 NA 
ATOM     23  H   SER A   1     -10.979   9.988  71.189  1.00  0.00     0.000 HD 
BRANCH  22  24
ATOM     24  CA  SER A   1     -13.132  10.405  71.042  1.00  0.00    -0.362 C  
BRANCH  24  25
ATOM     25  C   SER A   1     -13.082  11.619  71.989  1.00  0.00    -0.328 C  
ATOM     26  H   SER A   1     -13.340  13.565  71.855  1.00  0.00     0.000 HD 
ATOM     27  O   SER A   1     -13.371  12.816  71.271  1.00  0.00    -0.150 OA 
ENDBRANCH  24  25
BRANCH  24  28
ATOM     28  CB  SER A   1     -13.680   9.200  71.834  1.00  0.00    -0.424 C  
ATOM     29  OG  SER A   1     -13.579   9.335  73.251  1.00  0.00    -0.829 OA 
ATOM     30  HG  SER A   1     -13.917   8.593  73.738  1.00  0.00     0.000 HD 
ENDBRANCH  24  28
ENDBRANCH  22  24
ENDBRANCH  19  22
ENDBRANCH  13  19
BRANCH  18  31
HETATM   31  C   UNK A   0      -7.836  10.382  65.842  1.00  0.00    -0.148 C  
HETATM   32  H   UNK A   0      -6.008  11.049  65.705  1.00  0.00     0.000 HD 
HETATM   33  O   UNK A   0      -6.574  10.549  66.281  1.00  0.00    -0.101 OA 
BRANCH  31  34
ATOM     34  N   SER A   1      -8.216  10.935  64.741  1.00  0.00    -0.373 NA 
ATOM     35  H   SER A   1      -7.641  11.635  64.273  1.00  0.00     0.000 HD 
BRANCH  34  36
ATOM     36  CA  SER A   1      -9.533  10.508  64.178  1.00  0.00    -0.293 C  
BRANCH  36  37
ATOM     37  CB  SER A   1     -10.546  11.624  64.447  1.00  0.00    -0.323 C  
ATOM     38  HG  SER A   1     -11.566  12.936  63.388  1.00  0.00     0.000 HD 
ATOM     39  OG  SER A   1     -10.938  12.243  63.222  1.00  0.00    -0.432 OA 
ENDBRANCH  36  37
BRANCH  36  40
ATOM     40  C   SER A   1      -9.387  10.272  62.663  1.00  0.00    -0.309 C  
ATOM     41  H   SER A   1      -8.459   8.999  61.477  1.00  0.00     0.000 HD 
ATOM     42  O   SER A   1      -8.549   9.145  62.411  1.00  0.00    -0.195 OA 
ENDBRANCH  36  40
ENDBRANCH  34  36
ENDBRANCH  31  34
ENDBRANCH  18  31
ENDBRANCH   8  10
ENDBRANCH   5   8
ENDBRANCH   1   5
TORSDOF 13
ENDMDL
MODEL       82
REMARK 921   NORMALIZED FREE ENERGY PREDICTED BY IDOCK:   -4.39 KCAL/MOL
REMARK 922        TOTAL FREE ENERGY PREDICTED BY IDOCK:   -8.67 KCAL/MOL
REMARK 923 INTER-LIGAND FREE ENERGY PREDICTED BY IDOCK:   -7.42 KCAL/MOL
REMARK 924 INTRA-LIGAND FREE ENERGY PREDICTED BY IDOCK:   -1.25 KCAL/MOL
REMARK 927      BINDING AFFINITY PREDICTED BY RF-SCORE:    0.00 PKD
ROOT
HETATM    1  C   UNK A   0     -11.418  14.432  70.248  1.00  0.00    -0.196 C  
HETATM    2  O   UNK A   0     -10.917  15.230  71.335  1.00  0.00    -0.503 OA 
HETATM    3  C   UNK A   0     -12.423  13.441  70.788  1.00  0.00    -0.418 C  
HETATM    4  H   UNK A   0     -10.285  15.853  70.995  1.00  0.00     0.000 HD 
ENDROOT
BRANCH   1   5
HETATM    5  C   UNK A   0     -12.095  15.386  69.278  1.00  0.00    -0.255 C  
HETATM    6  O   UNK A   0     -13.114  16.075  69.841  1.00  0.00    -0.560 OA 
HETATM    7  H   UNK A   0     -13.538  16.671  69.235  1.00  0.00     0.000 HD 
BRANCH   5   8
HETATM    8  N   UNK A   0     -11.701  15.557  68.059  1.00  0.00    -0.358 NA 
HETATM    9  H   UNK A   0     -12.358  15.875  67.347  1.00  0.00     0.000 HD 
BRANCH   8  10
HETATM   10  C   UNK A   0     -10.339  15.296  67.716  1.00  0.00    -0.244 A  
HETATM   11  C   UNK A   0      -9.324  16.267  67.889  1.00  0.00    -0.209 A  
HETATM   12  I   UNK A   0      -9.882  18.171  68.823  1.00  0.00    -0.194 I  
HETATM   13  C   UNK A   0      -7.974  15.956  67.621  1.00  0.00    -0.163 A  
HETATM   14  I   UNK A   0     -11.580  12.623  66.831  1.00  0.00    -0.372 I  
HETATM   15  C   UNK A   0      -7.622  14.586  67.441  1.00  0.00    -0.184 A  
HETATM   16  I   UNK A   0      -5.546  14.054  67.868  1.00  0.00     0.079 I  
HETATM   17  C   UNK A   0      -9.965  13.971  67.338  1.00  0.00    -0.243 A  
HETATM   18  C   UNK A   0      -8.609  13.568  67.284  1.00  0.00    -0.218 A  
BRANCH  13  19
HETATM   19  C   UNK A   0      -6.929  17.007  67.408  1.00  0.00    -0.155 C  
HETATM   20  O   UNK A   0      -6.240  17.405  68.486  1.00  0.00    -0.161 OA 
HETATM   21  H   UNK A   0      -5.577  18.072  68.350  1.00  0.00     0.000 HD 
BRANCH  19  22
ATOM     22  N   SER A   1      -6.673  17.513  66.252  1.00  0.00    -0.256 NA 
ATOM     23  H   SER A   1      -6.826  16.979  65.397  1.00  0.00     0.000 HD 
BRANCH  22  24
ATOM     24  CA  SER A   1      -6.145  18.906  66.204  1.00  0.00    -0.178 C  
BRANCH  24  25
ATOM     25  C   SER A   1      -7.362  19.849  66.184  1.00  0.00    -0.301 C  
ATOM     26  H   SER A   1      -9.204  19.815  65.491  1.00  0.00     0.000 HD 
ATOM     27  O   SER A   1      -8.453  19.233  65.504  1.00  0.00    -0.240 OA 
ENDBRANCH  24  25
BRANCH  24  28
ATOM     28  CB  SER A   1      -5.304  19.180  64.940  1.00  0.00    -0.191 C  
ATOM     29  OG  SER A   1      -6.041  19.119  63.721  1.00  0.00    -0.411 OA 
ATOM     30  HG  SER A   1      -5.522  19.288  62.943  1.00  0.00     0.000 HD 
ENDBRANCH  24  28
ENDBRANCH  22  24
ENDBRANCH  19  22
ENDBRANCH  13  19
BRANCH  18  31
HETATM   31  C   UNK A   0      -8.203  12.123  67.131  1.00  0.00    -0.182 C  
HETATM   32  H   UNK A   0      -7.931  10.499  68.177  1.00  0.00     0.000 HD 
HETATM   33  O   UNK A   0      -8.186  11.409  68.273  1.00  0.00    -0.134 OA 
BRANCH  31  34
ATOM     34  N   SER A   1      -7.832  11.579  66.023  1.00  0.00    -0.370 NA 
ATOM     35  H   SER A   1      -7.374  12.124  65.292  1.00  0.00     0.000 HD 
BRANCH  34  36
ATOM     36  CA  SER A   1      -8.099  10.119  65.851  1.00  0.00    -0.136 C  
BRANCH  36  37
ATOM     37  CB  SER A   1      -9.349   9.967  64.979  1.00  0.00    -0.264 C  
ATOM     38  HG  SER A   1     -10.158  10.893  63.440  1.00  0.00     0.000 HD 
ATOM     39  OG  SER A   1      -9.383  10.987  63.981  1.00  0.00    -0.215 OA 
ENDBRANCH  36  37
BRANCH  36  40
ATOM     40  C   SER A   1      -6.887   9.456  65.170  1.00  0.00    -0.084 C  
ATOM     41  H   SER A   1      -5.016   9.926  64.765  1.00  0.00     0.000 HD 
ATOM     42  O   SER A   1      -5.763  10.335  65.185  1.00  0.00    -0.098 OA 
ENDBRANCH  36  40
ENDBRANCH  34  36
ENDBRANCH  31  34
ENDBRANCH  18  31
ENDBRANCH   8  10
ENDBRANCH   5   8
ENDBRANCH   1   5
TORSDOF 13
ENDMDL
MODEL       83
REMARK 921   NORMALIZED FREE ENERGY PREDICTED BY IDOCK:   -4.39 KCAL/MOL
REMARK 922        TOTAL FREE ENERGY PREDICTED BY IDOCK:   -8.65 KCAL/MOL
REMARK 923 INTER-LIGAND FREE ENERGY PREDICTED BY IDOCK:   -7.53 KCAL/MOL
REMARK 924 INTRA-LIGAND FREE ENERGY PREDICTED BY IDOCK:   -1.12 KCAL/MOL
REMARK 927      BINDING AFFINITY PREDICTED BY RF-SCORE:    0.00 PKD
ROOT
HETATM    1  C   UNK A   0      -6.986   8.646  65.799  1.00  0.00    -0.075 C  
HETATM    2  O   UNK A   0      -6.039   7.565  65.736  1.00  0.00    -0.037 OA 
HETATM    3  C   UNK A   0      -6.362   9.883  65.193  1.00  0.00    -0.102 C  
HETATM    4  H   UNK A   0      -6.432   6.788  66.117  1.00  0.00     0.000 HD 
ENDROOT
BRANCH   1   5
HETATM    5  C   UNK A   0      -8.196   8.220  64.985  1.00  0.00    -0.158 C  
HETATM    6  O   UNK A   0      -7.911   8.035  63.675  1.00  0.00    -0.133 OA 
HETATM    7  H   UNK A   0      -8.667   7.769  63.165  1.00  0.00     0.000 HD 
BRANCH   5   8
HETATM    8  N   UNK A   0      -9.360   8.005  65.502  1.00  0.00    -0.397 NA 
HETATM    9  H   UNK A   0     -10.039   7.421  65.014  1.00  0.00     0.000 HD 
BRANCH   8  10
HETATM   10  C   UNK A   0      -9.690   8.591  66.763  1.00  0.00    -0.236 A  
HETATM   11  C   UNK A   0     -10.066   9.949  66.881  1.00  0.00    -0.225 A  
HETATM   12  I   UNK A   0     -10.247  11.123  65.036  1.00  0.00    -0.370 I  
HETATM   13  C   UNK A   0     -10.467  10.483  68.124  1.00  0.00    -0.217 A  
HETATM   14  I   UNK A   0      -8.954   5.762  67.724  1.00  0.00    -0.106 I  
HETATM   15  C   UNK A   0     -10.750   9.574  69.186  1.00  0.00    -0.210 A  
HETATM   16  I   UNK A   0     -12.118  10.285  70.734  1.00  0.00    -0.487 I  
HETATM   17  C   UNK A   0      -9.797   7.746  67.909  1.00  0.00    -0.160 A  
HETATM   18  C   UNK A   0     -10.409   8.190  69.106  1.00  0.00    -0.228 A  
BRANCH  13  19
HETATM   19  C   UNK A   0     -10.499  11.954  68.402  1.00  0.00    -0.217 C  
HETATM   20  O   UNK A   0      -9.369  12.509  68.862  1.00  0.00    -0.395 OA 
HETATM   21  H   UNK A   0      -9.389  13.442  69.037  1.00  0.00     0.000 HD 
BRANCH  19  22
ATOM     22  N   SER A   1     -11.543  12.680  68.206  1.00  0.00    -0.311 NA 
ATOM     23  H   SER A   1     -12.473  12.344  68.457  1.00  0.00     0.000 HD 
BRANCH  22  24
ATOM     24  CA  SER A   1     -11.351  14.026  67.599  1.00  0.00    -0.312 C  
BRANCH  24  25
ATOM     25  C   SER A   1     -11.674  15.063  68.691  1.00  0.00    -0.337 C  
ATOM     26  H   SER A   1     -12.585  15.087  70.435  1.00  0.00     0.000 HD 
ATOM     27  O   SER A   1     -12.385  14.447  69.762  1.00  0.00    -0.323 OA 
ENDBRANCH  24  25
BRANCH  24  28
ATOM     28  CB  SER A   1     -12.291  14.280  66.402  1.00  0.00    -0.350 C  
ATOM     29  OG  SER A   1     -11.641  14.810  65.248  1.00  0.00    -0.349 OA 
ATOM     30  HG  SER A   1     -12.220  14.966  64.512  1.00  0.00     0.000 HD 
ENDBRANCH  24  28
ENDBRANCH  22  24
ENDBRANCH  19  22
ENDBRANCH  13  19
BRANCH  18  31
HETATM   31  C   UNK A   0     -10.754   7.248  70.232  1.00  0.00    -0.236 C  
HETATM   32  H   UNK A   0     -12.129   5.983  70.793  1.00  0.00     0.000 HD 
HETATM   33  O   UNK A   0     -11.912   6.576  70.084  1.00  0.00    -0.383 OA 
BRANCH  31  34
ATOM     34  N   SER A   1     -10.057   7.106  71.307  1.00  0.00    -0.190 NA 
ATOM     35  H   SER A   1      -9.465   7.859  71.659  1.00  0.00     0.000 HD 
BRANCH  34  36
ATOM     36  CA  SER A   1     -10.152   5.795  72.019  1.00  0.00    -0.185 C  
BRANCH  36  37
ATOM     37  CB  SER A   1      -8.750   5.182  72.067  1.00  0.00    -0.130 C  
ATOM     38  HG  SER A   1      -7.774   3.731  71.159  1.00  0.00     0.000 HD 
ATOM     39  OG  SER A   1      -8.644   4.112  71.128  1.00  0.00    -0.082 OA 
ENDBRANCH  36  37
BRANCH  36  40
ATOM     40  C   SER A   1     -10.684   6.027  73.445  1.00  0.00    -0.262 C  
ATOM     41  H   SER A   1     -11.081   7.566  74.612  1.00  0.00     0.000 HD 
ATOM     42  O   SER A   1     -10.753   7.423  73.733  1.00  0.00    -0.331 OA 
ENDBRANCH  36  40
ENDBRANCH  34  36
ENDBRANCH  31  34
ENDBRANCH  18  31
ENDBRANCH   8  10
ENDBRANCH   5   8
ENDBRANCH   1   5
TORSDOF 13
ENDMDL
MODEL       84
REMARK 921   NORMALIZED FREE ENERGY PREDICTED BY IDOCK:   -4.36 KCAL/MOL
REMARK 922        TOTAL FREE ENERGY PREDICTED BY IDOCK:   -8.61 KCAL/MOL
REMARK 923 INTER-LIGAND FREE ENERGY PREDICTED BY IDOCK:   -7.91 KCAL/MOL
REMARK 924 INTRA-LIGAND FREE ENERGY PREDICTED BY IDOCK:   -0.69 KCAL/MOL
REMARK 927      BINDING AFFINITY PREDICTED BY RF-SCORE:    0.00 PKD
ROOT
HETATM    1  C   UNK A   0      -9.980  11.476  63.367  1.00  0.00    -0.417 C  
HETATM    2  O   UNK A   0      -9.900  12.909  63.460  1.00  0.00    -0.672 OA 
HETATM    3  C   UNK A   0      -8.926  10.987  62.398  1.00  0.00    -0.345 C  
HETATM    4  H   UNK A   0     -10.562  13.216  64.068  1.00  0.00     0.000 HD 
ENDROOT
BRANCH   1   5
HETATM    5  C   UNK A   0      -9.704  10.929  64.757  1.00  0.00    -0.271 C  
HETATM    6  O   UNK A   0     -10.015   9.618  64.880  1.00  0.00    -0.418 OA 
HETATM    7  H   UNK A   0      -9.843   9.276  65.749  1.00  0.00     0.000 HD 
BRANCH   5   8
HETATM    8  N   UNK A   0      -9.176  11.632  65.704  1.00  0.00    -0.359 NA 
HETATM    9  H   UNK A   0      -8.564  12.417  65.481  1.00  0.00     0.000 HD 
BRANCH   8  10
HETATM   10  C   UNK A   0      -9.455  11.302  67.066  1.00  0.00    -0.171 A  
HETATM   11  C   UNK A   0     -10.599  11.796  67.736  1.00  0.00    -0.200 A  
HETATM   12  I   UNK A   0     -12.018  13.003  66.580  1.00  0.00    -0.228 I  
HETATM   13  C   UNK A   0     -10.895  11.389  69.055  1.00  0.00    -0.265 A  
HETATM   14  I   UNK A   0      -6.776   9.822  66.750  1.00  0.00    -0.083 I  
HETATM   15  C   UNK A   0     -10.185  10.275  69.590  1.00  0.00    -0.235 A  
HETATM   16  I   UNK A   0     -11.180   9.166  71.189  1.00  0.00    -0.485 I  
HETATM   17  C   UNK A   0      -8.644  10.324  67.719  1.00  0.00    -0.118 A  
HETATM   18  C   UNK A   0      -9.038   9.728  68.941  1.00  0.00    -0.148 A  
BRANCH  13  19
HETATM   19  C   UNK A   0     -11.836  12.143  69.942  1.00  0.00    -0.319 C  
HETATM   20  O   UNK A   0     -12.993  11.542  70.251  1.00  0.00     0.040 OA 
HETATM   21  H   UNK A   0     -13.590  12.021  70.814  1.00  0.00     0.000 HD 
BRANCH  19  22
ATOM     22  N   SER A   1     -11.567  13.310  70.414  1.00  0.00    -0.527 NA 
ATOM     23  H   SER A   1     -10.608  13.586  70.622  1.00  0.00     0.000 HD 
BRANCH  22  24
ATOM     24  CA  SER A   1     -12.703  14.246  70.645  1.00  0.00    -0.343 C  
BRANCH  24  25
ATOM     25  C   SER A   1     -12.197  15.662  70.313  1.00  0.00    -0.386 C  
ATOM     26  H   SER A   1     -10.904  16.479  69.074  1.00  0.00     0.000 HD 
ATOM     27  O   SER A   1     -11.217  15.606  69.279  1.00  0.00    -0.274 OA 
ENDBRANCH  24  25
BRANCH  24  28
ATOM     28  CB  SER A   1     -13.190  14.241  72.109  1.00  0.00    -0.402 C  
ATOM     29  OG  SER A   1     -14.119  15.277  72.422  1.00  0.00    -0.504 OA 
ATOM     30  HG  SER A   1     -14.419  15.273  73.323  1.00  0.00     0.000 HD 
ENDBRANCH  24  28
ENDBRANCH  22  24
ENDBRANCH  19  22
ENDBRANCH  13  19
BRANCH  18  31
HETATM   31  C   UNK A   0      -8.330   8.526  69.515  1.00  0.00    -0.118 C  
HETATM   32  H   UNK A   0      -6.766   8.043  70.578  1.00  0.00     0.000 HD 
HETATM   33  O   UNK A   0      -7.212   8.800  70.216  1.00  0.00    -0.042 OA 
BRANCH  31  34
ATOM     34  N   SER A   1      -8.692   7.304  69.327  1.00  0.00    -0.137 NA 
ATOM     35  H   SER A   1      -9.402   6.864  69.912  1.00  0.00     0.000 HD 
BRANCH  34  36
ATOM     36  CA  SER A   1      -8.029   6.556  68.215  1.00  0.00    -0.110 C  
BRANCH  36  37
ATOM     37  CB  SER A   1      -7.197   5.430  68.835  1.00  0.00    -0.066 C  
ATOM     38  HG  SER A   1      -5.311   5.123  69.316  1.00  0.00     0.000 HD 
ATOM     39  OG  SER A   1      -5.827   5.822  68.932  1.00  0.00    -0.014 OA 
ENDBRANCH  36  37
BRANCH  36  40
ATOM     40  C   SER A   1      -9.106   5.973  67.281  1.00  0.00    -0.111 C  
ATOM     41  H   SER A   1     -10.504   6.661  66.072  1.00  0.00     0.000 HD 
ATOM     42  O   SER A   1      -9.840   7.021  66.649  1.00  0.00    -0.185 OA 
ENDBRANCH  36  40
ENDBRANCH  34  36
ENDBRANCH  31  34
ENDBRANCH  18  31
ENDBRANCH   8  10
ENDBRANCH   5   8
ENDBRANCH   1   5
TORSDOF 13
ENDMDL
MODEL       85
REMARK 921   NORMALIZED FREE ENERGY PREDICTED BY IDOCK:   -4.33 KCAL/MOL
REMARK 922        TOTAL FREE ENERGY PREDICTED BY IDOCK:   -8.54 KCAL/MOL
REMARK 923 INTER-LIGAND FREE ENERGY PREDICTED BY IDOCK:   -7.07 KCAL/MOL
REMARK 924 INTRA-LIGAND FREE ENERGY PREDICTED BY IDOCK:   -1.47 KCAL/MOL
REMARK 927      BINDING AFFINITY PREDICTED BY RF-SCORE:    0.00 PKD
ROOT
HETATM    1  C   UNK A   0     -10.399   4.241  65.606  1.00  0.00    -0.172 C  
HETATM    2  O   UNK A   0     -11.697   4.425  65.013  1.00  0.00    -0.984 OA 
HETATM    3  C   UNK A   0      -9.399   3.933  64.514  1.00  0.00    -0.155 C  
HETATM    4  H   UNK A   0     -12.325   4.618  65.699  1.00  0.00     0.000 HD 
ENDROOT
BRANCH   1   5
HETATM    5  C   UNK A   0     -10.038   5.548  66.291  1.00  0.00    -0.145 C  
HETATM    6  O   UNK A   0     -11.110   6.346  66.501  1.00  0.00    -0.658 OA 
HETATM    7  H   UNK A   0     -10.885   7.164  66.929  1.00  0.00     0.000 HD 
BRANCH   5   8
HETATM    8  N   UNK A   0      -8.841   5.839  66.678  1.00  0.00    -0.118 NA 
HETATM    9  H   UNK A   0      -8.066   5.212  66.466  1.00  0.00     0.000 HD 
BRANCH   8  10
HETATM   10  C   UNK A   0      -8.609   7.046  67.407  1.00  0.00    -0.121 A  
HETATM   11  C   UNK A   0      -8.715   7.101  68.817  1.00  0.00    -0.124 A  
HETATM   12  I   UNK A   0      -9.133   5.230  69.883  1.00  0.00    -0.204 I  
HETATM   13  C   UNK A   0      -8.400   8.284  69.519  1.00  0.00    -0.121 A  
HETATM   14  I   UNK A   0      -8.227   8.127  64.551  1.00  0.00     0.057 I  
HETATM   15  C   UNK A   0      -7.718   9.321  68.818  1.00  0.00    -0.083 A  
HETATM   16  I   UNK A   0      -6.533  10.697  70.033  1.00  0.00    -0.081 I  
HETATM   17  C   UNK A   0      -8.105   8.186  66.711  1.00  0.00    -0.103 A  
HETATM   18  C   UNK A   0      -7.568   9.300  67.399  1.00  0.00    -0.088 A  
BRANCH  13  19
HETATM   19  C   UNK A   0      -8.850   8.534  70.925  1.00  0.00    -0.171 C  
HETATM   20  O   UNK A   0      -8.136   7.958  71.902  1.00  0.00    -0.100 OA 
HETATM   21  H   UNK A   0      -8.422   8.117  72.794  1.00  0.00     0.000 HD 
BRANCH  19  22
ATOM     22  N   SER A   1      -9.863   9.273  71.214  1.00  0.00    -0.281 NA 
ATOM     23  H   SER A   1      -9.773  10.064  71.853  1.00  0.00     0.000 HD 
BRANCH  22  24
ATOM     24  CA  SER A   1     -11.171   8.938  70.585  1.00  0.00    -0.266 C  
BRANCH  24  25
ATOM     25  C   SER A   1     -12.065  10.187  70.710  1.00  0.00    -0.343 C  
ATOM     26  H   SER A   1     -13.904  10.595  71.279  1.00  0.00     0.000 HD 
ATOM     27  O   SER A   1     -13.353   9.825  71.203  1.00  0.00    -0.373 OA 
ENDBRANCH  24  25
BRANCH  24  28
ATOM     28  CB  SER A   1     -11.886   7.764  71.286  1.00  0.00    -0.295 C  
ATOM     29  OG  SER A   1     -12.938   7.179  70.523  1.00  0.00    -0.581 OA 
ATOM     30  HG  SER A   1     -13.378   6.456  70.955  1.00  0.00     0.000 HD 
ENDBRANCH  24  28
ENDBRANCH  22  24
ENDBRANCH  19  22
ENDBRANCH  13  19
BRANCH  18  31
HETATM   31  C   UNK A   0      -6.809  10.396  66.691  1.00  0.00    -0.099 C  
HETATM   32  H   UNK A   0      -5.051  10.795  65.946  1.00  0.00     0.000 HD 
HETATM   33  O   UNK A   0      -5.529  10.106  66.392  1.00  0.00    -0.043 OA 
BRANCH  31  34
ATOM     34  N   SER A   1      -7.287  11.563  66.425  1.00  0.00    -0.354 NA 
ATOM     35  H   SER A   1      -6.713  12.284  65.989  1.00  0.00     0.000 HD 
BRANCH  34  36
ATOM     36  CA  SER A   1      -8.716  11.817  66.782  1.00  0.00    -0.192 C  
BRANCH  36  37
ATOM     37  CB  SER A   1      -8.831  13.263  67.274  1.00  0.00    -0.216 C  
ATOM     38  HG  SER A   1     -10.042  14.306  68.425  1.00  0.00     0.000 HD 
ATOM     39  OG  SER A   1      -9.971  13.409  68.120  1.00  0.00    -0.225 OA 
ENDBRANCH  36  37
BRANCH  36  40
ATOM     40  C   SER A   1      -9.598  11.604  65.537  1.00  0.00    -0.218 C  
ATOM     41  H   SER A   1     -11.323  10.749  65.110  1.00  0.00     0.000 HD 
ATOM     42  O   SER A   1     -10.779  10.880  65.878  1.00  0.00    -0.215 OA 
ENDBRANCH  36  40
ENDBRANCH  34  36
ENDBRANCH  31  34
ENDBRANCH  18  31
ENDBRANCH   8  10
ENDBRANCH   5   8
ENDBRANCH   1   5
TORSDOF 13
ENDMDL
MODEL       86
REMARK 921   NORMALIZED FREE ENERGY PREDICTED BY IDOCK:   -4.32 KCAL/MOL
REMARK 922        TOTAL FREE ENERGY PREDICTED BY IDOCK:   -8.54 KCAL/MOL
REMARK 923 INTER-LIGAND FREE ENERGY PREDICTED BY IDOCK:   -7.91 KCAL/MOL
REMARK 924 INTRA-LIGAND FREE ENERGY PREDICTED BY IDOCK:   -0.63 KCAL/MOL
REMARK 927      BINDING AFFINITY PREDICTED BY RF-SCORE:    0.00 PKD
ROOT
HETATM    1  C   UNK A   0      -5.403  13.229  70.828  1.00  0.00    -0.155 C  
HETATM    2  O   UNK A   0      -5.861  13.695  72.109  1.00  0.00    -0.502 OA 
HETATM    3  C   UNK A   0      -5.213  11.730  70.890  1.00  0.00    -0.137 C  
HETATM    4  H   UNK A   0      -5.979  14.637  72.070  1.00  0.00     0.000 HD 
ENDROOT
BRANCH   1   5
HETATM    5  C   UNK A   0      -6.485  13.576  69.820  1.00  0.00    -0.049 C  
HETATM    6  O   UNK A   0      -7.434  14.397  70.327  1.00  0.00    -0.293 OA 
HETATM    7  H   UNK A   0      -8.111  14.614  69.697  1.00  0.00     0.000 HD 
BRANCH   5   8
HETATM    8  N   UNK A   0      -6.467  13.173  68.592  1.00  0.00    -0.080 NA 
HETATM    9  H   UNK A   0      -5.609  12.802  68.186  1.00  0.00     0.000 HD 
BRANCH   8  10
HETATM   10  C   UNK A   0      -7.659  13.251  67.808  1.00  0.00    -0.161 A  
HETATM   11  C   UNK A   0      -8.538  12.151  67.671  1.00  0.00    -0.166 A  
HETATM   12  I   UNK A   0      -8.081  10.331  68.807  1.00  0.00    -0.147 I  
HETATM   13  C   UNK A   0      -9.750  12.279  66.959  1.00  0.00    -0.207 A  
HETATM   14  I   UNK A   0      -6.552  16.074  67.286  1.00  0.00     0.013 I  
HETATM   15  C   UNK A   0     -10.197  13.590  66.623  1.00  0.00    -0.275 A  
HETATM   16  I   UNK A   0     -12.346  13.835  66.318  1.00  0.00    -0.252 I  
HETATM   17  C   UNK A   0      -8.054  14.517  67.278  1.00  0.00    -0.196 A  
HETATM   18  C   UNK A   0      -9.355  14.734  66.763  1.00  0.00    -0.268 A  
BRANCH  13  19
HETATM   19  C   UNK A   0     -10.518  11.099  66.451  1.00  0.00    -0.260 C  
HETATM   20  O   UNK A   0     -11.496  10.627  67.237  1.00  0.00    -0.412 OA 
HETATM   21  H   UNK A   0     -11.984   9.878  66.914  1.00  0.00     0.000 HD 
BRANCH  19  22
ATOM     22  N   SER A   1     -10.283  10.550  65.311  1.00  0.00    -0.299 NA 
ATOM     23  H   SER A   1     -10.797   9.723  65.009  1.00  0.00     0.000 HD 
BRANCH  22  24
ATOM     24  CA  SER A   1      -9.235  11.161  64.447  1.00  0.00    -0.107 C  
BRANCH  24  25
ATOM     25  C   SER A   1      -9.897  11.484  63.095  1.00  0.00    -0.390 C  
ATOM     26  H   SER A   1     -11.696  11.943  62.440  1.00  0.00     0.000 HD 
ATOM     27  O   SER A   1     -11.287  11.744  63.275  1.00  0.00    -0.359 OA 
ENDBRANCH  24  25
BRANCH  24  28
ATOM     28  CB  SER A   1      -8.048  10.210  64.186  1.00  0.00    -0.158 C  
ATOM     29  OG  SER A   1      -6.863  10.542  64.907  1.00  0.00    -0.291 OA 
ATOM     30  HG  SER A   1      -6.132   9.956  64.747  1.00  0.00     0.000 HD 
ENDBRANCH  24  28
ENDBRANCH  22  24
ENDBRANCH  19  22
ENDBRANCH  13  19
BRANCH  18  31
HETATM   31  C   UNK A   0      -9.870  16.112  66.432  1.00  0.00    -0.284 C  
HETATM   32  H   UNK A   0     -10.278  17.261  64.908  1.00  0.00     0.000 HD 
HETATM   33  O   UNK A   0      -9.954  16.393  65.117  1.00  0.00    -0.479 OA 
BRANCH  31  34
ATOM     34  N   SER A   1     -10.163  17.014  67.305  1.00  0.00    -0.303 NA 
ATOM     35  H   SER A   1     -10.716  16.790  68.133  1.00  0.00     0.000 HD 
BRANCH  34  36
ATOM     36  CA  SER A   1      -9.661  18.400  67.056  1.00  0.00    -0.310 C  
BRANCH  36  37
ATOM     37  CB  SER A   1     -10.868  19.290  66.745  1.00  0.00    -0.355 C  
ATOM     38  HG  SER A   1     -11.497  20.398  65.243  1.00  0.00     0.000 HD 
ATOM     39  OG  SER A   1     -10.749  19.845  65.436  1.00  0.00    -0.421 OA 
ENDBRANCH  36  37
BRANCH  36  40
ATOM     40  C   SER A   1      -8.930  18.909  68.312  1.00  0.00    -0.328 C  
ATOM     41  H   SER A   1      -7.292  19.927  68.723  1.00  0.00     0.000 HD 
ATOM     42  O   SER A   1      -7.743  19.613  67.949  1.00  0.00    -0.281 OA 
ENDBRANCH  36  40
ENDBRANCH  34  36
ENDBRANCH  31  34
ENDBRANCH  18  31
ENDBRANCH   8  10
ENDBRANCH   5   8
ENDBRANCH   1   5
TORSDOF 13
ENDMDL
MODEL       87
REMARK 921   NORMALIZED FREE ENERGY PREDICTED BY IDOCK:   -4.32 KCAL/MOL
REMARK 922        TOTAL FREE ENERGY PREDICTED BY IDOCK:   -8.53 KCAL/MOL
REMARK 923 INTER-LIGAND FREE ENERGY PREDICTED BY IDOCK:   -7.63 KCAL/MOL
REMARK 924 INTRA-LIGAND FREE ENERGY PREDICTED BY IDOCK:   -0.90 KCAL/MOL
REMARK 927      BINDING AFFINITY PREDICTED BY RF-SCORE:    0.00 PKD
ROOT
HETATM    1  C   UNK A   0      -7.781  13.961  67.693  1.00  0.00    -0.184 C  
HETATM    2  O   UNK A   0      -6.489  14.399  67.239  1.00  0.00    -0.347 OA 
HETATM    3  C   UNK A   0      -8.288  14.927  68.741  1.00  0.00    -0.170 C  
HETATM    4  H   UNK A   0      -6.171  13.792  66.581  1.00  0.00     0.000 HD 
ENDROOT
BRANCH   1   5
HETATM    5  C   UNK A   0      -8.701  13.974  66.484  1.00  0.00     0.079 C  
HETATM    6  O   UNK A   0      -8.873  15.212  65.967  1.00  0.00    -0.464 OA 
HETATM    7  H   UNK A   0      -9.449  15.220  65.210  1.00  0.00     0.000 HD 
BRANCH   5   8
HETATM    8  N   UNK A   0      -9.218  12.905  65.974  1.00  0.00    -0.461 NA 
HETATM    9  H   UNK A   0      -9.297  12.805  64.962  1.00  0.00     0.000 HD 
BRANCH   8  10
HETATM   10  C   UNK A   0      -9.677  11.863  66.837  1.00  0.00    -0.200 A  
HETATM   11  C   UNK A   0      -8.972  10.645  66.982  1.00  0.00    -0.137 A  
HETATM   12  I   UNK A   0      -7.063  10.438  65.921  1.00  0.00    -0.087 I  
HETATM   13  C   UNK A   0      -9.402   9.666  67.903  1.00  0.00    -0.141 A  
HETATM   14  I   UNK A   0     -11.976  13.870  67.237  1.00  0.00    -0.257 I  
HETATM   15  C   UNK A   0     -10.383  10.037  68.869  1.00  0.00    -0.202 A  
HETATM   16  I   UNK A   0     -10.411   8.876  70.720  1.00  0.00    -0.371 I  
HETATM   17  C   UNK A   0     -10.790  12.120  67.696  1.00  0.00    -0.233 A  
HETATM   18  C   UNK A   0     -11.105  11.265  68.779  1.00  0.00    -0.288 A  
BRANCH  13  19
HETATM   19  C   UNK A   0      -8.957   8.239  67.834  1.00  0.00    -0.134 C  
HETATM   20  O   UNK A   0      -7.793   7.937  68.427  1.00  0.00    -0.115 OA 
HETATM   21  H   UNK A   0      -7.511   7.031  68.383  1.00  0.00     0.000 HD 
BRANCH  19  22
ATOM     22  N   SER A   1      -9.644   7.320  67.251  1.00  0.00    -0.145 NA 
ATOM     23  H   SER A   1     -10.648   7.423  67.110  1.00  0.00     0.000 HD 
BRANCH  22  24
ATOM     24  CA  SER A   1      -8.924   6.099  66.790  1.00  0.00    -0.124 C  
BRANCH  24  25
ATOM     25  C   SER A   1      -8.370   6.406  65.386  1.00  0.00    -0.141 C  
ATOM     26  H   SER A   1      -7.704   5.383  63.842  1.00  0.00     0.000 HD 
ATOM     27  O   SER A   1      -8.047   5.194  64.708  1.00  0.00    -0.104 OA 
ENDBRANCH  24  25
BRANCH  24  28
ATOM     28  CB  SER A   1      -9.848   4.868  66.684  1.00  0.00    -0.204 C  
ATOM     29  OG  SER A   1     -10.736   4.896  65.568  1.00  0.00    -0.503 OA 
ATOM     30  HG  SER A   1     -11.304   4.138  65.503  1.00  0.00     0.000 HD 
ENDBRANCH  24  28
ENDBRANCH  22  24
ENDBRANCH  19  22
ENDBRANCH  13  19
BRANCH  18  31
HETATM   31  C   UNK A   0     -12.111  11.644  69.837  1.00  0.00    -0.301 C  
HETATM   32  H   UNK A   0     -13.907  11.202  70.460  1.00  0.00     0.000 HD 
HETATM   33  O   UNK A   0     -13.273  10.964  69.794  1.00  0.00     0.031 OA 
BRANCH  31  34
ATOM     34  N   SER A   1     -11.944  12.584  70.703  1.00  0.00    -0.513 NA 
ATOM     35  H   SER A   1     -11.061  12.695  71.202  1.00  0.00     0.000 HD 
BRANCH  34  36
ATOM     36  CA  SER A   1     -13.096  13.506  70.945  1.00  0.00    -0.075 C  
BRANCH  36  37
ATOM     37  CB  SER A   1     -13.580  13.288  72.381  1.00  0.00    -0.594 C  
ATOM     38  HG  SER A   1     -13.723  14.350  74.035  1.00  0.00     0.000 HD 
ATOM     39  OG  SER A   1     -13.423  14.485  73.144  1.00  0.00    -0.609 OA 
ENDBRANCH  36  37
BRANCH  36  40
ATOM     40  C   SER A   1     -12.631  14.962  70.752  1.00  0.00    -0.354 C  
ATOM     41  H   SER A   1     -10.932  15.961  70.802  1.00  0.00     0.000 HD 
ATOM     42  O   SER A   1     -11.218  15.063  70.921  1.00  0.00    -0.281 OA 
ENDBRANCH  36  40
ENDBRANCH  34  36
ENDBRANCH  31  34
ENDBRANCH  18  31
ENDBRANCH   8  10
ENDBRANCH   5   8
ENDBRANCH   1   5
TORSDOF 13
ENDMDL
MODEL       88
REMARK 921   NORMALIZED FREE ENERGY PREDICTED BY IDOCK:   -4.30 KCAL/MOL
REMARK 922        TOTAL FREE ENERGY PREDICTED BY IDOCK:   -8.50 KCAL/MOL
REMARK 923 INTER-LIGAND FREE ENERGY PREDICTED BY IDOCK:   -8.03 KCAL/MOL
REMARK 924 INTRA-LIGAND FREE ENERGY PREDICTED BY IDOCK:   -0.47 KCAL/MOL
REMARK 927      BINDING AFFINITY PREDICTED BY RF-SCORE:    0.00 PKD
ROOT
HETATM    1  C   UNK A   0     -12.929  14.621  72.409  1.00  0.00    -0.368 C  
HETATM    2  O   UNK A   0     -13.575  15.871  72.707  1.00  0.00    -0.543 OA 
HETATM    3  C   UNK A   0     -13.959  13.514  72.449  1.00  0.00    -0.638 C  
HETATM    4  H   UNK A   0     -12.928  16.566  72.682  1.00  0.00     0.000 HD 
ENDROOT
BRANCH   1   5
HETATM    5  C   UNK A   0     -12.352  14.746  71.009  1.00  0.00    -0.330 C  
HETATM    6  O   UNK A   0     -13.254  15.192  70.105  1.00  0.00    -0.638 OA 
HETATM    7  H   UNK A   0     -12.894  15.270  69.229  1.00  0.00     0.000 HD 
BRANCH   5   8
HETATM    8  N   UNK A   0     -11.115  14.503  70.728  1.00  0.00    -0.492 NA 
HETATM    9  H   UNK A   0     -10.409  14.514  71.464  1.00  0.00     0.000 HD 
BRANCH   8  10
HETATM   10  C   UNK A   0     -10.741  14.220  69.378  1.00  0.00    -0.128 A  
HETATM   11  C   UNK A   0     -10.885  12.929  68.817  1.00  0.00    -0.242 A  
HETATM   12  I   UNK A   0     -11.820  11.377  70.053  1.00  0.00    -0.371 I  
HETATM   13  C   UNK A   0     -10.588  12.695  67.457  1.00  0.00    -0.236 A  
HETATM   14  I   UNK A   0      -9.902  17.178  69.500  1.00  0.00     0.601 I  
HETATM   15  C   UNK A   0     -10.409  13.824  66.604  1.00  0.00    -0.279 A  
HETATM   16  I   UNK A   0     -10.790  13.503  64.477  1.00  0.00    -0.290 I  
HETATM   17  C   UNK A   0     -10.363  15.302  68.526  1.00  0.00    -0.231 A  
HETATM   18  C   UNK A   0     -10.280  15.147  67.121  1.00  0.00    -0.247 A  
BRANCH  13  19
HETATM   19  C   UNK A   0     -10.344  11.325  66.906  1.00  0.00    -0.234 C  
HETATM   20  O   UNK A   0     -11.422  10.562  66.678  1.00  0.00    -0.025 OA 
HETATM   21  H   UNK A   0     -11.267   9.692  66.328  1.00  0.00     0.000 HD 
BRANCH  19  22
ATOM     22  N   SER A   1      -9.167  10.877  66.642  1.00  0.00    -0.165 NA 
ATOM     23  H   SER A   1      -8.339  11.455  66.788  1.00  0.00     0.000 HD 
BRANCH  22  24
ATOM     24  CA  SER A   1      -9.052   9.488  66.117  1.00  0.00    -0.166 C  
BRANCH  24  25
ATOM     25  C   SER A   1      -7.959   8.782  66.941  1.00  0.00    -0.098 C  
ATOM     26  H   SER A   1      -7.083   9.027  68.686  1.00  0.00     0.000 HD 
ATOM     27  O   SER A   1      -7.757   9.462  68.178  1.00  0.00    -0.083 OA 
ENDBRANCH  24  25
BRANCH  24  28
ATOM     28  CB  SER A   1      -8.636   9.445  64.631  1.00  0.00    -0.187 C  
ATOM     29  OG  SER A   1      -8.137  10.683  64.127  1.00  0.00    -0.329 OA 
ATOM     30  HG  SER A   1      -7.882  10.657  63.213  1.00  0.00     0.000 HD 
ENDBRANCH  24  28
ENDBRANCH  22  24
ENDBRANCH  19  22
ENDBRANCH  13  19
BRANCH  18  31
HETATM   31  C   UNK A   0     -10.127  16.324  66.189  1.00  0.00    -0.344 C  
HETATM   32  H   UNK A   0     -11.185  17.636  65.206  1.00  0.00     0.000 HD 
HETATM   33  O   UNK A   0     -11.281  16.895  65.793  1.00  0.00     0.146 OA 
BRANCH  31  34
ATOM     34  N   SER A   1      -9.002  16.752  65.728  1.00  0.00    -0.487 NA 
ATOM     35  H   SER A   1      -8.584  16.348  64.890  1.00  0.00     0.000 HD 
BRANCH  34  36
ATOM     36  CA  SER A   1      -8.333  17.863  66.472  1.00  0.00    -0.262 C  
BRANCH  36  37
ATOM     37  CB  SER A   1      -6.872  17.921  66.019  1.00  0.00    -0.301 C  
ATOM     38  HG  SER A   1      -5.821  18.863  64.643  1.00  0.00     0.000 HD 
ATOM     39  OG  SER A   1      -6.728  18.827  64.925  1.00  0.00    -0.508 OA 
ENDBRANCH  36  37
BRANCH  36  40
ATOM     40  C   SER A   1      -9.046  19.190  66.151  1.00  0.00    -0.224 C  
ATOM     41  H   SER A   1      -9.231  20.972  66.975  1.00  0.00     0.000 HD 
ATOM     42  O   SER A   1      -8.792  20.154  67.173  1.00  0.00    -0.329 OA 
ENDBRANCH  36  40
ENDBRANCH  34  36
ENDBRANCH  31  34
ENDBRANCH  18  31
ENDBRANCH   8  10
ENDBRANCH   5   8
ENDBRANCH   1   5
TORSDOF 13
ENDMDL
MODEL       89
REMARK 921   NORMALIZED FREE ENERGY PREDICTED BY IDOCK:   -4.29 KCAL/MOL
REMARK 922        TOTAL FREE ENERGY PREDICTED BY IDOCK:   -8.48 KCAL/MOL
REMARK 923 INTER-LIGAND FREE ENERGY PREDICTED BY IDOCK:   -7.85 KCAL/MOL
REMARK 924 INTRA-LIGAND FREE ENERGY PREDICTED BY IDOCK:   -0.63 KCAL/MOL
REMARK 927      BINDING AFFINITY PREDICTED BY RF-SCORE:    0.00 PKD
ROOT
HETATM    1  C   UNK A   0      -5.637  15.957  68.011  1.00  0.00    -0.123 C  
HETATM    2  O   UNK A   0      -5.878  16.491  66.697  1.00  0.00    -0.330 OA 
HETATM    3  C   UNK A   0      -5.808  17.062  69.029  1.00  0.00    -0.162 C  
HETATM    4  H   UNK A   0      -5.770  15.796  66.058  1.00  0.00     0.000 HD 
ENDROOT
BRANCH   1   5
HETATM    5  C   UNK A   0      -6.673  14.871  68.243  1.00  0.00    -0.112 C  
HETATM    6  O   UNK A   0      -6.727  14.459  69.530  1.00  0.00    -0.129 OA 
HETATM    7  H   UNK A   0      -7.375  13.779  69.675  1.00  0.00     0.000 HD 
BRANCH   5   8
HETATM    8  N   UNK A   0      -7.455  14.427  67.315  1.00  0.00    -0.301 NA 
HETATM    9  H   UNK A   0      -7.268  14.647  66.337  1.00  0.00     0.000 HD 
BRANCH   8  10
HETATM   10  C   UNK A   0      -8.585  13.627  67.668  1.00  0.00    -0.185 A  
HETATM   11  C   UNK A   0      -8.542  12.214  67.629  1.00  0.00    -0.166 A  
HETATM   12  I   UNK A   0      -6.633  11.263  67.119  1.00  0.00    -0.138 I  
HETATM   13  C   UNK A   0      -9.644  11.446  68.062  1.00  0.00    -0.184 A  
HETATM   14  I   UNK A   0      -9.844  16.415  68.004  1.00  0.00    -0.259 I  
HETATM   15  C   UNK A   0     -10.679  12.105  68.789  1.00  0.00    -0.219 A  
HETATM   16  I   UNK A   0     -11.872  10.856  70.127  1.00  0.00    -0.490 I  
HETATM   17  C   UNK A   0      -9.734  14.265  68.226  1.00  0.00    -0.221 A  
HETATM   18  C   UNK A   0     -10.753  13.527  68.875  1.00  0.00    -0.228 A  
BRANCH  13  19
HETATM   19  C   UNK A   0      -9.821  10.005  67.695  1.00  0.00    -0.162 C  
HETATM   20  O   UNK A   0     -10.530   9.743  66.589  1.00  0.00    -0.218 OA 
HETATM   21  H   UNK A   0     -10.642   8.829  66.356  1.00  0.00     0.000 HD 
BRANCH  19  22
ATOM     22  N   SER A   1      -9.316   9.042  68.383  1.00  0.00    -0.139 NA 
ATOM     23  H   SER A   1      -8.667   9.225  69.149  1.00  0.00     0.000 HD 
BRANCH  22  24
ATOM     24  CA  SER A   1      -9.709   7.650  68.026  1.00  0.00    -0.152 C  
BRANCH  24  25
ATOM     25  C   SER A   1     -10.137   6.952  69.330  1.00  0.00    -0.170 C  
ATOM     26  H   SER A   1     -11.703   5.959  69.989  1.00  0.00     0.000 HD 
ATOM     27  O   SER A   1     -11.439   6.389  69.184  1.00  0.00    -0.364 OA 
ENDBRANCH  24  25
BRANCH  24  28
ATOM     28  CB  SER A   1      -8.547   6.843  67.408  1.00  0.00    -0.121 C  
ATOM     29  OG  SER A   1      -7.370   6.802  68.213  1.00  0.00    -0.088 OA 
ATOM     30  HG  SER A   1      -6.656   6.305  67.833  1.00  0.00     0.000 HD 
ENDBRANCH  24  28
ENDBRANCH  22  24
ENDBRANCH  19  22
ENDBRANCH  13  19
BRANCH  18  31
HETATM   31  C   UNK A   0     -11.840  14.193  69.681  1.00  0.00    -0.324 C  
HETATM   32  H   UNK A   0     -13.561  15.089  69.471  1.00  0.00     0.000 HD 
HETATM   33  O   UNK A   0     -12.875  14.670  68.964  1.00  0.00     0.278 OA 
BRANCH  31  34
ATOM     34  N   SER A   1     -11.801  14.371  70.957  1.00  0.00    -0.446 NA 
ATOM     35  H   SER A   1     -11.105  13.902  71.537  1.00  0.00     0.000 HD 
BRANCH  34  36
ATOM     36  CA  SER A   1     -12.814  15.294  71.553  1.00  0.00    -0.398 C  
BRANCH  36  37
ATOM     37  CB  SER A   1     -14.032  14.459  71.957  1.00  0.00    -0.500 C  
ATOM     38  HG  SER A   1     -14.374  12.771  72.914  1.00  0.00     0.000 HD 
ATOM     39  OG  SER A   1     -13.618  13.289  72.664  1.00  0.00    -0.626 OA 
ENDBRANCH  36  37
BRANCH  36  40
ATOM     40  C   SER A   1     -12.208  15.988  72.787  1.00  0.00    -0.516 C  
ATOM     41  H   SER A   1     -12.860  16.788  74.467  1.00  0.00     0.000 HD 
ATOM     42  O   SER A   1     -13.234  16.360  73.706  1.00  0.00    -0.662 OA 
ENDBRANCH  36  40
ENDBRANCH  34  36
ENDBRANCH  31  34
ENDBRANCH  18  31
ENDBRANCH   8  10
ENDBRANCH   5   8
ENDBRANCH   1   5
TORSDOF 13
ENDMDL
MODEL       90
REMARK 921   NORMALIZED FREE ENERGY PREDICTED BY IDOCK:   -4.27 KCAL/MOL
REMARK 922        TOTAL FREE ENERGY PREDICTED BY IDOCK:   -8.46 KCAL/MOL
REMARK 923 INTER-LIGAND FREE ENERGY PREDICTED BY IDOCK:   -7.42 KCAL/MOL
REMARK 924 INTRA-LIGAND FREE ENERGY PREDICTED BY IDOCK:   -1.04 KCAL/MOL
REMARK 927      BINDING AFFINITY PREDICTED BY RF-SCORE:    0.00 PKD
ROOT
HETATM    1  C   UNK A   0     -11.787  14.133  70.763  1.00  0.00    -0.242 C  
HETATM    2  O   UNK A   0     -11.070  14.984  71.674  1.00  0.00    -0.572 OA 
HETATM    3  C   UNK A   0     -12.930  13.473  71.502  1.00  0.00    -0.440 C  
HETATM    4  H   UNK A   0     -10.352  15.398  71.209  1.00  0.00     0.000 HD 
ENDROOT
BRANCH   1   5
HETATM    5  C   UNK A   0     -12.327  15.025  69.659  1.00  0.00    -0.203 C  
HETATM    6  O   UNK A   0     -13.265  15.897  70.096  1.00  0.00    -0.665 OA 
HETATM    7  H   UNK A   0     -13.603  16.455  69.406  1.00  0.00     0.000 HD 
BRANCH   5   8
HETATM    8  N   UNK A   0     -11.893  14.990  68.442  1.00  0.00    -0.481 NA 
HETATM    9  H   UNK A   0     -12.540  15.113  67.663  1.00  0.00     0.000 HD 
BRANCH   8  10
HETATM   10  C   UNK A   0     -10.502  14.776  68.195  1.00  0.00    -0.239 A  
HETATM   11  C   UNK A   0      -9.564  15.833  68.237  1.00  0.00    -0.201 A  
HETATM   12  I   UNK A   0     -10.289  17.821  68.815  1.00  0.00     0.022 I  
HETATM   13  C   UNK A   0      -8.184  15.582  68.072  1.00  0.00    -0.146 A  
HETATM   14  I   UNK A   0     -11.521  11.909  67.733  1.00  0.00    -0.322 I  
HETATM   15  C   UNK A   0      -7.735  14.231  68.140  1.00  0.00    -0.141 A  
HETATM   16  I   UNK A   0      -5.650  13.930  68.722  1.00  0.00    -0.100 I  
HETATM   17  C   UNK A   0     -10.024  13.437  68.060  1.00  0.00    -0.239 A  
HETATM   18  C   UNK A   0      -8.644  13.131  68.122  1.00  0.00    -0.181 A  
BRANCH  13  19
HETATM   19  C   UNK A   0      -7.203  16.656  67.721  1.00  0.00    -0.138 C  
HETATM   20  O   UNK A   0      -6.561  17.249  68.738  1.00  0.00    -0.177 OA 
HETATM   21  H   UNK A   0      -5.938  17.930  68.514  1.00  0.00     0.000 HD 
BRANCH  19  22
ATOM     22  N   SER A   1      -6.955  17.007  66.508  1.00  0.00    -0.243 NA 
ATOM     23  H   SER A   1      -7.017  16.336  65.743  1.00  0.00     0.000 HD 
BRANCH  22  24
ATOM     24  CA  SER A   1      -6.576  18.426  66.257  1.00  0.00    -0.220 C  
BRANCH  24  25
ATOM     25  C   SER A   1      -7.885  19.227  66.129  1.00  0.00    -0.300 C  
ATOM     26  H   SER A   1      -8.573  20.972  66.724  1.00  0.00     0.000 HD 
ATOM     27  O   SER A   1      -7.766  20.478  66.803  1.00  0.00    -0.285 OA 
ENDBRANCH  24  25
BRANCH  24  28
ATOM     28  CB  SER A   1      -5.773  18.605  64.952  1.00  0.00    -0.228 C  
ATOM     29  OG  SER A   1      -5.943  19.877  64.329  1.00  0.00    -0.242 OA 
ATOM     30  HG  SER A   1      -5.449  19.987  63.525  1.00  0.00     0.000 HD 
ENDBRANCH  24  28
ENDBRANCH  22  24
ENDBRANCH  19  22
ENDBRANCH  13  19
BRANCH  18  31
HETATM   31  C   UNK A   0      -8.137  11.714  68.231  1.00  0.00    -0.150 C  
HETATM   32  H   UNK A   0      -7.477  10.244  67.131  1.00  0.00     0.000 HD 
HETATM   33  O   UNK A   0      -7.797  11.136  67.063  1.00  0.00    -0.128 OA 
BRANCH  31  34
ATOM     34  N   SER A   1      -8.073  11.041  69.329  1.00  0.00    -0.359 NA 
ATOM     35  H   SER A   1      -8.484  11.396  70.193  1.00  0.00     0.000 HD 
BRANCH  34  36
ATOM     36  CA  SER A   1      -7.374   9.721  69.285  1.00  0.00    -0.082 C  
BRANCH  36  37
ATOM     37  CB  SER A   1      -6.400   9.664  70.464  1.00  0.00    -0.088 C  
ATOM     38  HG  SER A   1      -5.618  10.930  71.756  1.00  0.00     0.000 HD 
ATOM     39  OG  SER A   1      -6.223  10.965  71.025  1.00  0.00    -0.359 OA 
ENDBRANCH  36  37
BRANCH  36  40
ATOM     40  C   SER A   1      -8.415   8.590  69.395  1.00  0.00    -0.127 C  
ATOM     41  H   SER A   1      -9.899   7.875  68.312  1.00  0.00     0.000 HD 
ATOM     42  O   SER A   1      -9.257   8.572  68.244  1.00  0.00    -0.138 OA 
ENDBRANCH  36  40
ENDBRANCH  34  36
ENDBRANCH  31  34
ENDBRANCH  18  31
ENDBRANCH   8  10
ENDBRANCH   5   8
ENDBRANCH   1   5
TORSDOF 13
ENDMDL
MODEL       91
REMARK 921   NORMALIZED FREE ENERGY PREDICTED BY IDOCK:   -4.27 KCAL/MOL
REMARK 922        TOTAL FREE ENERGY PREDICTED BY IDOCK:   -8.44 KCAL/MOL
REMARK 923 INTER-LIGAND FREE ENERGY PREDICTED BY IDOCK:   -7.18 KCAL/MOL
REMARK 924 INTRA-LIGAND FREE ENERGY PREDICTED BY IDOCK:   -1.26 KCAL/MOL
REMARK 927      BINDING AFFINITY PREDICTED BY RF-SCORE:    0.00 PKD
ROOT
HETATM    1  C   UNK A   0     -11.204  13.653  67.146  1.00  0.00    -0.309 C  
HETATM    2  O   UNK A   0     -12.242  13.203  66.258  1.00  0.00    -0.408 OA 
HETATM    3  C   UNK A   0     -11.710  14.843  67.930  1.00  0.00    -0.344 C  
HETATM    4  H   UNK A   0     -11.924  12.456  65.765  1.00  0.00     0.000 HD 
ENDROOT
BRANCH   1   5
HETATM    5  C   UNK A   0     -10.900  12.500  68.087  1.00  0.00    -0.222 C  
HETATM    6  O   UNK A   0      -9.801  12.715  68.846  1.00  0.00    -0.414 OA 
HETATM    7  H   UNK A   0      -9.610  11.994  69.435  1.00  0.00     0.000 HD 
BRANCH   5   8
HETATM    8  N   UNK A   0     -11.646  11.450  68.187  1.00  0.00    -0.436 NA 
HETATM    9  H   UNK A   0     -12.616  11.478  67.873  1.00  0.00     0.000 HD 
BRANCH   8  10
HETATM   10  C   UNK A   0     -11.104  10.250  68.741  1.00  0.00    -0.228 A  
HETATM   11  C   UNK A   0     -11.287   9.904  70.100  1.00  0.00    -0.275 A  
HETATM   12  I   UNK A   0     -12.544  11.217  71.328  1.00  0.00    -0.236 I  
HETATM   13  C   UNK A   0     -10.813   8.673  70.603  1.00  0.00    -0.265 A  
HETATM   14  I   UNK A   0     -10.008   9.998  65.877  1.00  0.00    -0.232 I  
HETATM   15  C   UNK A   0     -10.398   7.680  69.668  1.00  0.00    -0.213 A  
HETATM   16  I   UNK A   0     -10.485   5.607  70.351  1.00  0.00    -0.312 I  
HETATM   17  C   UNK A   0     -10.498   9.299  67.865  1.00  0.00    -0.236 A  
HETATM   18  C   UNK A   0     -10.220   7.975  68.283  1.00  0.00    -0.243 A  
BRANCH  13  19
HETATM   19  C   UNK A   0     -10.624   8.415  72.066  1.00  0.00    -0.317 C  
HETATM   20  O   UNK A   0     -11.647   7.848  72.719  1.00  0.00    -0.473 OA 
HETATM   21  H   UNK A   0     -11.527   7.684  73.647  1.00  0.00     0.000 HD 
BRANCH  19  22
ATOM     22  N   SER A   1      -9.536   8.702  72.691  1.00  0.00    -0.222 NA 
ATOM     23  H   SER A   1      -9.385   9.630  73.087  1.00  0.00     0.000 HD 
BRANCH  22  24
ATOM     24  CA  SER A   1      -8.504   7.635  72.819  1.00  0.00    -0.129 C  
BRANCH  24  25
ATOM     25  C   SER A   1      -8.000   7.666  74.273  1.00  0.00    -0.194 C  
ATOM     26  H   SER A   1      -7.052   8.930  75.446  1.00  0.00     0.000 HD 
ATOM     27  O   SER A   1      -7.364   8.911  74.549  1.00  0.00    -0.409 OA 
ENDBRANCH  24  25
BRANCH  24  28
ATOM     28  CB  SER A   1      -7.296   7.861  71.886  1.00  0.00    -0.075 C  
ATOM     29  OG  SER A   1      -6.058   7.377  72.404  1.00  0.00    -0.040 OA 
ATOM     30  HG  SER A   1      -5.314   7.516  71.830  1.00  0.00     0.000 HD 
ENDBRANCH  24  28
ENDBRANCH  22  24
ENDBRANCH  19  22
ENDBRANCH  13  19
BRANCH  18  31
HETATM   31  C   UNK A   0      -9.815   6.893  67.313  1.00  0.00    -0.152 C  
HETATM   32  H   UNK A   0     -10.570   5.664  65.999  1.00  0.00     0.000 HD 
HETATM   33  O   UNK A   0     -10.824   6.346  66.610  1.00  0.00    -0.285 OA 
BRANCH  31  34
ATOM     34  N   SER A   1      -8.613   6.446  67.175  1.00  0.00    -0.111 NA 
ATOM     35  H   SER A   1      -7.830   6.867  67.675  1.00  0.00     0.000 HD 
BRANCH  34  36
ATOM     36  CA  SER A   1      -8.415   5.285  66.254  1.00  0.00    -0.115 C  
BRANCH  36  37
ATOM     37  CB  SER A   1      -7.435   5.715  65.159  1.00  0.00    -0.078 C  
ATOM     38  HG  SER A   1      -5.928   6.972  64.980  1.00  0.00     0.000 HD 
ATOM     39  OG  SER A   1      -6.536   6.705  65.659  1.00  0.00    -0.048 OA 
ENDBRANCH  36  37
BRANCH  36  40
ATOM     40  C   SER A   1      -7.842   4.097  67.049  1.00  0.00    -0.096 C  
ATOM     41  H   SER A   1      -7.199   3.753  68.881  1.00  0.00     0.000 HD 
ATOM     42  O   SER A   1      -7.552   4.485  68.390  1.00  0.00    -0.068 OA 
ENDBRANCH  36  40
ENDBRANCH  34  36
ENDBRANCH  31  34
ENDBRANCH  18  31
ENDBRANCH   8  10
ENDBRANCH   5   8
ENDBRANCH   1   5
TORSDOF 13
ENDMDL
MODEL       92
REMARK 921   NORMALIZED FREE ENERGY PREDICTED BY IDOCK:   -4.25 KCAL/MOL
REMARK 922        TOTAL FREE ENERGY PREDICTED BY IDOCK:   -8.41 KCAL/MOL
REMARK 923 INTER-LIGAND FREE ENERGY PREDICTED BY IDOCK:   -7.39 KCAL/MOL
REMARK 924 INTRA-LIGAND FREE ENERGY PREDICTED BY IDOCK:   -1.02 KCAL/MOL
REMARK 927      BINDING AFFINITY PREDICTED BY RF-SCORE:    0.00 PKD
ROOT
HETATM    1  C   UNK A   0     -10.689   4.737  72.954  1.00  0.00    -0.232 C  
HETATM    2  O   UNK A   0     -12.058   5.047  73.268  1.00  0.00    -0.461 OA 
HETATM    3  C   UNK A   0     -10.529   3.236  72.878  1.00  0.00    -0.236 C  
HETATM    4  H   UNK A   0     -12.158   5.990  73.316  1.00  0.00     0.000 HD 
ENDROOT
BRANCH   1   5
HETATM    5  C   UNK A   0     -10.396   5.362  71.600  1.00  0.00    -0.218 C  
HETATM    6  O   UNK A   0     -11.488   5.923  71.031  1.00  0.00    -0.237 OA 
HETATM    7  H   UNK A   0     -11.306   6.313  70.184  1.00  0.00     0.000 HD 
BRANCH   5   8
HETATM    8  N   UNK A   0      -9.216   5.398  71.076  1.00  0.00    -0.146 NA 
HETATM    9  H   UNK A   0      -8.466   4.822  71.458  1.00  0.00     0.000 HD 
BRANCH   8  10
HETATM   10  C   UNK A   0      -8.968   6.251  69.957  1.00  0.00    -0.149 A  
HETATM   11  C   UNK A   0      -8.988   5.767  68.628  1.00  0.00    -0.112 A  
HETATM   12  I   UNK A   0      -9.535   3.666  68.315  1.00  0.00    -0.020 I  
HETATM   13  C   UNK A   0      -8.823   6.646  67.536  1.00  0.00    -0.116 A  
HETATM   14  I   UNK A   0      -8.558   8.294  72.221  1.00  0.00    -0.215 I  
HETATM   15  C   UNK A   0      -8.911   8.048  67.782  1.00  0.00    -0.132 A  
HETATM   16  I   UNK A   0      -9.491   9.297  66.085  1.00  0.00    -0.337 I  
HETATM   17  C   UNK A   0      -8.853   7.658  70.174  1.00  0.00    -0.146 A  
HETATM   18  C   UNK A   0      -8.916   8.583  69.105  1.00  0.00    -0.146 A  
BRANCH  13  19
HETATM   19  C   UNK A   0      -8.449   6.173  66.165  1.00  0.00    -0.137 C  
HETATM   20  O   UNK A   0      -7.141   6.103  65.883  1.00  0.00    -0.067 OA 
HETATM   21  H   UNK A   0      -6.905   5.802  65.013  1.00  0.00     0.000 HD 
BRANCH  19  22
ATOM     22  N   SER A   1      -9.321   5.830  65.283  1.00  0.00    -0.356 NA 
ATOM     23  H   SER A   1     -10.167   6.382  65.136  1.00  0.00     0.000 HD 
BRANCH  22  24
ATOM     24  CA  SER A   1      -9.057   4.602  64.483  1.00  0.00    -0.132 C  
BRANCH  24  25
ATOM     25  C   SER A   1      -8.645   5.061  63.073  1.00  0.00    -0.109 C  
ATOM     26  H   SER A   1      -6.982   5.560  62.145  1.00  0.00     0.000 HD 
ATOM     27  O   SER A   1      -7.236   5.277  63.016  1.00  0.00    -0.041 OA 
ENDBRANCH  24  25
BRANCH  24  28
ATOM     28  CB  SER A   1     -10.301   3.699  64.350  1.00  0.00    -0.194 C  
ATOM     29  OG  SER A   1     -11.506   4.285  64.840  1.00  0.00    -1.029 OA 
ATOM     30  HG  SER A   1     -12.271   3.729  64.758  1.00  0.00     0.000 HD 
ENDBRANCH  24  28
ENDBRANCH  22  24
ENDBRANCH  19  22
ENDBRANCH  13  19
BRANCH  18  31
HETATM   31  C   UNK A   0      -9.046  10.069  69.332  1.00  0.00    -0.215 C  
HETATM   32  H   UNK A   0      -8.067  11.739  69.090  1.00  0.00     0.000 HD 
HETATM   33  O   UNK A   0      -7.985  10.803  68.947  1.00  0.00    -0.126 OA 
BRANCH  31  34
ATOM     34  N   SER A   1     -10.052  10.637  69.904  1.00  0.00    -0.427 NA 
ATOM     35  H   SER A   1      -9.987  10.996  70.856  1.00  0.00     0.000 HD 
BRANCH  34  36
ATOM     36  CA  SER A   1     -11.317  10.747  69.116  1.00  0.00    -0.282 C  
BRANCH  36  37
ATOM     37  CB  SER A   1     -12.491  10.519  70.073  1.00  0.00    -0.175 C  
ATOM     38  HG  SER A   1     -12.786   9.652  71.817  1.00  0.00     0.000 HD 
ATOM     39  OG  SER A   1     -12.058   9.793  71.223  1.00  0.00    -0.326 OA 
ENDBRANCH  36  37
BRANCH  36  40
ATOM     40  C   SER A   1     -11.405  12.150  68.487  1.00  0.00    -0.275 C  
ATOM     41  H   SER A   1     -12.084  12.952  66.819  1.00  0.00     0.000 HD 
ATOM     42  O   SER A   1     -12.030  12.087  67.206  1.00  0.00    -0.591 OA 
ENDBRANCH  36  40
ENDBRANCH  34  36
ENDBRANCH  31  34
ENDBRANCH  18  31
ENDBRANCH   8  10
ENDBRANCH   5   8
ENDBRANCH   1   5
TORSDOF 13
ENDMDL
MODEL       93
REMARK 921   NORMALIZED FREE ENERGY PREDICTED BY IDOCK:   -4.21 KCAL/MOL
REMARK 922        TOTAL FREE ENERGY PREDICTED BY IDOCK:   -8.35 KCAL/MOL
REMARK 923 INTER-LIGAND FREE ENERGY PREDICTED BY IDOCK:   -7.59 KCAL/MOL
REMARK 924 INTRA-LIGAND FREE ENERGY PREDICTED BY IDOCK:   -0.75 KCAL/MOL
REMARK 927      BINDING AFFINITY PREDICTED BY RF-SCORE:    0.00 PKD
ROOT
HETATM    1  C   UNK A   0     -12.532  13.049  64.926  1.00  0.00    -0.455 C  
HETATM    2  O   UNK A   0     -13.617  13.893  65.351  1.00  0.00    -0.571 OA 
HETATM    3  C   UNK A   0     -13.054  12.048  63.920  1.00  0.00    -0.165 C  
HETATM    4  H   UNK A   0     -13.289  14.521  65.984  1.00  0.00     0.000 HD 
ENDROOT
BRANCH   1   5
HETATM    5  C   UNK A   0     -11.501  13.954  64.274  1.00  0.00    -0.318 C  
HETATM    6  O   UNK A   0     -12.057  14.983  63.593  1.00  0.00    -0.903 OA 
HETATM    7  H   UNK A   0     -11.412  15.549  63.185  1.00  0.00     0.000 HD 
BRANCH   5   8
HETATM    8  N   UNK A   0     -10.226  13.787  64.405  1.00  0.00    -0.729 NA 
HETATM    9  H   UNK A   0      -9.609  13.896  63.601  1.00  0.00     0.000 HD 
BRANCH   8  10
HETATM   10  C   UNK A   0      -9.688  13.446  65.684  1.00  0.00    -0.082 A  
HETATM   11  C   UNK A   0      -9.358  12.114  66.027  1.00  0.00    -0.170 A  
HETATM   12  I   UNK A   0      -9.587  10.575  64.480  1.00  0.00    -0.411 I  
HETATM   13  C   UNK A   0      -8.751  11.815  67.265  1.00  0.00    -0.163 A  
HETATM   14  I   UNK A   0     -10.097  16.464  66.121  1.00  0.00    -0.360 I  
HETATM   15  C   UNK A   0      -8.229  12.895  68.036  1.00  0.00    -0.168 A  
HETATM   16  I   UNK A   0      -6.624  12.404  69.434  1.00  0.00     0.110 I  
HETATM   17  C   UNK A   0      -9.325  14.496  66.581  1.00  0.00    -0.281 A  
HETATM   18  C   UNK A   0      -8.516  14.257  67.718  1.00  0.00    -0.177 A  
BRANCH  13  19
HETATM   19  C   UNK A   0      -8.733  10.435  67.846  1.00  0.00    -0.118 C  
HETATM   20  O   UNK A   0      -9.554  10.202  68.880  1.00  0.00    -0.166 OA 
HETATM   21  H   UNK A   0      -9.543   9.326  69.248  1.00  0.00     0.000 HD 
BRANCH  19  22
ATOM     22  N   SER A   1      -7.986   9.493  67.388  1.00  0.00    -0.106 NA 
ATOM     23  H   SER A   1      -7.113   9.702  66.903  1.00  0.00     0.000 HD 
BRANCH  22  24
ATOM     24  CA  SER A   1      -8.436   8.088  67.588  1.00  0.00    -0.131 C  
BRANCH  24  25
ATOM     25  C   SER A   1      -7.526   7.470  68.665  1.00  0.00    -0.101 C  
ATOM     26  H   SER A   1      -7.460   7.396  70.631  1.00  0.00     0.000 HD 
ATOM     27  O   SER A   1      -8.023   7.777  69.966  1.00  0.00    -0.108 OA 
ENDBRANCH  24  25
BRANCH  24  28
ATOM     28  CB  SER A   1      -8.312   7.235  66.308  1.00  0.00    -0.129 C  
ATOM     29  OG  SER A   1      -9.562   6.866  65.726  1.00  0.00    -0.381 OA 
ATOM     30  HG  SER A   1      -9.485   6.341  64.938  1.00  0.00     0.000 HD 
ENDBRANCH  24  28
ENDBRANCH  22  24
ENDBRANCH  19  22
ENDBRANCH  13  19
BRANCH  18  31
HETATM   31  C   UNK A   0      -7.919  15.378  68.532  1.00  0.00    -0.140 C  
HETATM   32  H   UNK A   0      -8.313  16.529  70.058  1.00  0.00     0.000 HD 
HETATM   33  O   UNK A   0      -8.688  15.823  69.544  1.00  0.00    -0.259 OA 
BRANCH  31  34
ATOM     34  N   SER A   1      -6.789  15.944  68.282  1.00  0.00    -0.114 NA 
ATOM     35  H   SER A   1      -5.934  15.397  68.173  1.00  0.00     0.000 HD 
BRANCH  34  36
ATOM     36  CA  SER A   1      -6.780  17.433  68.156  1.00  0.00    -0.178 C  
BRANCH  36  37
ATOM     37  CB  SER A   1      -5.752  17.984  69.148  1.00  0.00    -0.214 C  
ATOM     38  HG  SER A   1      -5.687  19.381  70.536  1.00  0.00     0.000 HD 
ATOM     39  OG  SER A   1      -6.325  19.039  69.921  1.00  0.00    -0.244 OA 
ENDBRANCH  36  37
BRANCH  36  40
ATOM     40  C   SER A   1      -6.395  17.821  66.716  1.00  0.00    -0.174 C  
ATOM     41  H   SER A   1      -6.221  19.475  65.657  1.00  0.00     0.000 HD 
ATOM     42  O   SER A   1      -6.458  19.236  66.545  1.00  0.00    -0.186 OA 
ENDBRANCH  36  40
ENDBRANCH  34  36
ENDBRANCH  31  34
ENDBRANCH  18  31
ENDBRANCH   8  10
ENDBRANCH   5   8
ENDBRANCH   1   5
TORSDOF 13
ENDMDL
MODEL       94
REMARK 921   NORMALIZED FREE ENERGY PREDICTED BY IDOCK:   -4.18 KCAL/MOL
REMARK 922        TOTAL FREE ENERGY PREDICTED BY IDOCK:   -8.30 KCAL/MOL
REMARK 923 INTER-LIGAND FREE ENERGY PREDICTED BY IDOCK:   -7.43 KCAL/MOL
REMARK 924 INTRA-LIGAND FREE ENERGY PREDICTED BY IDOCK:   -0.87 KCAL/MOL
REMARK 927      BINDING AFFINITY PREDICTED BY RF-SCORE:    0.00 PKD
ROOT
HETATM    1  C   UNK A   0     -13.222  10.160  70.712  1.00  0.00    -0.226 C  
HETATM    2  O   UNK A   0     -13.015   8.752  70.919  1.00  0.00    -0.502 OA 
HETATM    3  C   UNK A   0     -13.382  10.835  72.056  1.00  0.00    -0.403 C  
HETATM    4  H   UNK A   0     -12.914   8.327  70.075  1.00  0.00     0.000 HD 
ENDROOT
BRANCH   1   5
HETATM    5  C   UNK A   0     -11.983  10.688  70.008  1.00  0.00    -0.329 C  
HETATM    6  O   UNK A   0     -10.848  10.484  70.715  1.00  0.00    -0.366 OA 
HETATM    7  H   UNK A   0     -10.073  10.815  70.275  1.00  0.00     0.000 HD 
BRANCH   5   8
HETATM    8  N   UNK A   0     -12.010  11.226  68.833  1.00  0.00    -0.462 NA 
HETATM    9  H   UNK A   0     -12.817  11.089  68.225  1.00  0.00     0.000 HD 
BRANCH   8  10
HETATM   10  C   UNK A   0     -10.902  12.012  68.393  1.00  0.00    -0.233 A  
HETATM   11  C   UNK A   0     -10.764  13.375  68.745  1.00  0.00    -0.232 A  
HETATM   12  I   UNK A   0     -12.257  14.234  70.104  1.00  0.00    -0.366 I  
HETATM   13  C   UNK A   0      -9.619  14.108  68.367  1.00  0.00    -0.225 A  
HETATM   14  I   UNK A   0     -10.215   9.371  66.971  1.00  0.00    -0.286 I  
HETATM   15  C   UNK A   0      -8.494  13.386  67.871  1.00  0.00    -0.173 A  
HETATM   16  I   UNK A   0      -6.546  14.352  68.093  1.00  0.00    -0.189 I  
HETATM   17  C   UNK A   0      -9.825  11.366  67.712  1.00  0.00    -0.175 A  
HETATM   18  C   UNK A   0      -8.577  12.005  67.521  1.00  0.00    -0.167 A  
BRANCH  13  19
HETATM   19  C   UNK A   0      -9.580  15.604  68.360  1.00  0.00    -0.199 C  
HETATM   20  O   UNK A   0      -9.385  16.212  69.539  1.00  0.00    -0.223 OA 
HETATM   21  H   UNK A   0      -9.361  17.161  69.534  1.00  0.00     0.000 HD 
BRANCH  19  22
ATOM     22  N   SER A   1      -9.713  16.302  67.287  1.00  0.00    -0.235 NA 
ATOM     23  H   SER A   1      -9.784  15.854  66.373  1.00  0.00     0.000 HD 
BRANCH  22  24
ATOM     24  CA  SER A   1      -9.758  17.785  67.421  1.00  0.00    -0.284 C  
BRANCH  24  25
ATOM     25  C   SER A   1     -10.512  18.326  66.193  1.00  0.00    -0.383 C  
ATOM     26  H   SER A   1     -10.364  19.859  64.968  1.00  0.00     0.000 HD 
ATOM     27  O   SER A   1      -9.898  19.525  65.725  1.00  0.00    -0.403 OA 
ENDBRANCH  24  25
BRANCH  24  28
ATOM     28  CB  SER A   1      -8.353  18.423  67.442  1.00  0.00    -0.252 C  
ATOM     29  OG  SER A   1      -7.914  18.830  68.737  1.00  0.00    -0.329 OA 
ATOM     30  HG  SER A   1      -7.050  19.223  68.750  1.00  0.00     0.000 HD 
ENDBRANCH  24  28
ENDBRANCH  22  24
ENDBRANCH  19  22
ENDBRANCH  13  19
BRANCH  18  31
HETATM   31  C   UNK A   0      -7.358  11.262  67.033  1.00  0.00    -0.136 C  
HETATM   32  H   UNK A   0      -6.554  10.562  65.398  1.00  0.00     0.000 HD 
HETATM   33  O   UNK A   0      -7.321  11.030  65.706  1.00  0.00    -0.056 OA 
BRANCH  31  34
ATOM     34  N   SER A   1      -6.424  10.806  67.795  1.00  0.00    -0.059 NA 
ATOM     35  H   SER A   1      -5.533  11.294  67.892  1.00  0.00     0.000 HD 
BRANCH  34  36
ATOM     36  CA  SER A   1      -6.698   9.535  68.532  1.00  0.00    -0.053 C  
BRANCH  36  37
ATOM     37  CB  SER A   1      -5.401   8.722  68.569  1.00  0.00    -0.037 C  
ATOM     38  HG  SER A   1      -4.691   7.093  67.715  1.00  0.00     0.000 HD 
ATOM     39  OG  SER A   1      -5.496   7.598  67.692  1.00  0.00    -0.029 OA 
ENDBRANCH  36  37
BRANCH  36  40
ATOM     40  C   SER A   1      -7.163   9.866  69.962  1.00  0.00    -0.146 C  
ATOM     41  H   SER A   1      -6.851  11.284  71.296  1.00  0.00     0.000 HD 
ATOM     42  O   SER A   1      -6.564  11.080  70.414  1.00  0.00    -0.273 OA 
ENDBRANCH  36  40
ENDBRANCH  34  36
ENDBRANCH  31  34
ENDBRANCH  18  31
ENDBRANCH   8  10
ENDBRANCH   5   8
ENDBRANCH   1   5
TORSDOF 13
ENDMDL
MODEL       95
REMARK 921   NORMALIZED FREE ENERGY PREDICTED BY IDOCK:   -4.16 KCAL/MOL
REMARK 922        TOTAL FREE ENERGY PREDICTED BY IDOCK:   -8.26 KCAL/MOL
REMARK 923 INTER-LIGAND FREE ENERGY PREDICTED BY IDOCK:   -7.21 KCAL/MOL
REMARK 924 INTRA-LIGAND FREE ENERGY PREDICTED BY IDOCK:   -1.04 KCAL/MOL
REMARK 927      BINDING AFFINITY PREDICTED BY RF-SCORE:    0.00 PKD
ROOT
HETATM    1  C   UNK A   0     -10.545   5.666  70.419  1.00  0.00    -0.294 C  
HETATM    2  O   UNK A   0     -10.117   4.788  69.363  1.00  0.00    -0.218 OA 
HETATM    3  C   UNK A   0      -9.514   5.644  71.524  1.00  0.00    -0.177 C  
HETATM    4  H   UNK A   0     -10.765   4.802  68.668  1.00  0.00     0.000 HD 
ENDROOT
BRANCH   1   5
HETATM    5  C   UNK A   0     -10.641   7.060  69.822  1.00  0.00    -0.233 C  
HETATM    6  O   UNK A   0     -11.450   7.115  68.739  1.00  0.00    -0.424 OA 
HETATM    7  H   UNK A   0     -11.510   7.986  68.365  1.00  0.00     0.000 HD 
BRANCH   5   8
HETATM    8  N   UNK A   0     -10.052   8.091  70.330  1.00  0.00    -0.193 NA 
HETATM    9  H   UNK A   0      -9.707   8.064  71.289  1.00  0.00     0.000 HD 
BRANCH   8  10
HETATM   10  C   UNK A   0      -9.889   9.270  69.540  1.00  0.00    -0.181 A  
HETATM   11  C   UNK A   0     -10.814  10.340  69.592  1.00  0.00    -0.271 A  
HETATM   12  I   UNK A   0     -12.468  10.191  71.025  1.00  0.00    -0.514 I  
HETATM   13  C   UNK A   0     -10.586  11.528  68.864  1.00  0.00    -0.236 A  
HETATM   14  I   UNK A   0      -7.450   7.681  68.544  1.00  0.00    -0.109 I  
HETATM   15  C   UNK A   0      -9.291  11.736  68.306  1.00  0.00    -0.193 A  
HETATM   16  I   UNK A   0      -8.708  13.813  67.956  1.00  0.00    -0.200 I  
HETATM   17  C   UNK A   0      -8.680   9.442  68.799  1.00  0.00    -0.131 A  
HETATM   18  C   UNK A   0      -8.317  10.695  68.251  1.00  0.00    -0.122 A  
BRANCH  13  19
HETATM   19  C   UNK A   0     -11.672  12.513  68.564  1.00  0.00    -0.324 C  
HETATM   20  O   UNK A   0     -11.924  12.765  67.272  1.00  0.00    -0.369 OA 
HETATM   21  H   UNK A   0     -12.613  13.390  67.082  1.00  0.00     0.000 HD 
BRANCH  19  22
ATOM     22  N   SER A   1     -12.359  13.098  69.482  1.00  0.00    -0.126 NA 
ATOM     23  H   SER A   1     -13.346  12.882  69.620  1.00  0.00     0.000 HD 
BRANCH  22  24
ATOM     24  CA  SER A   1     -11.666  14.101  70.338  1.00  0.00    -0.243 C  
BRANCH  24  25
ATOM     25  C   SER A   1     -12.494  14.243  71.628  1.00  0.00    -0.339 C  
ATOM     26  H   SER A   1     -13.379  15.692  72.624  1.00  0.00     0.000 HD 
ATOM     27  O   SER A   1     -12.868  15.604  71.827  1.00  0.00    -0.407 OA 
ENDBRANCH  24  25
BRANCH  24  28
ATOM     28  CB  SER A   1     -11.573  15.490  69.671  1.00  0.00    -0.348 C  
ATOM     29  OG  SER A   1     -12.525  15.705  68.631  1.00  0.00    -0.483 OA 
ATOM     30  HG  SER A   1     -12.467  16.560  68.221  1.00  0.00     0.000 HD 
ENDBRANCH  24  28
ENDBRANCH  22  24
ENDBRANCH  19  22
ENDBRANCH  13  19
BRANCH  18  31
HETATM   31  C   UNK A   0      -6.943  10.959  67.686  1.00  0.00    -0.082 C  
HETATM   32  H   UNK A   0      -5.988  11.061  65.987  1.00  0.00     0.000 HD 
HETATM   33  O   UNK A   0      -6.853  10.895  66.343  1.00  0.00    -0.125 OA 
BRANCH  31  34
ATOM     34  N   SER A   1      -5.888  11.172  68.395  1.00  0.00    -0.043 NA 
ATOM     35  H   SER A   1      -4.953  11.089  67.994  1.00  0.00     0.000 HD 
BRANCH  34  36
ATOM     36  CA  SER A   1      -6.089  11.545  69.828  1.00  0.00    -0.128 C  
BRANCH  36  37
ATOM     37  CB  SER A   1      -5.475  10.441  70.694  1.00  0.00    -0.081 C  
ATOM     38  HG  SER A   1      -6.081   9.206  72.104  1.00  0.00     0.000 HD 
ATOM     39  OG  SER A   1      -6.462   9.891  71.567  1.00  0.00    -0.317 OA 
ENDBRANCH  36  37
BRANCH  36  40
ATOM     40  C   SER A   1      -5.393  12.891  70.106  1.00  0.00    -0.112 C  
ATOM     41  H   SER A   1      -5.652  14.437  71.303  1.00  0.00     0.000 HD 
ATOM     42  O   SER A   1      -6.080  13.607  71.131  1.00  0.00    -0.190 OA 
ENDBRANCH  36  40
ENDBRANCH  34  36
ENDBRANCH  31  34
ENDBRANCH  18  31
ENDBRANCH   8  10
ENDBRANCH   5   8
ENDBRANCH   1   5
TORSDOF 13
ENDMDL
MODEL       96
REMARK 921   NORMALIZED FREE ENERGY PREDICTED BY IDOCK:   -4.14 KCAL/MOL
REMARK 922        TOTAL FREE ENERGY PREDICTED BY IDOCK:   -8.22 KCAL/MOL
REMARK 923 INTER-LIGAND FREE ENERGY PREDICTED BY IDOCK:   -7.30 KCAL/MOL
REMARK 924 INTRA-LIGAND FREE ENERGY PREDICTED BY IDOCK:   -0.92 KCAL/MOL
REMARK 927      BINDING AFFINITY PREDICTED BY RF-SCORE:    0.00 PKD
ROOT
HETATM    1  C   UNK A   0     -13.227  10.188  70.658  1.00  0.00    -0.138 C  
HETATM    2  O   UNK A   0     -13.323   8.784  70.957  1.00  0.00    -0.532 OA 
HETATM    3  C   UNK A   0     -13.245  10.969  71.953  1.00  0.00    -0.503 C  
HETATM    4  H   UNK A   0     -13.312   8.294  70.144  1.00  0.00     0.000 HD 
ENDROOT
BRANCH   1   5
HETATM    5  C   UNK A   0     -11.903  10.396  69.943  1.00  0.00    -0.238 C  
HETATM    6  O   UNK A   0     -10.834  10.253  70.760  1.00  0.00    -0.385 OA 
HETATM    7  H   UNK A   0     -10.006  10.383  70.313  1.00  0.00     0.000 HD 
BRANCH   5   8
HETATM    8  N   UNK A   0     -11.811  10.630  68.675  1.00  0.00    -0.708 NA 
HETATM    9  H   UNK A   0     -12.600  10.438  68.059  1.00  0.00     0.000 HD 
BRANCH   8  10
HETATM   10  C   UNK A   0     -10.595  11.158  68.143  1.00  0.00    -0.193 A  
HETATM   11  C   UNK A   0     -10.335  12.548  68.108  1.00  0.00    -0.232 A  
HETATM   12  I   UNK A   0     -11.818  13.887  69.014  1.00  0.00    -0.349 I  
HETATM   13  C   UNK A   0      -9.092  13.040  67.654  1.00  0.00    -0.198 A  
HETATM   14  I   UNK A   0     -10.100   8.170  67.599  1.00  0.00    -0.319 I  
HETATM   15  C   UNK A   0      -8.020  12.114  67.496  1.00  0.00    -0.163 A  
HETATM   16  I   UNK A   0      -6.000  12.935  67.629  1.00  0.00    -0.013 I  
HETATM   17  C   UNK A   0      -9.549  10.254  67.782  1.00  0.00    -0.152 A  
HETATM   18  C   UNK A   0      -8.228  10.703  67.544  1.00  0.00    -0.111 A  
BRANCH  13  19
HETATM   19  C   UNK A   0      -8.891  14.462  67.229  1.00  0.00    -0.213 C  
HETATM   20  O   UNK A   0      -8.919  14.711  65.913  1.00  0.00    -0.472 OA 
HETATM   21  H   UNK A   0      -8.791  15.614  65.644  1.00  0.00     0.000 HD 
BRANCH  19  22
ATOM     22  N   SER A   1      -8.710  15.422  68.067  1.00  0.00    -0.159 NA 
ATOM     23  H   SER A   1      -8.668  15.245  69.070  1.00  0.00     0.000 HD 
BRANCH  22  24
ATOM     24  CA  SER A   1      -8.563  16.801  67.523  1.00  0.00    -0.194 C  
BRANCH  24  25
ATOM     25  C   SER A   1      -7.815  17.628  68.586  1.00  0.00    -0.280 C  
ATOM     26  H   SER A   1      -6.398  17.324  69.917  1.00  0.00     0.000 HD 
ATOM     27  O   SER A   1      -6.859  16.814  69.261  1.00  0.00    -0.218 OA 
ENDBRANCH  24  25
BRANCH  24  28
ATOM     28  CB  SER A   1      -9.921  17.482  67.253  1.00  0.00    -0.312 C  
ATOM     29  OG  SER A   1     -10.400  17.324  65.919  1.00  0.00    -0.461 OA 
ATOM     30  HG  SER A   1     -11.236  17.744  65.752  1.00  0.00     0.000 HD 
ENDBRANCH  24  28
ENDBRANCH  22  24
ENDBRANCH  19  22
ENDBRANCH  13  19
BRANCH  18  31
HETATM   31  C   UNK A   0      -7.066   9.750  67.408  1.00  0.00    -0.085 C  
HETATM   32  H   UNK A   0      -6.168   8.620  66.096  1.00  0.00     0.000 HD 
HETATM   33  O   UNK A   0      -6.900   9.220  66.182  1.00  0.00    -0.082 OA 
BRANCH  31  34
ATOM     34  N   SER A   1      -6.298   9.389  68.379  1.00  0.00    -0.053 NA 
ATOM     35  H   SER A   1      -5.346   9.746  68.461  1.00  0.00     0.000 HD 
BRANCH  34  36
ATOM     36  CA  SER A   1      -6.859   8.429  69.377  1.00  0.00    -0.046 C  
BRANCH  36  37
ATOM     37  CB  SER A   1      -5.755   7.433  69.745  1.00  0.00    -0.023 C  
ATOM     38  HG  SER A   1      -5.362   6.194  71.226  1.00  0.00     0.000 HD 
ATOM     39  OG  SER A   1      -6.047   6.812  70.997  1.00  0.00    -0.034 OA 
ENDBRANCH  36  37
BRANCH  36  40
ATOM     40  C   SER A   1      -7.319   9.204  70.626  1.00  0.00    -0.111 C  
ATOM     41  H   SER A   1      -6.782  10.831  71.602  1.00  0.00     0.000 HD 
ATOM     42  O   SER A   1      -6.498  10.353  70.832  1.00  0.00    -0.327 OA 
ENDBRANCH  36  40
ENDBRANCH  34  36
ENDBRANCH  31  34
ENDBRANCH  18  31
ENDBRANCH   8  10
ENDBRANCH   5   8
ENDBRANCH   1   5
TORSDOF 13
ENDMDL
MODEL       97
REMARK 921   NORMALIZED FREE ENERGY PREDICTED BY IDOCK:   -4.12 KCAL/MOL
REMARK 922        TOTAL FREE ENERGY PREDICTED BY IDOCK:   -8.19 KCAL/MOL
REMARK 923 INTER-LIGAND FREE ENERGY PREDICTED BY IDOCK:   -7.14 KCAL/MOL
REMARK 924 INTRA-LIGAND FREE ENERGY PREDICTED BY IDOCK:   -1.05 KCAL/MOL
REMARK 927      BINDING AFFINITY PREDICTED BY RF-SCORE:    0.00 PKD
ROOT
HETATM    1  C   UNK A   0      -7.402   7.132  64.867  1.00  0.00    -0.084 C  
HETATM    2  O   UNK A   0      -8.563   7.197  64.020  1.00  0.00    -0.333 OA 
HETATM    3  C   UNK A   0      -6.411   8.184  64.424  1.00  0.00    -0.065 C  
HETATM    4  H   UNK A   0      -9.185   6.535  64.298  1.00  0.00     0.000 HD 
ENDROOT
BRANCH   1   5
HETATM    5  C   UNK A   0      -7.873   7.421  66.282  1.00  0.00    -0.106 C  
HETATM    6  O   UNK A   0      -8.671   6.449  66.781  1.00  0.00    -0.114 OA 
HETATM    7  H   UNK A   0      -8.966   6.630  67.666  1.00  0.00     0.000 HD 
BRANCH   5   8
HETATM    8  N   UNK A   0      -7.504   8.461  66.954  1.00  0.00    -0.086 NA 
HETATM    9  H   UNK A   0      -6.604   8.902  66.764  1.00  0.00     0.000 HD 
BRANCH   8  10
HETATM   10  C   UNK A   0      -8.363   8.988  67.966  1.00  0.00    -0.117 A  
HETATM   11  C   UNK A   0      -9.399   9.904  67.665  1.00  0.00    -0.140 A  
HETATM   12  I   UNK A   0      -9.734  10.411  65.557  1.00  0.00    -0.366 I  
HETATM   13  C   UNK A   0     -10.287  10.346  68.669  1.00  0.00    -0.202 A  
HETATM   14  I   UNK A   0      -6.518   7.282  69.742  1.00  0.00    -0.037 I  
HETATM   15  C   UNK A   0     -10.294   9.650  69.914  1.00  0.00    -0.249 A  
HETATM   16  I   UNK A   0     -12.142   9.756  71.075  1.00  0.00    -0.453 I  
HETATM   17  C   UNK A   0      -8.278   8.458  69.289  1.00  0.00    -0.116 A  
HETATM   18  C   UNK A   0      -9.284   8.702  70.254  1.00  0.00    -0.178 A  
BRANCH  13  19
HETATM   19  C   UNK A   0     -11.132  11.573  68.520  1.00  0.00    -0.236 C  
HETATM   20  O   UNK A   0     -12.260  11.450  67.807  1.00  0.00    -0.537 OA 
HETATM   21  H   UNK A   0     -12.796  12.229  67.713  1.00  0.00     0.000 HD 
BRANCH  19  22
ATOM     22  N   SER A   1     -10.822  12.703  69.051  1.00  0.00    -0.393 NA 
ATOM     23  H   SER A   1      -9.969  12.811  69.599  1.00  0.00     0.000 HD 
BRANCH  22  24
ATOM     24  CA  SER A   1     -11.750  13.849  68.840  1.00  0.00    -0.337 C  
BRANCH  24  25
ATOM     25  C   SER A   1     -11.102  14.765  67.785  1.00  0.00    -0.299 C  
ATOM     26  H   SER A   1     -10.900  16.699  67.481  1.00  0.00     0.000 HD 
ATOM     27  O   SER A   1     -11.299  16.134  68.132  1.00  0.00    -0.340 OA 
ENDBRANCH  24  25
BRANCH  24  28
ATOM     28  CB  SER A   1     -11.975  14.677  70.123  1.00  0.00    -0.313 C  
ATOM     29  OG  SER A   1     -12.019  13.903  71.320  1.00  0.00    -0.440 OA 
ATOM     30  HG  SER A   1     -12.158  14.413  72.109  1.00  0.00     0.000 HD 
ENDBRANCH  24  28
ENDBRANCH  22  24
ENDBRANCH  19  22
ENDBRANCH  13  19
BRANCH  18  31
HETATM   31  C   UNK A   0      -9.340   7.957  71.565  1.00  0.00    -0.143 C  
HETATM   32  H   UNK A   0      -8.844   8.138  73.443  1.00  0.00     0.000 HD 
HETATM   33  O   UNK A   0      -8.809   8.607  72.618  1.00  0.00    -0.371 OA 
BRANCH  31  34
ATOM     34  N   SER A   1      -9.796   6.759  71.707  1.00  0.00    -0.165 NA 
ATOM     35  H   SER A   1     -10.244   6.267  70.934  1.00  0.00     0.000 HD 
BRANCH  34  36
ATOM     36  CA  SER A   1      -9.640   6.121  73.050  1.00  0.00    -0.150 C  
BRANCH  36  37
ATOM     37  CB  SER A   1     -10.965   5.442  73.406  1.00  0.00    -0.297 C  
ATOM     38  HG  SER A   1     -12.831   5.495  72.776  1.00  0.00     0.000 HD 
ATOM     39  OG  SER A   1     -12.009   5.916  72.555  1.00  0.00    -0.274 OA 
ENDBRANCH  36  37
BRANCH  36  40
ATOM     40  C   SER A   1      -8.505   5.081  72.990  1.00  0.00    -0.111 C  
ATOM     41  H   SER A   1      -6.543   5.064  73.185  1.00  0.00     0.000 HD 
ATOM     42  O   SER A   1      -7.243   5.705  73.221  1.00  0.00    -0.084 OA 
ENDBRANCH  36  40
ENDBRANCH  34  36
ENDBRANCH  31  34
ENDBRANCH  18  31
ENDBRANCH   8  10
ENDBRANCH   5   8
ENDBRANCH   1   5
TORSDOF 13
ENDMDL
MODEL       98
REMARK 921   NORMALIZED FREE ENERGY PREDICTED BY IDOCK:   -4.10 KCAL/MOL
REMARK 922        TOTAL FREE ENERGY PREDICTED BY IDOCK:   -8.15 KCAL/MOL
REMARK 923 INTER-LIGAND FREE ENERGY PREDICTED BY IDOCK:   -7.72 KCAL/MOL
REMARK 924 INTRA-LIGAND FREE ENERGY PREDICTED BY IDOCK:   -0.43 KCAL/MOL
REMARK 927      BINDING AFFINITY PREDICTED BY RF-SCORE:    0.00 PKD
ROOT
HETATM    1  C   UNK A   0      -7.917  17.035  68.635  1.00  0.00    -0.258 C  
HETATM    2  O   UNK A   0      -6.881  17.852  69.210  1.00  0.00    -0.250 OA 
HETATM    3  C   UNK A   0      -9.189  17.848  68.542  1.00  0.00    -0.288 C  
HETATM    4  H   UNK A   0      -6.083  17.341  69.269  1.00  0.00     0.000 HD 
ENDROOT
BRANCH   1   5
HETATM    5  C   UNK A   0      -7.446  16.642  67.245  1.00  0.00    -0.166 C  
HETATM    6  O   UNK A   0      -7.332  17.700  66.409  1.00  0.00    -0.235 OA 
HETATM    7  H   UNK A   0      -7.038  17.454  65.539  1.00  0.00     0.000 HD 
BRANCH   5   8
HETATM    8  N   UNK A   0      -7.136  15.432  66.917  1.00  0.00    -0.275 NA 
HETATM    9  H   UNK A   0      -6.347  15.254  66.296  1.00  0.00     0.000 HD 
BRANCH   8  10
HETATM   10  C   UNK A   0      -7.907  14.343  67.429  1.00  0.00    -0.190 A  
HETATM   11  C   UNK A   0      -9.251  14.131  67.042  1.00  0.00    -0.239 A  
HETATM   12  I   UNK A   0     -10.099  15.465  65.521  1.00  0.00    -0.308 I  
HETATM   13  C   UNK A   0      -9.964  13.001  67.497  1.00  0.00    -0.212 A  
HETATM   14  I   UNK A   0      -5.305  13.873  69.003  1.00  0.00    -0.089 I  
HETATM   15  C   UNK A   0      -9.231  11.950  68.121  1.00  0.00    -0.187 A  
HETATM   16  I   UNK A   0     -10.131   9.960  68.044  1.00  0.00    -0.253 I  
HETATM   17  C   UNK A   0      -7.258  13.354  68.229  1.00  0.00    -0.111 A  
HETATM   18  C   UNK A   0      -7.867  12.108  68.510  1.00  0.00    -0.122 A  
BRANCH  13  19
HETATM   19  C   UNK A   0     -11.458  12.916  67.453  1.00  0.00    -0.336 C  
HETATM   20  O   UNK A   0     -12.132  13.566  68.412  1.00  0.00    -0.352 OA 
HETATM   21  H   UNK A   0     -13.080  13.512  68.383  1.00  0.00     0.000 HD 
BRANCH  19  22
ATOM     22  N   SER A   1     -12.095  12.267  66.542  1.00  0.00    -0.599 NA 
ATOM     23  H   SER A   1     -12.858  11.634  66.782  1.00  0.00     0.000 HD 
BRANCH  22  24
ATOM     24  CA  SER A   1     -11.680  12.468  65.125  1.00  0.00    -0.378 C  
BRANCH  24  25
ATOM     25  C   SER A   1     -12.969  12.592  64.292  1.00  0.00    -0.156 C  
ATOM     26  H   SER A   1     -13.519  13.432  62.599  1.00  0.00     0.000 HD 
ATOM     27  O   SER A   1     -12.723  13.355  63.113  1.00  0.00    -0.663 OA 
ENDBRANCH  24  25
BRANCH  24  28
ATOM     28  CB  SER A   1     -10.861  11.285  64.571  1.00  0.00    -0.284 C  
ATOM     29  OG  SER A   1      -9.518  11.616  64.220  1.00  0.00    -0.400 OA 
ATOM     30  HG  SER A   1      -9.014  10.887  63.878  1.00  0.00     0.000 HD 
ENDBRANCH  24  28
ENDBRANCH  22  24
ENDBRANCH  19  22
ENDBRANCH  13  19
BRANCH  18  31
HETATM   31  C   UNK A   0      -7.109  10.964  69.136  1.00  0.00    -0.109 C  
HETATM   32  H   UNK A   0      -5.788   9.595  68.704  1.00  0.00     0.000 HD 
HETATM   33  O   UNK A   0      -6.265  10.316  68.310  1.00  0.00    -0.048 OA 
BRANCH  31  34
ATOM     34  N   SER A   1      -7.267  10.557  70.349  1.00  0.00    -0.467 NA 
ATOM     35  H   SER A   1      -7.433  11.214  71.111  1.00  0.00     0.000 HD 
BRANCH  34  36
ATOM     36  CA  SER A   1      -7.199   9.084  70.593  1.00  0.00    -0.093 C  
BRANCH  36  37
ATOM     37  CB  SER A   1      -6.067   8.823  71.590  1.00  0.00    -0.062 C  
ATOM     38  HG  SER A   1      -5.240   9.758  73.115  1.00  0.00     0.000 HD 
ATOM     39  OG  SER A   1      -5.942   9.919  72.496  1.00  0.00    -0.262 OA 
ENDBRANCH  36  37
BRANCH  36  40
ATOM     40  C   SER A   1      -8.542   8.600  71.170  1.00  0.00    -0.181 C  
ATOM     41  H   SER A   1      -9.582   6.926  71.216  1.00  0.00     0.000 HD 
ATOM     42  O   SER A   1      -8.754   7.224  70.860  1.00  0.00    -0.145 OA 
ENDBRANCH  36  40
ENDBRANCH  34  36
ENDBRANCH  31  34
ENDBRANCH  18  31
ENDBRANCH   8  10
ENDBRANCH   5   8
ENDBRANCH   1   5
TORSDOF 13
ENDMDL
MODEL       99
REMARK 921   NORMALIZED FREE ENERGY PREDICTED BY IDOCK:   -4.06 KCAL/MOL
REMARK 922        TOTAL FREE ENERGY PREDICTED BY IDOCK:   -8.07 KCAL/MOL
REMARK 923 INTER-LIGAND FREE ENERGY PREDICTED BY IDOCK:   -7.30 KCAL/MOL
REMARK 924 INTRA-LIGAND FREE ENERGY PREDICTED BY IDOCK:   -0.77 KCAL/MOL
REMARK 927      BINDING AFFINITY PREDICTED BY RF-SCORE:    0.00 PKD
ROOT
HETATM    1  C   UNK A   0      -6.167   8.808  63.439  1.00  0.00    -0.085 C  
HETATM    2  O   UNK A   0      -5.125   8.466  64.370  1.00  0.00    -0.035 OA 
HETATM    3  C   UNK A   0      -6.633   7.550  62.740  1.00  0.00    -0.070 C  
HETATM    4  H   UNK A   0      -4.832   9.256  64.808  1.00  0.00     0.000 HD 
ENDROOT
BRANCH   1   5
HETATM    5  C   UNK A   0      -7.304   9.405  64.251  1.00  0.00    -0.109 C  
HETATM    6  O   UNK A   0      -6.934  10.503  64.948  1.00  0.00    -0.304 OA 
HETATM    7  H   UNK A   0      -7.644  10.877  65.456  1.00  0.00     0.000 HD 
BRANCH   5   8
HETATM    8  N   UNK A   0      -8.510   8.941  64.231  1.00  0.00    -0.269 NA 
HETATM    9  H   UNK A   0      -8.848   8.424  63.419  1.00  0.00     0.000 HD 
BRANCH   8  10
HETATM   10  C   UNK A   0      -9.367   9.157  65.354  1.00  0.00    -0.191 A  
HETATM   11  C   UNK A   0      -9.395   8.271  66.456  1.00  0.00    -0.206 A  
HETATM   12  I   UNK A   0      -7.982   6.592  66.452  1.00  0.00    -0.119 I  
HETATM   13  C   UNK A   0     -10.188   8.551  67.589  1.00  0.00    -0.297 A  
HETATM   14  I   UNK A   0     -10.226  11.552  63.622  1.00  0.00    -0.543 I  
HETATM   15  C   UNK A   0     -10.737   9.860  67.718  1.00  0.00    -0.277 A  
HETATM   16  I   UNK A   0     -11.201  10.523  69.747  1.00  0.00    -0.405 I  
HETATM   17  C   UNK A   0     -10.097  10.382  65.438  1.00  0.00    -0.284 A  
HETATM   18  C   UNK A   0     -10.714  10.798  66.642  1.00  0.00    -0.268 A  
BRANCH  13  19
HETATM   19  C   UNK A   0     -10.565   7.505  68.592  1.00  0.00    -0.142 C  
HETATM   20  O   UNK A   0     -11.682   6.806  68.349  1.00  0.00    -0.333 OA 
HETATM   21  H   UNK A   0     -11.920   6.142  68.986  1.00  0.00     0.000 HD 
BRANCH  19  22
ATOM     22  N   SER A   1      -9.861   7.258  69.641  1.00  0.00    -0.163 NA 
ATOM     23  H   SER A   1      -9.084   7.862  69.908  1.00  0.00     0.000 HD 
BRANCH  22  24
ATOM     24  CA  SER A   1     -10.218   6.061  70.452  1.00  0.00    -0.204 C  
BRANCH  24  25
ATOM     25  C   SER A   1     -10.954   6.568  71.706  1.00  0.00    -0.247 C  
ATOM     26  H   SER A   1     -12.816   6.724  72.324  1.00  0.00     0.000 HD 
ATOM     27  O   SER A   1     -12.363   6.410  71.550  1.00  0.00    -0.281 OA 
ENDBRANCH  24  25
BRANCH  24  28
ATOM     28  CB  SER A   1      -8.981   5.262  70.911  1.00  0.00    -0.137 C  
ATOM     29  OG  SER A   1      -8.854   5.141  72.327  1.00  0.00    -0.127 OA 
ATOM     30  HG  SER A   1      -8.092   4.649  72.609  1.00  0.00     0.000 HD 
ENDBRANCH  24  28
ENDBRANCH  22  24
ENDBRANCH  19  22
ENDBRANCH  13  19
BRANCH  18  31
HETATM   31  C   UNK A   0     -11.272  12.188  66.823  1.00  0.00    -0.322 C  
HETATM   32  H   UNK A   0     -12.785  13.302  66.298  1.00  0.00     0.000 HD 
HETATM   33  O   UNK A   0     -12.433  12.427  66.185  1.00  0.00    -0.507 OA 
BRANCH  31  34
ATOM     34  N   SER A   1     -10.687  13.132  67.477  1.00  0.00    -0.237 NA 
ATOM     35  H   SER A   1     -10.807  13.231  68.485  1.00  0.00     0.000 HD 
BRANCH  34  36
ATOM     36  CA  SER A   1      -9.826  14.075  66.700  1.00  0.00    -0.284 C  
BRANCH  36  37
ATOM     37  CB  SER A   1     -10.369  15.491  66.908  1.00  0.00    -0.290 C  
ATOM     38  HG  SER A   1      -9.722  17.190  67.667  1.00  0.00     0.000 HD 
ATOM     39  OG  SER A   1      -9.385  16.312  67.537  1.00  0.00    -0.215 OA 
ENDBRANCH  36  37
BRANCH  36  40
ATOM     40  C   SER A   1      -8.376  13.978  67.211  1.00  0.00    -0.194 C  
ATOM     41  H   SER A   1      -7.422  13.136  68.718  1.00  0.00     0.000 HD 
ATOM     42  O   SER A   1      -8.316  13.196  68.403  1.00  0.00    -0.157 OA 
ENDBRANCH  36  40
ENDBRANCH  34  36
ENDBRANCH  31  34
ENDBRANCH  18  31
ENDBRANCH   8  10
ENDBRANCH   5   8
ENDBRANCH   1   5
TORSDOF 13
ENDMDL
MODEL      100
REMARK 921   NORMALIZED FREE ENERGY PREDICTED BY IDOCK:   -4.05 KCAL/MOL
REMARK 922        TOTAL FREE ENERGY PREDICTED BY IDOCK:   -8.05 KCAL/MOL
REMARK 923 INTER-LIGAND FREE ENERGY PREDICTED BY IDOCK:   -6.88 KCAL/MOL
REMARK 924 INTRA-LIGAND FREE ENERGY PREDICTED BY IDOCK:   -1.18 KCAL/MOL
REMARK 927      BINDING AFFINITY PREDICTED BY RF-SCORE:    0.00 PKD
ROOT
HETATM    1  C   UNK A   0     -12.354   8.020  71.991  1.00  0.00    -0.326 C  
HETATM    2  O   UNK A   0     -11.692   7.601  73.198  1.00  0.00    -0.615 OA 
HETATM    3  C   UNK A   0     -13.439   9.012  72.345  1.00  0.00    -0.524 C  
HETATM    4  H   UNK A   0     -11.010   6.978  72.976  1.00  0.00     0.000 HD 
ENDROOT
BRANCH   1   5
HETATM    5  C   UNK A   0     -11.302   8.687  71.121  1.00  0.00    -0.275 C  
HETATM    6  O   UNK A   0     -10.232   9.121  71.827  1.00  0.00    -0.338 OA 
HETATM    7  H   UNK A   0      -9.574   9.538  71.283  1.00  0.00     0.000 HD 
BRANCH   5   8
HETATM    8  N   UNK A   0     -11.398   8.778  69.836  1.00  0.00    -0.445 NA 
HETATM    9  H   UNK A   0     -12.144   8.289  69.341  1.00  0.00     0.000 HD 
BRANCH   8  10
HETATM   10  C   UNK A   0     -10.453   9.568  69.112  1.00  0.00    -0.210 A  
HETATM   11  C   UNK A   0     -10.595  10.969  68.978  1.00  0.00    -0.225 A  
HETATM   12  I   UNK A   0     -12.267  11.930  70.024  1.00  0.00    -0.085 I  
HETATM   13  C   UNK A   0      -9.605  11.738  68.330  1.00  0.00    -0.191 A  
HETATM   14  I   UNK A   0      -9.220   6.789  68.640  1.00  0.00    -0.128 I  
HETATM   15  C   UNK A   0      -8.346  11.124  68.063  1.00  0.00    -0.134 A  
HETATM   16  I   UNK A   0      -6.633  12.467  67.870  1.00  0.00    -0.149 I  
HETATM   17  C   UNK A   0      -9.251   8.952  68.648  1.00  0.00    -0.137 A  
HETATM   18  C   UNK A   0      -8.147   9.718  68.204  1.00  0.00    -0.108 A  
BRANCH  13  19
HETATM   19  C   UNK A   0      -9.860  13.121  67.817  1.00  0.00    -0.228 C  
HETATM   20  O   UNK A   0     -10.398  13.225  66.594  1.00  0.00    -0.267 OA 
HETATM   21  H   UNK A   0     -10.561  14.102  66.269  1.00  0.00     0.000 HD 
BRANCH  19  22
ATOM     22  N   SER A   1      -9.598  14.179  68.501  1.00  0.00    -0.220 NA 
ATOM     23  H   SER A   1      -8.741  14.253  69.049  1.00  0.00     0.000 HD 
BRANCH  22  24
ATOM     24  CA  SER A   1     -10.587  15.293  68.466  1.00  0.00    -0.237 C  
BRANCH  24  25
ATOM     25  C   SER A   1     -10.049  16.343  67.477  1.00  0.00    -0.261 C  
ATOM     26  H   SER A   1     -10.356  16.850  65.600  1.00  0.00     0.000 HD 
ATOM     27  O   SER A   1     -10.688  16.202  66.210  1.00  0.00    -0.294 OA 
ENDBRANCH  24  25
BRANCH  24  28
ATOM     28  CB  SER A   1     -10.765  15.974  69.839  1.00  0.00    -0.334 C  
ATOM     29  OG  SER A   1     -10.518  15.118  70.954  1.00  0.00    -0.505 OA 
ATOM     30  HG  SER A   1     -10.628  15.537  71.799  1.00  0.00     0.000 HD 
ENDBRANCH  24  28
ENDBRANCH  22  24
ENDBRANCH  19  22
ENDBRANCH  13  19
BRANCH  18  31
HETATM   31  C   UNK A   0      -6.792   9.105  67.948  1.00  0.00    -0.069 C  
HETATM   32  H   UNK A   0      -5.672   8.438  66.496  1.00  0.00     0.000 HD 
HETATM   33  O   UNK A   0      -6.525   8.824  66.658  1.00  0.00    -0.061 OA 
BRANCH  31  34
ATOM     34  N   SER A   1      -5.942   8.796  68.867  1.00  0.00    -0.043 NA 
ATOM     35  H   SER A   1      -5.085   8.289  68.647  1.00  0.00     0.000 HD 
BRANCH  34  36
ATOM     36  CA  SER A   1      -6.265   9.210  70.267  1.00  0.00    -0.045 C  
BRANCH  36  37
ATOM     37  CB  SER A   1      -6.338   7.946  71.128  1.00  0.00    -0.034 C  
ATOM     38  HG  SER A   1      -5.767   6.065  70.985  1.00  0.00     0.000 HD 
ATOM     39  OG  SER A   1      -5.722   6.850  70.451  1.00  0.00    -0.023 OA 
ENDBRANCH  36  37
BRANCH  36  40
ATOM     40  C   SER A   1      -5.160  10.148  70.787  1.00  0.00    -0.050 C  
ATOM     41  H   SER A   1      -4.800  11.201  72.415  1.00  0.00     0.000 HD 
ATOM     42  O   SER A   1      -5.481  10.623  72.094  1.00  0.00    -0.315 OA 
ENDBRANCH  36  40
ENDBRANCH  34  36
ENDBRANCH  31  34
ENDBRANCH  18  31
ENDBRANCH   8  10
ENDBRANCH   5   8
ENDBRANCH   1   5
TORSDOF 13
ENDMDL
MODEL      101
REMARK 921   NORMALIZED FREE ENERGY PREDICTED BY IDOCK:   -4.04 KCAL/MOL
REMARK 922        TOTAL FREE ENERGY PREDICTED BY IDOCK:   -8.04 KCAL/MOL
REMARK 923 INTER-LIGAND FREE ENERGY PREDICTED BY IDOCK:   -7.11 KCAL/MOL
REMARK 924 INTRA-LIGAND FREE ENERGY PREDICTED BY IDOCK:   -0.92 KCAL/MOL
REMARK 927      BINDING AFFINITY PREDICTED BY RF-SCORE:    0.00 PKD
ROOT
HETATM    1  C   UNK A   0     -12.484   8.073  71.916  1.00  0.00    -0.330 C  
HETATM    2  O   UNK A   0     -11.746   7.899  73.139  1.00  0.00    -0.630 OA 
HETATM    3  C   UNK A   0     -13.708   8.916  72.197  1.00  0.00    -0.527 C  
HETATM    4  H   UNK A   0     -10.977   7.370  72.963  1.00  0.00     0.000 HD 
ENDROOT
BRANCH   1   5
HETATM    5  C   UNK A   0     -11.564   8.796  70.946  1.00  0.00    -0.277 C  
HETATM    6  O   UNK A   0     -10.372   9.124  71.495  1.00  0.00    -0.320 OA 
HETATM    7  H   UNK A   0      -9.797   9.576  70.889  1.00  0.00     0.000 HD 
BRANCH   5   8
HETATM    8  N   UNK A   0     -11.872   9.022  69.712  1.00  0.00    -0.195 NA 
HETATM    9  H   UNK A   0     -12.839   8.937  69.400  1.00  0.00     0.000 HD 
BRANCH   8  10
HETATM   10  C   UNK A   0     -10.848   9.391  68.787  1.00  0.00    -0.114 A  
HETATM   11  C   UNK A   0     -10.645  10.735  68.392  1.00  0.00    -0.197 A  
HETATM   12  I   UNK A   0     -11.884  12.276  69.341  1.00  0.00    -0.221 I  
HETATM   13  C   UNK A   0      -9.574  11.084  67.542  1.00  0.00    -0.178 A  
HETATM   14  I   UNK A   0     -10.425   6.343  68.783  1.00  0.00    -0.384 I  
HETATM   15  C   UNK A   0      -8.552  10.116  67.315  1.00  0.00    -0.125 A  
HETATM   16  I   UNK A   0      -6.589  10.890  66.749  1.00  0.00    -0.138 I  
HETATM   17  C   UNK A   0      -9.904   8.403  68.372  1.00  0.00    -0.176 A  
HETATM   18  C   UNK A   0      -8.701   8.753  67.714  1.00  0.00    -0.136 A  
BRANCH  13  19
HETATM   19  C   UNK A   0      -9.528  12.376  66.787  1.00  0.00    -0.228 C  
HETATM   20  O   UNK A   0      -9.693  12.310  65.459  1.00  0.00    -0.317 OA 
HETATM   21  H   UNK A   0      -9.664  13.130  64.981  1.00  0.00     0.000 HD 
BRANCH  19  22
ATOM     22  N   SER A   1      -9.352  13.514  67.361  1.00  0.00    -0.219 NA 
ATOM     23  H   SER A   1      -9.351  13.597  68.378  1.00  0.00     0.000 HD 
BRANCH  22  24
ATOM     24  CA  SER A   1      -9.150  14.708  66.493  1.00  0.00    -0.237 C  
BRANCH  24  25
ATOM     25  C   SER A   1      -7.858  15.398  66.969  1.00  0.00    -0.209 C  
ATOM     26  H   SER A   1      -6.888  17.068  66.587  1.00  0.00     0.000 HD 
ATOM     27  O   SER A   1      -7.686  16.643  66.294  1.00  0.00    -0.303 OA 
ENDBRANCH  24  25
BRANCH  24  28
ATOM     28  CB  SER A   1     -10.305  15.725  66.601  1.00  0.00    -0.291 C  
ATOM     29  OG  SER A   1     -10.511  16.505  65.425  1.00  0.00    -0.543 OA 
ATOM     30  HG  SER A   1     -11.222  17.131  65.491  1.00  0.00     0.000 HD 
ENDBRANCH  24  28
ENDBRANCH  22  24
ENDBRANCH  19  22
ENDBRANCH  13  19
BRANCH  18  31
HETATM   31  C   UNK A   0      -7.586   7.762  67.491  1.00  0.00    -0.109 C  
HETATM   32  H   UNK A   0      -6.181   6.809  68.452  1.00  0.00     0.000 HD 
HETATM   33  O   UNK A   0      -6.883   7.434  68.592  1.00  0.00    -0.067 OA 
BRANCH  31  34
ATOM     34  N   SER A   1      -7.252   7.281  66.343  1.00  0.00    -0.077 NA 
ATOM     35  H   SER A   1      -6.273   7.148  66.089  1.00  0.00     0.000 HD 
BRANCH  34  36
ATOM     36  CA  SER A   1      -8.356   6.929  65.399  1.00  0.00    -0.119 C  
BRANCH  36  37
ATOM     37  CB  SER A   1      -7.974   7.450  64.010  1.00  0.00    -0.091 C  
ATOM     38  HG  SER A   1      -6.463   8.416  63.195  1.00  0.00     0.000 HD 
ATOM     39  OG  SER A   1      -6.700   8.092  64.056  1.00  0.00    -0.066 OA 
ENDBRANCH  36  37
BRANCH  36  40
ATOM     40  C   SER A   1      -8.529   5.399  65.366  1.00  0.00    -0.144 C  
ATOM     41  H   SER A   1      -8.942   4.014  64.025  1.00  0.00     0.000 HD 
ATOM     42  O   SER A   1      -8.836   4.958  64.045  1.00  0.00    -0.141 OA 
ENDBRANCH  36  40
ENDBRANCH  34  36
ENDBRANCH  31  34
ENDBRANCH  18  31
ENDBRANCH   8  10
ENDBRANCH   5   8
ENDBRANCH   1   5
TORSDOF 13
ENDMDL
MODEL      102
REMARK 921   NORMALIZED FREE ENERGY PREDICTED BY IDOCK:   -4.03 KCAL/MOL
REMARK 922        TOTAL FREE ENERGY PREDICTED BY IDOCK:   -8.03 KCAL/MOL
REMARK 923 INTER-LIGAND FREE ENERGY PREDICTED BY IDOCK:   -6.85 KCAL/MOL
REMARK 924 INTRA-LIGAND FREE ENERGY PREDICTED BY IDOCK:   -1.18 KCAL/MOL
REMARK 927      BINDING AFFINITY PREDICTED BY RF-SCORE:    0.00 PKD
ROOT
HETATM    1  C   UNK A   0      -8.213   2.154  68.812  1.00  0.00    -0.055 C  
HETATM    2  O   UNK A   0      -7.875   1.606  70.098  1.00  0.00    -0.042 OA 
HETATM    3  C   UNK A   0      -9.546   1.591  68.373  1.00  0.00    -0.203 C  
HETATM    4  H   UNK A   0      -7.038   1.959  70.374  1.00  0.00     0.000 HD 
ENDROOT
BRANCH   1   5
HETATM    5  C   UNK A   0      -8.315   3.659  68.988  1.00  0.00    -0.068 C  
HETATM    6  O   UNK A   0      -7.114   4.280  68.927  1.00  0.00    -0.050 OA 
HETATM    7  H   UNK A   0      -7.178   5.221  69.037  1.00  0.00     0.000 HD 
BRANCH   5   8
HETATM    8  N   UNK A   0      -9.438   4.283  69.126  1.00  0.00    -0.162 NA 
HETATM    9  H   UNK A   0     -10.298   3.761  69.294  1.00  0.00     0.000 HD 
BRANCH   8  10
HETATM   10  C   UNK A   0      -9.468   5.709  69.041  1.00  0.00    -0.126 A  
HETATM   11  C   UNK A   0      -9.327   6.530  70.185  1.00  0.00    -0.158 A  
HETATM   12  I   UNK A   0      -8.937   5.546  72.106  1.00  0.00    -0.149 I  
HETATM   13  C   UNK A   0      -9.276   7.935  70.064  1.00  0.00    -0.153 A  
HETATM   14  I   UNK A   0      -9.970   5.039  66.080  1.00  0.00    -0.231 I  
HETATM   15  C   UNK A   0      -9.092   8.491  68.764  1.00  0.00    -0.143 A  
HETATM   16  I   UNK A   0      -8.196  10.482  68.678  1.00  0.00    -0.152 I  
HETATM   17  C   UNK A   0      -9.481   6.323  67.752  1.00  0.00    -0.118 A  
HETATM   18  C   UNK A   0      -9.204   7.700  67.582  1.00  0.00    -0.144 A  
BRANCH  13  19
HETATM   19  C   UNK A   0      -9.517   8.856  71.219  1.00  0.00    -0.272 C  
HETATM   20  O   UNK A   0      -8.507   9.024  72.083  1.00  0.00    -0.365 OA 
HETATM   21  H   UNK A   0      -8.660   9.609  72.816  1.00  0.00     0.000 HD 
BRANCH  19  22
ATOM     22  N   SER A   1     -10.628   9.481  71.394  1.00  0.00    -0.309 NA 
ATOM     23  H   SER A   1     -10.648  10.493  71.522  1.00  0.00     0.000 HD 
BRANCH  22  24
ATOM     24  CA  SER A   1     -11.884   8.681  71.403  1.00  0.00    -0.297 C  
BRANCH  24  25
ATOM     25  C   SER A   1     -13.054   9.677  71.511  1.00  0.00    -0.400 C  
ATOM     26  H   SER A   1     -14.762   9.798  72.481  1.00  0.00     0.000 HD 
ATOM     27  O   SER A   1     -14.040   9.183  72.415  1.00  0.00    -0.465 OA 
ENDBRANCH  24  25
BRANCH  24  28
ATOM     28  CB  SER A   1     -11.965   7.713  72.602  1.00  0.00    -0.159 C  
ATOM     29  OG  SER A   1     -12.644   6.490  72.323  1.00  0.00    -0.543 OA 
ATOM     30  HG  SER A   1     -12.694   5.895  73.062  1.00  0.00     0.000 HD 
ENDBRANCH  24  28
ENDBRANCH  22  24
ENDBRANCH  19  22
ENDBRANCH  13  19
BRANCH  18  31
HETATM   31  C   UNK A   0      -8.969   8.313  66.223  1.00  0.00    -0.183 C  
HETATM   32  H   UNK A   0      -7.560   8.596  64.902  1.00  0.00     0.000 HD 
HETATM   33  O   UNK A   0      -7.709   8.210  65.758  1.00  0.00    -0.086 OA 
BRANCH  31  34
ATOM     34  N   SER A   1      -9.859   8.952  65.544  1.00  0.00    -0.415 NA 
ATOM     35  H   SER A   1     -10.811   8.597  65.451  1.00  0.00     0.000 HD 
BRANCH  34  36
ATOM     36  CA  SER A   1      -9.440  10.233  64.898  1.00  0.00    -0.279 C  
BRANCH  36  37
ATOM     37  CB  SER A   1      -9.254   9.969  63.402  1.00  0.00    -0.281 C  
ATOM     38  HG  SER A   1      -8.880  11.028  61.783  1.00  0.00     0.000 HD 
ATOM     39  OG  SER A   1      -8.995  11.192  62.711  1.00  0.00    -0.294 OA 
ENDBRANCH  36  37
BRANCH  36  40
ATOM     40  C   SER A   1     -10.531  11.297  65.123  1.00  0.00    -0.291 C  
ATOM     41  H   SER A   1     -10.630  13.162  65.755  1.00  0.00     0.000 HD 
ATOM     42  O   SER A   1      -9.957  12.506  65.617  1.00  0.00    -0.259 OA 
ENDBRANCH  36  40
ENDBRANCH  34  36
ENDBRANCH  31  34
ENDBRANCH  18  31
ENDBRANCH   8  10
ENDBRANCH   5   8
ENDBRANCH   1   5
TORSDOF 13
ENDMDL
MODEL      103
REMARK 921   NORMALIZED FREE ENERGY PREDICTED BY IDOCK:   -4.00 KCAL/MOL
REMARK 922        TOTAL FREE ENERGY PREDICTED BY IDOCK:   -7.98 KCAL/MOL
REMARK 923 INTER-LIGAND FREE ENERGY PREDICTED BY IDOCK:   -7.47 KCAL/MOL
REMARK 924 INTRA-LIGAND FREE ENERGY PREDICTED BY IDOCK:   -0.51 KCAL/MOL
REMARK 927      BINDING AFFINITY PREDICTED BY RF-SCORE:    0.00 PKD
ROOT
HETATM    1  C   UNK A   0      -6.048   7.086  64.043  1.00  0.00    -0.036 C  
HETATM    2  O   UNK A   0      -5.155   6.428  64.959  1.00  0.00    -0.016 OA 
HETATM    3  C   UNK A   0      -6.794   6.038  63.247  1.00  0.00    -0.044 C  
HETATM    4  H   UNK A   0      -4.687   7.087  65.459  1.00  0.00     0.000 HD 
ENDROOT
BRANCH   1   5
HETATM    5  C   UNK A   0      -7.023   7.895  64.882  1.00  0.00    -0.059 C  
HETATM    6  O   UNK A   0      -6.411   8.822  65.654  1.00  0.00    -0.055 OA 
HETATM    7  H   UNK A   0      -7.020   9.328  66.179  1.00  0.00     0.000 HD 
BRANCH   5   8
HETATM    8  N   UNK A   0      -8.305   7.746  64.820  1.00  0.00    -0.326 NA 
HETATM    9  H   UNK A   0      -8.737   7.359  63.982  1.00  0.00     0.000 HD 
BRANCH   8  10
HETATM   10  C   UNK A   0      -9.113   8.129  65.934  1.00  0.00    -0.130 A  
HETATM   11  C   UNK A   0      -9.259   7.302  67.073  1.00  0.00    -0.145 A  
HETATM   12  I   UNK A   0      -8.101   5.440  67.136  1.00  0.00    -0.098 I  
HETATM   13  C   UNK A   0      -9.995   7.739  68.194  1.00  0.00    -0.207 A  
HETATM   14  I   UNK A   0      -9.635  10.549  64.106  1.00  0.00    -0.365 I  
HETATM   15  C   UNK A   0     -10.350   9.118  68.269  1.00  0.00    -0.214 A  
HETATM   16  I   UNK A   0     -10.699   9.923  70.271  1.00  0.00    -0.335 I  
HETATM   17  C   UNK A   0      -9.660   9.448  65.969  1.00  0.00    -0.261 A  
HETATM   18  C   UNK A   0     -10.202   9.997  67.155  1.00  0.00    -0.284 A  
BRANCH  13  19
HETATM   19  C   UNK A   0     -10.509   6.801  69.241  1.00  0.00    -0.215 C  
HETATM   20  O   UNK A   0     -11.829   6.568  69.253  1.00  0.00    -0.608 OA 
HETATM   21  H   UNK A   0     -12.155   5.972  69.917  1.00  0.00     0.000 HD 
BRANCH  19  22
ATOM     22  N   SER A   1      -9.742   6.219  70.095  1.00  0.00    -0.162 NA 
ATOM     23  H   SER A   1      -8.765   6.025  69.879  1.00  0.00     0.000 HD 
BRANCH  22  24
ATOM     24  CA  SER A   1     -10.328   5.838  71.411  1.00  0.00    -0.224 C  
BRANCH  24  25
ATOM     25  C   SER A   1     -10.055   7.002  72.381  1.00  0.00    -0.174 C  
ATOM     26  H   SER A   1     -10.678   7.578  74.157  1.00  0.00     0.000 HD 
ATOM     27  O   SER A   1     -10.846   6.860  73.558  1.00  0.00    -0.315 OA 
ENDBRANCH  24  25
BRANCH  24  28
ATOM     28  CB  SER A   1      -9.691   4.562  71.999  1.00  0.00    -0.170 C  
ATOM     29  OG  SER A   1     -10.599   3.474  72.160  1.00  0.00    -0.006 OA 
ATOM     30  HG  SER A   1     -10.206   2.688  72.523  1.00  0.00     0.000 HD 
ENDBRANCH  24  28
ENDBRANCH  22  24
ENDBRANCH  19  22
ENDBRANCH  13  19
BRANCH  18  31
HETATM   31  C   UNK A   0     -10.553  11.459  67.279  1.00  0.00    -0.227 C  
HETATM   32  H   UNK A   0      -9.807  13.161  67.873  1.00  0.00     0.000 HD 
HETATM   33  O   UNK A   0      -9.586  12.240  67.796  1.00  0.00    -0.189 OA 
BRANCH  31  34
ATOM     34  N   SER A   1     -11.703  11.963  66.983  1.00  0.00    -0.589 NA 
ATOM     35  H   SER A   1     -12.570  11.517  67.282  1.00  0.00     0.000 HD 
BRANCH  34  36
ATOM     36  CA  SER A   1     -11.713  13.228  66.187  1.00  0.00    -0.374 C  
BRANCH  36  37
ATOM     37  CB  SER A   1     -12.872  13.148  65.190  1.00  0.00    -0.300 C  
ATOM     38  HG  SER A   1     -13.622  14.268  63.752  1.00  0.00     0.000 HD 
ATOM     39  OG  SER A   1     -12.902  14.317  64.370  1.00  0.00    -0.619 OA 
ENDBRANCH  36  37
BRANCH  36  40
ATOM     40  C   SER A   1     -11.905  14.426  67.136  1.00  0.00    -0.410 C  
ATOM     41  H   SER A   1     -10.962  16.105  67.560  1.00  0.00     0.000 HD 
ATOM     42  O   SER A   1     -10.844  15.367  66.975  1.00  0.00    -0.315 OA 
ENDBRANCH  36  40
ENDBRANCH  34  36
ENDBRANCH  31  34
ENDBRANCH  18  31
ENDBRANCH   8  10
ENDBRANCH   5   8
ENDBRANCH   1   5
TORSDOF 13
ENDMDL
MODEL      104
REMARK 921   NORMALIZED FREE ENERGY PREDICTED BY IDOCK:   -3.98 KCAL/MOL
REMARK 922        TOTAL FREE ENERGY PREDICTED BY IDOCK:   -7.94 KCAL/MOL
REMARK 923 INTER-LIGAND FREE ENERGY PREDICTED BY IDOCK:   -6.78 KCAL/MOL
REMARK 924 INTRA-LIGAND FREE ENERGY PREDICTED BY IDOCK:   -1.16 KCAL/MOL
REMARK 927      BINDING AFFINITY PREDICTED BY RF-SCORE:    0.00 PKD
ROOT
HETATM    1  C   UNK A   0      -8.840   9.345  63.733  1.00  0.00    -0.171 C  
HETATM    2  O   UNK A   0      -9.876  10.054  63.029  1.00  0.00    -0.518 OA 
HETATM    3  C   UNK A   0      -8.230   8.318  62.805  1.00  0.00    -0.146 C  
HETATM    4  H   UNK A   0     -10.259  10.699  63.612  1.00  0.00     0.000 HD 
ENDROOT
BRANCH   1   5
HETATM    5  C   UNK A   0      -7.795  10.373  64.132  1.00  0.00    -0.052 C  
HETATM    6  O   UNK A   0      -6.926  10.655  63.134  1.00  0.00    -0.328 OA 
HETATM    7  H   UNK A   0      -6.272  11.298  63.383  1.00  0.00     0.000 HD 
BRANCH   5   8
HETATM    8  N   UNK A   0      -7.776  10.955  65.285  1.00  0.00    -0.357 NA 
HETATM    9  H   UNK A   0      -7.288  11.842  65.405  1.00  0.00     0.000 HD 
BRANCH   8  10
HETATM   10  C   UNK A   0      -8.443  10.346  66.392  1.00  0.00    -0.138 A  
HETATM   11  C   UNK A   0      -7.924   9.201  67.041  1.00  0.00    -0.102 A  
HETATM   12  I   UNK A   0      -5.979   8.441  66.370  1.00  0.00    -0.050 I  
HETATM   13  C   UNK A   0      -8.558   8.669  68.184  1.00  0.00    -0.141 A  
HETATM   14  I   UNK A   0     -10.474  12.574  65.772  1.00  0.00    -0.327 I  
HETATM   15  C   UNK A   0      -9.556   9.457  68.828  1.00  0.00    -0.154 A  
HETATM   16  I   UNK A   0      -9.896   9.053  70.948  1.00  0.00    -0.353 I  
HETATM   17  C   UNK A   0      -9.578  11.002  66.959  1.00  0.00    -0.177 A  
HETATM   18  C   UNK A   0     -10.096  10.632  68.224  1.00  0.00    -0.176 A  
BRANCH  13  19
HETATM   19  C   UNK A   0      -8.306   7.277  68.675  1.00  0.00    -0.125 C  
HETATM   20  O   UNK A   0      -7.344   7.123  69.595  1.00  0.00    -0.080 OA 
HETATM   21  H   UNK A   0      -7.184   6.240  69.907  1.00  0.00     0.000 HD 
BRANCH  19  22
ATOM     22  N   SER A   1      -8.974   6.258  68.261  1.00  0.00    -0.116 NA 
ATOM     23  H   SER A   1      -9.928   6.089  68.580  1.00  0.00     0.000 HD 
BRANCH  22  24
ATOM     24  CA  SER A   1      -8.310   5.332  67.302  1.00  0.00    -0.107 C  
BRANCH  24  25
ATOM     25  C   SER A   1      -9.354   4.966  66.231  1.00  0.00    -0.149 C  
ATOM     26  H   SER A   1      -9.768   3.419  65.087  1.00  0.00     0.000 HD 
ATOM     27  O   SER A   1      -9.124   3.645  65.748  1.00  0.00    -0.138 OA 
ENDBRANCH  24  25
BRANCH  24  28
ATOM     28  CB  SER A   1      -7.828   4.027  67.970  1.00  0.00    -0.077 C  
ATOM     29  OG  SER A   1      -7.339   4.195  69.299  1.00  0.00    -0.053 OA 
ATOM     30  HG  SER A   1      -7.043   3.392  69.710  1.00  0.00     0.000 HD 
ENDBRANCH  24  28
ENDBRANCH  22  24
ENDBRANCH  19  22
ENDBRANCH  13  19
BRANCH  18  31
HETATM   31  C   UNK A   0     -11.126  11.464  68.947  1.00  0.00    -0.233 C  
HETATM   32  H   UNK A   0     -13.055  11.630  69.186  1.00  0.00     0.000 HD 
HETATM   33  O   UNK A   0     -12.406  11.106  68.731  1.00  0.00    -0.539 OA 
BRANCH  31  34
ATOM     34  N   SER A   1     -10.855  12.490  69.679  1.00  0.00    -0.402 NA 
ATOM     35  H   SER A   1     -10.007  12.529  70.244  1.00  0.00     0.000 HD 
BRANCH  34  36
ATOM     36  CA  SER A   1     -11.835  13.619  69.667  1.00  0.00    -0.335 C  
BRANCH  36  37
ATOM     37  CB  SER A   1     -12.589  13.604  71.000  1.00  0.00    -0.363 C  
ATOM     38  HG  SER A   1     -13.925  14.725  71.917  1.00  0.00     0.000 HD 
ATOM     39  OG  SER A   1     -13.457  14.733  71.090  1.00  0.00    -0.377 OA 
ENDBRANCH  36  37
BRANCH  36  40
ATOM     40  C   SER A   1     -11.076  14.949  69.497  1.00  0.00    -0.281 C  
ATOM     41  H   SER A   1      -9.319  15.540  68.827  1.00  0.00     0.000 HD 
ATOM     42  O   SER A   1      -9.786  14.720  68.932  1.00  0.00    -0.220 OA 
ENDBRANCH  36  40
ENDBRANCH  34  36
ENDBRANCH  31  34
ENDBRANCH  18  31
ENDBRANCH   8  10
ENDBRANCH   5   8
ENDBRANCH   1   5
TORSDOF 13
ENDMDL
MODEL      105
REMARK 921   NORMALIZED FREE ENERGY PREDICTED BY IDOCK:   -3.95 KCAL/MOL
REMARK 922        TOTAL FREE ENERGY PREDICTED BY IDOCK:   -7.88 KCAL/MOL
REMARK 923 INTER-LIGAND FREE ENERGY PREDICTED BY IDOCK:   -7.05 KCAL/MOL
REMARK 924 INTRA-LIGAND FREE ENERGY PREDICTED BY IDOCK:   -0.83 KCAL/MOL
REMARK 927      BINDING AFFINITY PREDICTED BY RF-SCORE:    0.00 PKD
ROOT
HETATM    1  C   UNK A   0     -11.750   9.579  70.968  1.00  0.00    -0.343 C  
HETATM    2  O   UNK A   0     -12.956   8.893  70.590  1.00  0.00    -0.416 OA 
HETATM    3  C   UNK A   0     -11.122   8.860  72.140  1.00  0.00    -0.355 C  
HETATM    4  H   UNK A   0     -13.351   9.345  69.854  1.00  0.00     0.000 HD 
ENDROOT
BRANCH   1   5
HETATM    5  C   UNK A   0     -10.821   9.530  69.767  1.00  0.00    -0.243 C  
HETATM    6  O   UNK A   0     -11.463   9.741  68.595  1.00  0.00    -0.494 OA 
HETATM    7  H   UNK A   0     -10.882   9.709  67.844  1.00  0.00     0.000 HD 
BRANCH   5   8
HETATM    8  N   UNK A   0      -9.544   9.358  69.865  1.00  0.00    -0.196 NA 
HETATM    9  H   UNK A   0      -9.062   9.574  70.737  1.00  0.00     0.000 HD 
BRANCH   8  10
HETATM   10  C   UNK A   0      -8.811   8.866  68.741  1.00  0.00    -0.137 A  
HETATM   11  C   UNK A   0      -8.760   7.487  68.428  1.00  0.00    -0.123 A  
HETATM   12  I   UNK A   0      -9.947   6.115  69.660  1.00  0.00    -0.271 I  
HETATM   13  C   UNK A   0      -8.098   7.034  67.266  1.00  0.00    -0.115 A  
HETATM   14  I   UNK A   0      -8.124  11.855  68.492  1.00  0.00     0.024 I  
HETATM   15  C   UNK A   0      -7.729   7.999  66.284  1.00  0.00    -0.091 A  
HETATM   16  I   UNK A   0      -7.511   7.267  64.237  1.00  0.00    -0.115 I  
HETATM   17  C   UNK A   0      -8.248   9.801  67.821  1.00  0.00    -0.114 A  
HETATM   18  C   UNK A   0      -7.784   9.401  66.545  1.00  0.00    -0.094 A  
BRANCH  13  19
HETATM   19  C   UNK A   0      -7.674   5.611  67.079  1.00  0.00    -0.101 C  
HETATM   20  O   UNK A   0      -6.842   5.100  67.997  1.00  0.00    -0.057 OA 
HETATM   21  H   UNK A   0      -6.573   4.196  67.878  1.00  0.00     0.000 HD 
BRANCH  19  22
ATOM     22  N   SER A   1      -8.083   4.883  66.100  1.00  0.00    -0.107 NA 
ATOM     23  H   SER A   1      -7.540   4.802  65.241  1.00  0.00     0.000 HD 
BRANCH  22  24
ATOM     24  CA  SER A   1      -9.377   4.161  66.261  1.00  0.00    -0.168 C  
BRANCH  24  25
ATOM     25  C   SER A   1      -9.043   2.742  66.757  1.00  0.00    -0.144 C  
ATOM     26  H   SER A   1      -8.776   1.842  68.487  1.00  0.00     0.000 HD 
ATOM     27  O   SER A   1      -8.982   2.718  68.181  1.00  0.00    -0.116 OA 
ENDBRANCH  24  25
BRANCH  24  28
ATOM     28  CB  SER A   1     -10.159   4.037  64.937  1.00  0.00    -0.205 C  
ATOM     29  OG  SER A   1     -11.519   4.456  65.019  1.00  0.00    -1.090 OA 
ATOM     30  HG  SER A   1     -12.001   4.380  64.203  1.00  0.00     0.000 HD 
ENDBRANCH  24  28
ENDBRANCH  22  24
ENDBRANCH  19  22
ENDBRANCH  13  19
BRANCH  18  31
HETATM   31  C   UNK A   0      -7.420  10.397  65.472  1.00  0.00    -0.142 C  
HETATM   32  H   UNK A   0      -5.871  11.147  64.552  1.00  0.00     0.000 HD 
HETATM   33  O   UNK A   0      -6.101  10.520  65.228  1.00  0.00    -0.128 OA 
BRANCH  31  34
ATOM     34  N   SER A   1      -8.266  11.144  64.849  1.00  0.00    -0.348 NA 
ATOM     35  H   SER A   1      -8.020  12.088  64.550  1.00  0.00     0.000 HD 
BRANCH  34  36
ATOM     36  CA  SER A   1      -9.620  10.572  64.582  1.00  0.00    -0.292 C  
BRANCH  36  37
ATOM     37  CB  SER A   1     -10.645  11.401  65.360  1.00  0.00    -0.275 C  
ATOM     38  HG  SER A   1     -11.003  13.309  65.699  1.00  0.00     0.000 HD 
ATOM     39  OG  SER A   1     -10.367  12.794  65.215  1.00  0.00    -0.288 OA 
ENDBRANCH  36  37
BRANCH  36  40
ATOM     40  C   SER A   1      -9.913  10.641  63.071  1.00  0.00    -0.187 C  
ATOM     41  H   SER A   1      -9.013  11.309  61.449  1.00  0.00     0.000 HD 
ATOM     42  O   SER A   1      -8.833  11.266  62.380  1.00  0.00    -0.314 OA 
ENDBRANCH  36  40
ENDBRANCH  34  36
ENDBRANCH  31  34
ENDBRANCH  18  31
ENDBRANCH   8  10
ENDBRANCH   5   8
ENDBRANCH   1   5
TORSDOF 13
ENDMDL
MODEL      106
REMARK 921   NORMALIZED FREE ENERGY PREDICTED BY IDOCK:   -3.94 KCAL/MOL
REMARK 922        TOTAL FREE ENERGY PREDICTED BY IDOCK:   -7.86 KCAL/MOL
REMARK 923 INTER-LIGAND FREE ENERGY PREDICTED BY IDOCK:   -6.64 KCAL/MOL
REMARK 924 INTRA-LIGAND FREE ENERGY PREDICTED BY IDOCK:   -1.22 KCAL/MOL
REMARK 927      BINDING AFFINITY PREDICTED BY RF-SCORE:    0.00 PKD
ROOT
HETATM    1  C   UNK A   0     -10.207   4.137  72.419  1.00  0.00    -0.170 C  
HETATM    2  O   UNK A   0     -10.293   2.702  72.461  1.00  0.00    -0.162 OA 
HETATM    3  C   UNK A   0     -10.867   4.706  73.655  1.00  0.00    -0.375 C  
HETATM    4  H   UNK A   0      -9.878   2.345  71.684  1.00  0.00     0.000 HD 
ENDROOT
BRANCH   1   5
HETATM    5  C   UNK A   0      -8.729   4.489  72.409  1.00  0.00    -0.117 C  
HETATM    6  O   UNK A   0      -8.125   4.263  73.598  1.00  0.00    -0.088 OA 
HETATM    7  H   UNK A   0      -7.201   4.483  73.593  1.00  0.00     0.000 HD 
BRANCH   5   8
HETATM    8  N   UNK A   0      -8.107   4.910  71.357  1.00  0.00    -0.108 NA 
HETATM    9  H   UNK A   0      -7.129   4.663  71.206  1.00  0.00     0.000 HD 
BRANCH   8  10
HETATM   10  C   UNK A   0      -8.798   5.723  70.408  1.00  0.00    -0.142 A  
HETATM   11  C   UNK A   0      -9.041   7.098  70.637  1.00  0.00    -0.158 A  
HETATM   12  I   UNK A   0      -8.215   7.991  72.462  1.00  0.00    -0.217 I  
HETATM   13  C   UNK A   0      -9.652   7.898  69.648  1.00  0.00    -0.164 A  
HETATM   14  I   UNK A   0      -8.966   3.023  68.942  1.00  0.00    -0.234 I  
HETATM   15  C   UNK A   0      -9.764   7.368  68.329  1.00  0.00    -0.152 A  
HETATM   16  I   UNK A   0      -9.899   8.824  66.705  1.00  0.00    -0.356 I  
HETATM   17  C   UNK A   0      -9.111   5.174  69.127  1.00  0.00    -0.102 A  
HETATM   18  C   UNK A   0      -9.509   5.993  68.044  1.00  0.00    -0.113 A  
BRANCH  13  19
HETATM   19  C   UNK A   0     -10.280   9.223  69.952  1.00  0.00    -0.214 C  
HETATM   20  O   UNK A   0      -9.466  10.287  69.990  1.00  0.00    -0.397 OA 
HETATM   21  H   UNK A   0      -9.866  11.127  70.183  1.00  0.00     0.000 HD 
BRANCH  19  22
ATOM     22  N   SER A   1     -11.542   9.366  70.160  1.00  0.00    -0.439 NA 
ATOM     23  H   SER A   1     -12.193   9.485  69.384  1.00  0.00     0.000 HD 
BRANCH  22  24
ATOM     24  CA  SER A   1     -12.022   9.352  71.570  1.00  0.00    -0.382 C  
BRANCH  24  25
ATOM     25  C   SER A   1     -12.195   7.876  71.974  1.00  0.00    -0.317 C  
ATOM     26  H   SER A   1     -13.480   6.426  71.628  1.00  0.00     0.000 HD 
ATOM     27  O   SER A   1     -13.373   7.337  71.379  1.00  0.00    -0.383 OA 
ENDBRANCH  24  25
BRANCH  24  28
ATOM     28  CB  SER A   1     -13.382  10.061  71.744  1.00  0.00    -0.393 C  
ATOM     29  OG  SER A   1     -13.288  11.393  72.244  1.00  0.00    -0.629 OA 
ATOM     30  HG  SER A   1     -14.125  11.829  72.351  1.00  0.00     0.000 HD 
ENDBRANCH  24  28
ENDBRANCH  22  24
ENDBRANCH  19  22
ENDBRANCH  13  19
BRANCH  18  31
HETATM   31  C   UNK A   0      -9.602   5.472  66.631  1.00  0.00    -0.151 C  
HETATM   32  H   UNK A   0     -10.913   4.980  65.273  1.00  0.00     0.000 HD 
HETATM   33  O   UNK A   0     -10.854   5.309  66.162  1.00  0.00    -0.257 OA 
BRANCH  31  34
ATOM     34  N   SER A   1      -8.591   5.133  65.907  1.00  0.00    -0.123 NA 
ATOM     35  H   SER A   1      -8.671   4.417  65.185  1.00  0.00     0.000 HD 
BRANCH  34  36
ATOM     36  CA  SER A   1      -7.295   5.832  66.169  1.00  0.00    -0.078 C  
BRANCH  36  37
ATOM     37  CB  SER A   1      -6.236   4.766  66.465  1.00  0.00    -0.032 C  
ATOM     38  HG  SER A   1      -5.933   2.869  66.027  1.00  0.00     0.000 HD 
ATOM     39  OG  SER A   1      -6.590   3.530  65.843  1.00  0.00    -0.038 OA 
ENDBRANCH  36  37
BRANCH  36  40
ATOM     40  C   SER A   1      -6.898   6.650  64.926  1.00  0.00    -0.050 C  
ATOM     41  H   SER A   1      -7.487   6.818  63.052  1.00  0.00     0.000 HD 
ATOM     42  O   SER A   1      -7.732   6.313  63.818  1.00  0.00    -0.095 OA 
ENDBRANCH  36  40
ENDBRANCH  34  36
ENDBRANCH  31  34
ENDBRANCH  18  31
ENDBRANCH   8  10
ENDBRANCH   5   8
ENDBRANCH   1   5
TORSDOF 13
ENDMDL
MODEL      107
REMARK 921   NORMALIZED FREE ENERGY PREDICTED BY IDOCK:   -3.93 KCAL/MOL
REMARK 922        TOTAL FREE ENERGY PREDICTED BY IDOCK:   -7.85 KCAL/MOL
REMARK 923 INTER-LIGAND FREE ENERGY PREDICTED BY IDOCK:   -6.29 KCAL/MOL
REMARK 924 INTRA-LIGAND FREE ENERGY PREDICTED BY IDOCK:   -1.56 KCAL/MOL
REMARK 927      BINDING AFFINITY PREDICTED BY RF-SCORE:    0.00 PKD
ROOT
HETATM    1  C   UNK A   0     -11.496  11.300  69.532  1.00  0.00    -0.307 C  
HETATM    2  O   UNK A   0     -12.352  11.099  68.394  1.00  0.00    -0.697 OA 
HETATM    3  C   UNK A   0     -12.352  11.476  70.767  1.00  0.00    -0.472 C  
HETATM    4  H   UNK A   0     -11.814  10.989  67.619  1.00  0.00     0.000 HD 
ENDROOT
BRANCH   1   5
HETATM    5  C   UNK A   0     -10.639  10.053  69.665  1.00  0.00    -0.252 C  
HETATM    6  O   UNK A   0      -9.362  10.325  70.020  1.00  0.00    -0.400 OA 
HETATM    7  H   UNK A   0      -8.826   9.545  70.102  1.00  0.00     0.000 HD 
BRANCH   5   8
HETATM    8  N   UNK A   0     -11.099   8.856  69.508  1.00  0.00    -0.432 NA 
HETATM    9  H   UNK A   0     -12.100   8.703  69.383  1.00  0.00     0.000 HD 
BRANCH   8  10
HETATM   10  C   UNK A   0     -10.198   7.748  69.512  1.00  0.00    -0.207 A  
HETATM   11  C   UNK A   0      -9.452   7.386  68.365  1.00  0.00    -0.143 A  
HETATM   12  I   UNK A   0      -9.629   8.660  66.588  1.00  0.00    -0.335 I  
HETATM   13  C   UNK A   0      -8.507   6.339  68.419  1.00  0.00    -0.115 A  
HETATM   14  I   UNK A   0     -11.280   7.498  72.382  1.00  0.00    -0.420 I  
HETATM   15  C   UNK A   0      -8.123   5.845  69.700  1.00  0.00    -0.106 A  
HETATM   16  I   UNK A   0      -6.156   4.901  69.826  1.00  0.00    -0.024 I  
HETATM   17  C   UNK A   0      -9.923   7.086  70.747  1.00  0.00    -0.190 A  
HETATM   18  C   UNK A   0      -8.830   6.198  70.888  1.00  0.00    -0.136 A  
BRANCH  13  19
HETATM   19  C   UNK A   0      -7.982   5.659  67.192  1.00  0.00    -0.102 C  
HETATM   20  O   UNK A   0      -6.815   6.101  66.705  1.00  0.00    -0.059 OA 
HETATM   21  H   UNK A   0      -6.483   5.669  65.927  1.00  0.00     0.000 HD 
BRANCH  19  22
ATOM     22  N   SER A   1      -8.595   4.683  66.618  1.00  0.00    -0.109 NA 
ATOM     23  H   SER A   1      -9.598   4.726  66.435  1.00  0.00     0.000 HD 
BRANCH  22  24
ATOM     24  CA  SER A   1      -7.794   3.489  66.231  1.00  0.00    -0.088 C  
BRANCH  24  25
ATOM     25  C   SER A   1      -8.072   3.222  64.741  1.00  0.00    -0.090 C  
ATOM     26  H   SER A   1      -8.136   1.664  63.540  1.00  0.00     0.000 HD 
ATOM     27  O   SER A   1      -7.964   1.828  64.460  1.00  0.00    -0.067 OA 
ENDBRANCH  24  25
BRANCH  24  28
ATOM     28  CB  SER A   1      -8.184   2.226  67.027  1.00  0.00    -0.079 C  
ATOM     29  OG  SER A   1      -9.586   1.961  67.054  1.00  0.00    -0.379 OA 
ATOM     30  HG  SER A   1      -9.826   1.183  67.544  1.00  0.00     0.000 HD 
ENDBRANCH  24  28
ENDBRANCH  22  24
ENDBRANCH  19  22
ENDBRANCH  13  19
BRANCH  18  31
HETATM   31  C   UNK A   0      -8.376   5.686  72.232  1.00  0.00    -0.119 C  
HETATM   32  H   UNK A   0      -7.432   6.259  73.841  1.00  0.00     0.000 HD 
HETATM   33  O   UNK A   0      -7.718   6.581  72.994  1.00  0.00    -0.096 OA 
BRANCH  31  34
ATOM     34  N   SER A   1      -8.527   4.474  72.644  1.00  0.00    -0.112 NA 
ATOM     35  H   SER A   1      -7.814   4.013  73.209  1.00  0.00     0.000 HD 
BRANCH  34  36
ATOM     36  CA  SER A   1      -9.789   3.771  72.259  1.00  0.00    -0.163 C  
BRANCH  36  37
ATOM     37  CB  SER A   1      -9.415   2.588  71.362  1.00  0.00    -0.144 C  
ATOM     38  HG  SER A   1      -9.514   2.139  69.446  1.00  0.00     0.000 HD 
ATOM     39  OG  SER A   1      -9.745   2.873  70.002  1.00  0.00    -0.100 OA 
ENDBRANCH  36  37
BRANCH  36  40
ATOM     40  C   SER A   1     -10.502   3.274  73.530  1.00  0.00    -0.166 C  
ATOM     41  H   SER A   1     -11.705   4.021  74.903  1.00  0.00     0.000 HD 
ATOM     42  O   SER A   1     -11.264   4.327  74.120  1.00  0.00    -0.184 OA 
ENDBRANCH  36  40
ENDBRANCH  34  36
ENDBRANCH  31  34
ENDBRANCH  18  31
ENDBRANCH   8  10
ENDBRANCH   5   8
ENDBRANCH   1   5
TORSDOF 13
ENDMDL
MODEL      108
REMARK 921   NORMALIZED FREE ENERGY PREDICTED BY IDOCK:   -3.91 KCAL/MOL
REMARK 922        TOTAL FREE ENERGY PREDICTED BY IDOCK:   -7.82 KCAL/MOL
REMARK 923 INTER-LIGAND FREE ENERGY PREDICTED BY IDOCK:   -6.55 KCAL/MOL
REMARK 924 INTRA-LIGAND FREE ENERGY PREDICTED BY IDOCK:   -1.26 KCAL/MOL
REMARK 927      BINDING AFFINITY PREDICTED BY RF-SCORE:    0.00 PKD
ROOT
HETATM    1  C   UNK A   0      -6.736  18.533  67.789  1.00  0.00    -0.212 C  
HETATM    2  O   UNK A   0      -7.340  19.325  68.827  1.00  0.00    -0.319 OA 
HETATM    3  C   UNK A   0      -5.235  18.699  67.855  1.00  0.00    -0.173 C  
HETATM    4  H   UNK A   0      -8.284  19.221  68.786  1.00  0.00     0.000 HD 
ENDROOT
BRANCH   1   5
HETATM    5  C   UNK A   0      -7.113  17.087  68.064  1.00  0.00    -0.163 C  
HETATM    6  O   UNK A   0      -7.356  16.845  69.373  1.00  0.00    -0.198 OA 
HETATM    7  H   UNK A   0      -7.592  15.940  69.545  1.00  0.00     0.000 HD 
BRANCH   5   8
HETATM    8  N   UNK A   0      -7.240  16.198  67.134  1.00  0.00    -0.200 NA 
HETATM    9  H   UNK A   0      -6.703  16.278  66.271  1.00  0.00     0.000 HD 
BRANCH   8  10
HETATM   10  C   UNK A   0      -8.139  15.104  67.324  1.00  0.00    -0.201 A  
HETATM   11  C   UNK A   0      -9.529  15.229  67.092  1.00  0.00    -0.214 A  
HETATM   12  I   UNK A   0     -10.266  17.141  66.309  1.00  0.00    -0.183 I  
HETATM   13  C   UNK A   0     -10.384  14.112  67.206  1.00  0.00    -0.267 A  
HETATM   14  I   UNK A   0      -5.526  13.740  68.207  1.00  0.00    -0.115 I  
HETATM   15  C   UNK A   0      -9.791  12.817  67.285  1.00  0.00    -0.207 A  
HETATM   16  I   UNK A   0     -11.028  11.141  66.624  1.00  0.00    -0.064 I  
HETATM   17  C   UNK A   0      -7.602  13.810  67.600  1.00  0.00    -0.181 A  
HETATM   18  C   UNK A   0      -8.391  12.640  67.496  1.00  0.00    -0.177 A  
BRANCH  13  19
HETATM   19  C   UNK A   0     -11.868  14.240  67.359  1.00  0.00    -0.409 C  
HETATM   20  O   UNK A   0     -12.598  14.216  66.235  1.00  0.00    -0.485 OA 
HETATM   21  H   UNK A   0     -13.540  14.297  66.333  1.00  0.00     0.000 HD 
BRANCH  19  22
ATOM     22  N   SER A   1     -12.445  14.356  68.503  1.00  0.00    -0.545 NA 
ATOM     23  H   SER A   1     -13.405  14.693  68.577  1.00  0.00     0.000 HD 
BRANCH  22  24
ATOM     24  CA  SER A   1     -11.666  13.983  69.717  1.00  0.00    -0.313 C  
BRANCH  24  25
ATOM     25  C   SER A   1     -12.623  13.220  70.651  1.00  0.00    -0.231 C  
ATOM     26  H   SER A   1     -13.392  13.468  72.446  1.00  0.00     0.000 HD 
ATOM     27  O   SER A   1     -12.802  13.939  71.869  1.00  0.00    -0.331 OA 
ENDBRANCH  24  25
BRANCH  24  28
ATOM     28  CB  SER A   1     -11.128  15.212  70.480  1.00  0.00    -0.262 C  
ATOM     29  OG  SER A   1      -9.705  15.312  70.500  1.00  0.00    -0.300 OA 
ATOM     30  HG  SER A   1      -9.374  16.068  70.969  1.00  0.00     0.000 HD 
ENDBRANCH  24  28
ENDBRANCH  22  24
ENDBRANCH  19  22
ENDBRANCH  13  19
BRANCH  18  31
HETATM   31  C   UNK A   0      -7.790  11.257  67.539  1.00  0.00    -0.123 C  
HETATM   32  H   UNK A   0      -7.464   9.775  68.767  1.00  0.00     0.000 HD 
HETATM   33  O   UNK A   0      -7.842  10.646  68.739  1.00  0.00    -0.107 OA 
BRANCH  31  34
ATOM     34  N   SER A   1      -7.204  10.682  66.546  1.00  0.00    -0.126 NA 
ATOM     35  H   SER A   1      -6.547  11.189  65.952  1.00  0.00     0.000 HD 
BRANCH  34  36
ATOM     36  CA  SER A   1      -7.523   9.243  66.300  1.00  0.00    -0.096 C  
BRANCH  36  37
ATOM     37  CB  SER A   1      -7.728   9.056  64.794  1.00  0.00    -0.109 C  
ATOM     38  HG  SER A   1      -8.105  10.199  63.234  1.00  0.00     0.000 HD 
ATOM     39  OG  SER A   1      -7.978  10.315  64.168  1.00  0.00    -0.157 OA 
ENDBRANCH  36  37
BRANCH  36  40
ATOM     40  C   SER A   1      -6.354   8.370  66.793  1.00  0.00    -0.056 C  
ATOM     41  H   SER A   1      -4.415   8.225  66.466  1.00  0.00     0.000 HD 
ATOM     42  O   SER A   1      -5.136   8.763  66.162  1.00  0.00    -0.029 OA 
ENDBRANCH  36  40
ENDBRANCH  34  36
ENDBRANCH  31  34
ENDBRANCH  18  31
ENDBRANCH   8  10
ENDBRANCH   5   8
ENDBRANCH   1   5
TORSDOF 13
ENDMDL
MODEL      109
REMARK 921   NORMALIZED FREE ENERGY PREDICTED BY IDOCK:   -3.91 KCAL/MOL
REMARK 922        TOTAL FREE ENERGY PREDICTED BY IDOCK:   -7.82 KCAL/MOL
REMARK 923 INTER-LIGAND FREE ENERGY PREDICTED BY IDOCK:   -7.44 KCAL/MOL
REMARK 924 INTRA-LIGAND FREE ENERGY PREDICTED BY IDOCK:   -0.38 KCAL/MOL
REMARK 927      BINDING AFFINITY PREDICTED BY RF-SCORE:    0.00 PKD
ROOT
HETATM    1  C   UNK A   0      -7.946  10.645  63.882  1.00  0.00     0.092 C  
HETATM    2  O   UNK A   0      -7.333  10.845  65.168  1.00  0.00    -0.356 OA 
HETATM    3  C   UNK A   0      -6.866  10.372  62.859  1.00  0.00    -0.104 C  
HETATM    4  H   UNK A   0      -8.011  11.017  65.810  1.00  0.00     0.000 HD 
ENDROOT
BRANCH   1   5
HETATM    5  C   UNK A   0      -8.858   9.437  64.012  1.00  0.00    -0.177 C  
HETATM    6  O   UNK A   0      -8.321   8.312  63.486  1.00  0.00    -0.329 OA 
HETATM    7  H   UNK A   0      -8.891   7.556  63.568  1.00  0.00     0.000 HD 
BRANCH   5   8
HETATM    8  N   UNK A   0     -10.002   9.473  64.613  1.00  0.00    -0.274 NA 
HETATM    9  H   UNK A   0     -10.794   8.949  64.240  1.00  0.00     0.000 HD 
BRANCH   8  10
HETATM   10  C   UNK A   0     -10.150  10.251  65.801  1.00  0.00    -0.255 A  
HETATM   11  C   UNK A   0     -10.791  11.513  65.795  1.00  0.00    -0.262 A  
HETATM   12  I   UNK A   0     -11.671  12.201  63.907  1.00  0.00    -0.581 I  
HETATM   13  C   UNK A   0     -10.998  12.224  66.996  1.00  0.00    -0.314 A  
HETATM   14  I   UNK A   0      -8.572   7.882  66.970  1.00  0.00    -0.153 I  
HETATM   15  C   UNK A   0     -10.803  11.534  68.228  1.00  0.00    -0.216 A  
HETATM   16  I   UNK A   0     -11.891  12.308  69.958  1.00  0.00    -0.049 I  
HETATM   17  C   UNK A   0      -9.784   9.673  67.055  1.00  0.00    -0.181 A  
HETATM   18  C   UNK A   0     -10.180  10.251  68.284  1.00  0.00    -0.184 A  
BRANCH  13  19
HETATM   19  C   UNK A   0     -11.303  13.690  67.026  1.00  0.00    -0.324 C  
HETATM   20  O   UNK A   0     -12.573  14.051  66.798  1.00  0.00    -0.517 OA 
HETATM   21  H   UNK A   0     -12.766  14.981  66.818  1.00  0.00     0.000 HD 
BRANCH  19  22
ATOM     22  N   SER A   1     -10.410  14.584  67.270  1.00  0.00    -0.259 NA 
ATOM     23  H   SER A   1      -9.433  14.435  67.017  1.00  0.00     0.000 HD 
BRANCH  22  24
ATOM     24  CA  SER A   1     -10.848  15.843  67.935  1.00  0.00    -0.327 C  
BRANCH  24  25
ATOM     25  C   SER A   1      -9.936  16.969  67.415  1.00  0.00    -0.278 C  
ATOM     26  H   SER A   1      -8.787  18.368  68.187  1.00  0.00     0.000 HD 
ATOM     27  O   SER A   1      -9.349  17.673  68.508  1.00  0.00    -0.278 OA 
ENDBRANCH  24  25
BRANCH  24  28
ATOM     28  CB  SER A   1     -10.711  15.784  69.471  1.00  0.00    -0.278 C  
ATOM     29  OG  SER A   1     -11.653  16.592  70.175  1.00  0.00    -0.383 OA 
ATOM     30  HG  SER A   1     -11.569  16.555  71.120  1.00  0.00     0.000 HD 
ENDBRANCH  24  28
ENDBRANCH  22  24
ENDBRANCH  19  22
ENDBRANCH  13  19
BRANCH  18  31
HETATM   31  C   UNK A   0     -10.020   9.532  69.601  1.00  0.00    -0.205 C  
HETATM   32  H   UNK A   0     -10.842   8.131  70.681  1.00  0.00     0.000 HD 
HETATM   33  O   UNK A   0     -10.943   8.584  69.852  1.00  0.00    -0.236 OA 
BRANCH  31  34
ATOM     34  N   SER A   1      -9.122   9.810  70.482  1.00  0.00    -0.330 NA 
ATOM     35  H   SER A   1      -9.293  10.498  71.215  1.00  0.00     0.000 HD 
BRANCH  34  36
ATOM     36  CA  SER A   1      -7.819   9.083  70.387  1.00  0.00    -0.116 C  
BRANCH  36  37
ATOM     37  CB  SER A   1      -6.803  10.019  69.727  1.00  0.00    -0.094 C  
ATOM     38  HG  SER A   1      -5.553  11.430  70.300  1.00  0.00     0.000 HD 
ATOM     39  OG  SER A   1      -6.183  10.848  70.709  1.00  0.00    -0.333 OA 
ENDBRANCH  36  37
BRANCH  36  40
ATOM     40  C   SER A   1      -7.349   8.695  71.801  1.00  0.00    -0.080 C  
ATOM     41  H   SER A   1      -6.628   7.095  72.702  1.00  0.00     0.000 HD 
ATOM     42  O   SER A   1      -6.919   7.334  71.830  1.00  0.00    -0.058 OA 
ENDBRANCH  36  40
ENDBRANCH  34  36
ENDBRANCH  31  34
ENDBRANCH  18  31
ENDBRANCH   8  10
ENDBRANCH   5   8
ENDBRANCH   1   5
TORSDOF 13
ENDMDL
MODEL      110
REMARK 921   NORMALIZED FREE ENERGY PREDICTED BY IDOCK:   -3.90 KCAL/MOL
REMARK 922        TOTAL FREE ENERGY PREDICTED BY IDOCK:   -7.79 KCAL/MOL
REMARK 923 INTER-LIGAND FREE ENERGY PREDICTED BY IDOCK:   -6.86 KCAL/MOL
REMARK 924 INTRA-LIGAND FREE ENERGY PREDICTED BY IDOCK:   -0.94 KCAL/MOL
REMARK 927      BINDING AFFINITY PREDICTED BY RF-SCORE:    0.00 PKD
ROOT
HETATM    1  C   UNK A   0      -6.546  18.241  67.356  1.00  0.00    -0.191 C  
HETATM    2  O   UNK A   0      -7.533  19.282  67.463  1.00  0.00    -0.232 OA 
HETATM    3  C   UNK A   0      -5.553  18.388  68.487  1.00  0.00    -0.180 C  
HETATM    4  H   UNK A   0      -8.157  19.190  66.753  1.00  0.00     0.000 HD 
ENDROOT
BRANCH   1   5
HETATM    5  C   UNK A   0      -7.285  16.920  67.480  1.00  0.00    -0.149 C  
HETATM    6  O   UNK A   0      -7.713  16.441  66.289  1.00  0.00    -0.267 OA 
HETATM    7  H   UNK A   0      -8.175  15.614  66.367  1.00  0.00     0.000 HD 
BRANCH   5   8
HETATM    8  N   UNK A   0      -7.439  16.295  68.601  1.00  0.00    -0.173 NA 
HETATM    9  H   UNK A   0      -7.015  16.659  69.454  1.00  0.00     0.000 HD 
BRANCH   8  10
HETATM   10  C   UNK A   0      -8.208  15.091  68.638  1.00  0.00    -0.156 A  
HETATM   11  C   UNK A   0      -9.622  15.107  68.681  1.00  0.00    -0.213 A  
HETATM   12  I   UNK A   0     -10.625  17.055  68.570  1.00  0.00    -0.272 I  
HETATM   13  C   UNK A   0     -10.359  13.905  68.632  1.00  0.00    -0.237 A  
HETATM   14  I   UNK A   0      -5.386  13.864  68.680  1.00  0.00    -0.109 I  
HETATM   15  C   UNK A   0      -9.674  12.710  68.264  1.00  0.00    -0.216 A  
HETATM   16  I   UNK A   0     -10.894  11.120  67.393  1.00  0.00    -0.358 I  
HETATM   17  C   UNK A   0      -7.539  13.841  68.466  1.00  0.00    -0.134 A  
HETATM   18  C   UNK A   0      -8.251  12.650  68.185  1.00  0.00    -0.170 A  
BRANCH  13  19
HETATM   19  C   UNK A   0     -11.792  13.817  69.057  1.00  0.00    -0.357 C  
HETATM   20  O   UNK A   0     -12.718  14.141  68.144  1.00  0.00    -0.277 OA 
HETATM   21  H   UNK A   0     -13.627  14.085  68.413  1.00  0.00     0.000 HD 
BRANCH  19  22
ATOM     22  N   SER A   1     -12.150  13.438  70.234  1.00  0.00    -0.391 NA 
ATOM     23  H   SER A   1     -12.368  12.461  70.429  1.00  0.00     0.000 HD 
BRANCH  22  24
ATOM     24  CA  SER A   1     -12.237  14.473  71.302  1.00  0.00    -0.355 C  
BRANCH  24  25
ATOM     25  C   SER A   1     -12.607  13.745  72.608  1.00  0.00     0.030 C  
ATOM     26  H   SER A   1     -14.019  12.523  73.229  1.00  0.00     0.000 HD 
ATOM     27  O   SER A   1     -13.791  12.972  72.423  1.00  0.00    -0.564 OA 
ENDBRANCH  24  25
BRANCH  24  28
ATOM     28  CB  SER A   1     -13.322  15.532  71.019  1.00  0.00    -0.428 C  
ATOM     29  OG  SER A   1     -14.317  15.638  72.036  1.00  0.00    -0.494 OA 
ATOM     30  HG  SER A   1     -14.985  16.291  71.861  1.00  0.00     0.000 HD 
ENDBRANCH  24  28
ENDBRANCH  22  24
ENDBRANCH  19  22
ENDBRANCH  13  19
BRANCH  18  31
HETATM   31  C   UNK A   0      -7.558  11.380  67.758  1.00  0.00    -0.105 C  
HETATM   32  H   UNK A   0      -6.999  10.414  66.157  1.00  0.00     0.000 HD 
HETATM   33  O   UNK A   0      -7.436  11.214  66.427  1.00  0.00    -0.144 OA 
BRANCH  31  34
ATOM     34  N   SER A   1      -7.151  10.461  68.565  1.00  0.00    -0.073 NA 
ATOM     35  H   SER A   1      -6.297  10.575  69.111  1.00  0.00     0.000 HD 
BRANCH  34  36
ATOM     36  CA  SER A   1      -7.980   9.222  68.668  1.00  0.00    -0.100 C  
BRANCH  36  37
ATOM     37  CB  SER A   1      -7.265   8.110  67.895  1.00  0.00    -0.091 C  
ATOM     38  HG  SER A   1      -7.721   6.342  67.154  1.00  0.00     0.000 HD 
ATOM     39  OG  SER A   1      -8.164   7.032  67.633  1.00  0.00    -0.115 OA 
ENDBRANCH  36  37
BRANCH  36  40
ATOM     40  C   SER A   1      -8.130   8.831  70.150  1.00  0.00    -0.114 C  
ATOM     41  H   SER A   1      -9.534   8.899  71.532  1.00  0.00     0.000 HD 
ATOM     42  O   SER A   1      -9.442   9.140  70.619  1.00  0.00    -0.218 OA 
ENDBRANCH  36  40
ENDBRANCH  34  36
ENDBRANCH  31  34
ENDBRANCH  18  31
ENDBRANCH   8  10
ENDBRANCH   5   8
ENDBRANCH   1   5
TORSDOF 13
ENDMDL
MODEL      111
REMARK 921   NORMALIZED FREE ENERGY PREDICTED BY IDOCK:   -3.88 KCAL/MOL
REMARK 922        TOTAL FREE ENERGY PREDICTED BY IDOCK:   -7.77 KCAL/MOL
REMARK 923 INTER-LIGAND FREE ENERGY PREDICTED BY IDOCK:   -7.65 KCAL/MOL
REMARK 924 INTRA-LIGAND FREE ENERGY PREDICTED BY IDOCK:   -0.12 KCAL/MOL
REMARK 927      BINDING AFFINITY PREDICTED BY RF-SCORE:    0.00 PKD
ROOT
HETATM    1  C   UNK A   0      -7.443  10.207  65.670  1.00  0.00    -0.144 C  
HETATM    2  O   UNK A   0      -8.131  11.056  64.735  1.00  0.00    -0.363 OA 
HETATM    3  C   UNK A   0      -6.500   9.301  64.910  1.00  0.00    -0.075 C  
HETATM    4  H   UNK A   0      -8.723  11.625  65.212  1.00  0.00     0.000 HD 
ENDROOT
BRANCH   1   5
HETATM    5  C   UNK A   0      -6.656  11.119  66.596  1.00  0.00    -0.137 C  
HETATM    6  O   UNK A   0      -5.551  11.637  66.012  1.00  0.00    -0.494 OA 
HETATM    7  H   UNK A   0      -5.058  12.207  66.591  1.00  0.00     0.000 HD 
BRANCH   5   8
HETATM    8  N   UNK A   0      -7.036  11.411  67.796  1.00  0.00    -0.078 NA 
HETATM    9  H   UNK A   0      -6.438  11.972  68.402  1.00  0.00     0.000 HD 
BRANCH   8  10
HETATM   10  C   UNK A   0      -8.300  10.940  68.269  1.00  0.00    -0.129 A  
HETATM   11  C   UNK A   0      -8.460   9.644  68.813  1.00  0.00    -0.123 A  
HETATM   12  I   UNK A   0      -6.668   8.397  69.024  1.00  0.00    -0.054 I  
HETATM   13  C   UNK A   0      -9.699   9.233  69.349  1.00  0.00    -0.175 A  
HETATM   14  I   UNK A   0      -9.166  13.713  67.255  1.00  0.00    -0.266 I  
HETATM   15  C   UNK A   0     -10.693  10.228  69.582  1.00  0.00    -0.264 A  
HETATM   16  I   UNK A   0     -12.181   9.773  71.116  1.00  0.00    -0.489 I  
HETATM   17  C   UNK A   0      -9.393  11.856  68.342  1.00  0.00    -0.184 A  
HETATM   18  C   UNK A   0     -10.567  11.555  69.073  1.00  0.00    -0.207 A  
BRANCH  13  19
HETATM   19  C   UNK A   0     -10.047   7.795  69.575  1.00  0.00    -0.194 C  
HETATM   20  O   UNK A   0      -9.470   7.188  70.621  1.00  0.00    -0.162 OA 
HETATM   21  H   UNK A   0      -9.691   6.275  70.764  1.00  0.00     0.000 HD 
BRANCH  19  22
ATOM     22  N   SER A   1     -10.867   7.148  68.823  1.00  0.00    -0.395 NA 
ATOM     23  H   SER A   1     -11.862   7.376  68.812  1.00  0.00     0.000 HD 
BRANCH  22  24
ATOM     24  CA  SER A   1     -10.320   6.056  67.971  1.00  0.00    -0.202 C  
BRANCH  24  25
ATOM     25  C   SER A   1      -8.862   6.429  67.642  1.00  0.00    -0.112 C  
ATOM     26  H   SER A   1      -7.869   7.150  66.103  1.00  0.00     0.000 HD 
ATOM     27  O   SER A   1      -8.768   6.920  66.307  1.00  0.00    -0.133 OA 
ENDBRANCH  24  25
BRANCH  24  28
ATOM     28  CB  SER A   1     -11.087   5.896  66.642  1.00  0.00    -0.022 C  
ATOM     29  OG  SER A   1     -10.701   4.756  65.877  1.00  0.00    -0.425 OA 
ATOM     30  HG  SER A   1     -11.173   4.657  65.059  1.00  0.00     0.000 HD 
ENDBRANCH  24  28
ENDBRANCH  22  24
ENDBRANCH  19  22
ENDBRANCH  13  19
BRANCH  18  31
HETATM   31  C   UNK A   0     -11.620  12.595  69.368  1.00  0.00    -0.306 C  
HETATM   32  H   UNK A   0     -13.179  13.453  68.569  1.00  0.00     0.000 HD 
HETATM   33  O   UNK A   0     -12.516  12.799  68.383  1.00  0.00     0.130 OA 
BRANCH  31  34
ATOM     34  N   SER A   1     -11.666  13.306  70.442  1.00  0.00    -0.543 NA 
ATOM     35  H   SER A   1     -10.857  13.391  71.057  1.00  0.00     0.000 HD 
BRANCH  34  36
ATOM     36  CA  SER A   1     -12.953  14.001  70.750  1.00  0.00    -0.230 C  
BRANCH  36  37
ATOM     37  CB  SER A   1     -13.507  13.414  72.051  1.00  0.00    -0.494 C  
ATOM     38  HG  SER A   1     -13.860  14.041  73.885  1.00  0.00     0.000 HD 
ATOM     39  OG  SER A   1     -13.517  14.406  73.078  1.00  0.00    -0.615 OA 
ENDBRANCH  36  37
BRANCH  36  40
ATOM     40  C   SER A   1     -12.691  15.510  70.914  1.00  0.00    -0.468 C  
ATOM     41  H   SER A   1     -11.791  16.943  69.901  1.00  0.00     0.000 HD 
ATOM     42  O   SER A   1     -11.953  16.013  69.801  1.00  0.00    -0.297 OA 
ENDBRANCH  36  40
ENDBRANCH  34  36
ENDBRANCH  31  34
ENDBRANCH  18  31
ENDBRANCH   8  10
ENDBRANCH   5   8
ENDBRANCH   1   5
TORSDOF 13
ENDMDL
MODEL      112
REMARK 921   NORMALIZED FREE ENERGY PREDICTED BY IDOCK:   -3.88 KCAL/MOL
REMARK 922        TOTAL FREE ENERGY PREDICTED BY IDOCK:   -7.76 KCAL/MOL
REMARK 923 INTER-LIGAND FREE ENERGY PREDICTED BY IDOCK:   -6.55 KCAL/MOL
REMARK 924 INTRA-LIGAND FREE ENERGY PREDICTED BY IDOCK:   -1.21 KCAL/MOL
REMARK 927      BINDING AFFINITY PREDICTED BY RF-SCORE:    0.00 PKD
ROOT
HETATM    1  C   UNK A   0     -10.306   4.357  65.230  1.00  0.00    -0.198 C  
HETATM    2  O   UNK A   0     -11.640   4.233  64.707  1.00  0.00    -0.963 OA 
HETATM    3  C   UNK A   0      -9.320   4.297  64.085  1.00  0.00    -0.145 C  
HETATM    4  H   UNK A   0     -12.258   4.270  65.427  1.00  0.00     0.000 HD 
ENDROOT
BRANCH   1   5
HETATM    5  C   UNK A   0     -10.226   5.711  65.916  1.00  0.00     0.154 C  
HETATM    6  O   UNK A   0     -11.408   6.104  66.445  1.00  0.00    -0.715 OA 
HETATM    7  H   UNK A   0     -11.359   6.950  66.874  1.00  0.00     0.000 HD 
BRANCH   5   8
HETATM    8  N   UNK A   0      -9.131   6.387  66.026  1.00  0.00    -0.269 NA 
HETATM    9  H   UNK A   0      -8.448   6.385  65.269  1.00  0.00     0.000 HD 
BRANCH   8  10
HETATM   10  C   UNK A   0      -8.882   7.137  67.217  1.00  0.00    -0.120 A  
HETATM   11  C   UNK A   0      -8.627   6.507  68.458  1.00  0.00    -0.123 A  
HETATM   12  I   UNK A   0      -8.503   4.318  68.486  1.00  0.00    -0.129 I  
HETATM   13  C   UNK A   0      -8.303   7.269  69.601  1.00  0.00    -0.132 A  
HETATM   14  I   UNK A   0      -9.397   9.469  65.277  1.00  0.00    -0.163 I  
HETATM   15  C   UNK A   0      -7.969   8.643  69.421  1.00  0.00    -0.102 A  
HETATM   16  I   UNK A   0      -6.705   9.545  70.958  1.00  0.00     0.149 I  
HETATM   17  C   UNK A   0      -8.731   8.554  67.121  1.00  0.00    -0.129 A  
HETATM   18  C   UNK A   0      -8.188   9.317  68.182  1.00  0.00    -0.119 A  
BRANCH  13  19
HETATM   19  C   UNK A   0      -8.404   6.724  70.992  1.00  0.00    -0.127 C  
HETATM   20  O   UNK A   0      -7.349   6.037  71.453  1.00  0.00    -0.080 OA 
HETATM   21  H   UNK A   0      -7.414   5.692  72.336  1.00  0.00     0.000 HD 
BRANCH  19  22
ATOM     22  N   SER A   1      -9.437   6.902  71.739  1.00  0.00    -0.153 NA 
ATOM     23  H   SER A   1      -9.484   7.681  72.395  1.00  0.00     0.000 HD 
BRANCH  22  24
ATOM     24  CA  SER A   1     -10.561   5.933  71.614  1.00  0.00    -0.241 C  
BRANCH  24  25
ATOM     25  C   SER A   1     -11.707   6.662  70.887  1.00  0.00    -0.375 C  
ATOM     26  H   SER A   1     -12.457   6.720  69.068  1.00  0.00     0.000 HD 
ATOM     27  O   SER A   1     -11.751   6.270  69.517  1.00  0.00    -0.360 OA 
ENDBRANCH  24  25
BRANCH  24  28
ATOM     28  CB  SER A   1     -11.089   5.453  72.982  1.00  0.00    -0.313 C  
ATOM     29  OG  SER A   1     -12.506   5.305  73.044  1.00  0.00    -0.445 OA 
ATOM     30  HG  SER A   1     -12.830   5.009  73.887  1.00  0.00     0.000 HD 
ENDBRANCH  24  28
ENDBRANCH  22  24
ENDBRANCH  19  22
ENDBRANCH  13  19
BRANCH  18  31
HETATM   31  C   UNK A   0      -7.791  10.763  68.013  1.00  0.00    -0.106 C  
HETATM   32  H   UNK A   0      -6.447  11.882  67.149  1.00  0.00     0.000 HD 
HETATM   33  O   UNK A   0      -6.697  10.972  67.256  1.00  0.00    -0.075 OA 
BRANCH  31  34
ATOM     34  N   SER A   1      -8.385  11.756  68.581  1.00  0.00    -0.291 NA 
ATOM     35  H   SER A   1      -8.070  12.117  69.482  1.00  0.00     0.000 HD 
BRANCH  34  36
ATOM     36  CA  SER A   1      -9.552  12.357  67.867  1.00  0.00    -0.205 C  
BRANCH  36  37
ATOM     37  CB  SER A   1     -10.494  12.950  68.918  1.00  0.00    -0.082 C  
ATOM     38  HG  SER A   1     -12.300  13.736  68.961  1.00  0.00     0.000 HD 
ATOM     39  OG  SER A   1     -11.716  13.368  68.309  1.00  0.00    -0.315 OA 
ENDBRANCH  36  37
BRANCH  36  40
ATOM     40  C   SER A   1      -9.053  13.459  66.914  1.00  0.00    -0.231 C  
ATOM     41  H   SER A   1      -9.324  13.981  65.032  1.00  0.00     0.000 HD 
ATOM     42  O   SER A   1      -9.631  13.301  65.619  1.00  0.00    -0.143 OA 
ENDBRANCH  36  40
ENDBRANCH  34  36
ENDBRANCH  31  34
ENDBRANCH  18  31
ENDBRANCH   8  10
ENDBRANCH   5   8
ENDBRANCH   1   5
TORSDOF 13
ENDMDL
MODEL      113
REMARK 921   NORMALIZED FREE ENERGY PREDICTED BY IDOCK:   -3.86 KCAL/MOL
REMARK 922        TOTAL FREE ENERGY PREDICTED BY IDOCK:   -7.72 KCAL/MOL
REMARK 923 INTER-LIGAND FREE ENERGY PREDICTED BY IDOCK:   -6.28 KCAL/MOL
REMARK 924 INTRA-LIGAND FREE ENERGY PREDICTED BY IDOCK:   -1.44 KCAL/MOL
REMARK 927      BINDING AFFINITY PREDICTED BY RF-SCORE:    0.00 PKD
ROOT
HETATM    1  C   UNK A   0      -5.933  16.566  68.714  1.00  0.00    -0.132 C  
HETATM    2  O   UNK A   0      -6.680  17.652  68.135  1.00  0.00    -0.194 OA 
HETATM    3  C   UNK A   0      -5.682  16.866  70.175  1.00  0.00    -0.208 C  
HETATM    4  H   UNK A   0      -6.837  17.463  67.218  1.00  0.00     0.000 HD 
ENDROOT
BRANCH   1   5
HETATM    5  C   UNK A   0      -6.792  15.320  68.577  1.00  0.00    -0.112 C  
HETATM    6  O   UNK A   0      -7.470  15.020  69.709  1.00  0.00    -0.260 OA 
HETATM    7  H   UNK A   0      -8.006  14.241  69.624  1.00  0.00     0.000 HD 
BRANCH   5   8
HETATM    8  N   UNK A   0      -6.902  14.652  67.477  1.00  0.00    -0.210 NA 
HETATM    9  H   UNK A   0      -6.321  14.888  66.672  1.00  0.00     0.000 HD 
BRANCH   8  10
HETATM   10  C   UNK A   0      -7.843  13.580  67.395  1.00  0.00    -0.147 A  
HETATM   11  C   UNK A   0      -7.492  12.249  67.722  1.00  0.00    -0.126 A  
HETATM   12  I   UNK A   0      -5.467  11.885  68.484  1.00  0.00    -0.055 I  
HETATM   13  C   UNK A   0      -8.461  11.223  67.713  1.00  0.00    -0.126 A  
HETATM   14  I   UNK A   0      -9.629  15.868  66.375  1.00  0.00    -0.408 I  
HETATM   15  C   UNK A   0      -9.834  11.596  67.640  1.00  0.00    -0.186 A  
HETATM   16  I   UNK A   0     -11.274  10.167  68.451  1.00  0.00     0.043 I  
HETATM   17  C   UNK A   0      -9.213  13.883  67.129  1.00  0.00    -0.239 A  
HETATM   18  C   UNK A   0     -10.239  12.930  67.334  1.00  0.00    -0.230 A  
BRANCH  13  19
HETATM   19  C   UNK A   0      -8.101   9.770  67.664  1.00  0.00    -0.113 C  
HETATM   20  O   UNK A   0      -8.058   9.196  66.453  1.00  0.00    -0.105 OA 
HETATM   21  H   UNK A   0      -7.829   8.275  66.423  1.00  0.00     0.000 HD 
BRANCH  19  22
ATOM     22  N   SER A   1      -7.828   9.082  68.716  1.00  0.00    -0.095 NA 
ATOM     23  H   SER A   1      -7.367   9.509  69.520  1.00  0.00     0.000 HD 
BRANCH  22  24
ATOM     24  CA  SER A   1      -8.205   7.641  68.724  1.00  0.00    -0.128 C  
BRANCH  24  25
ATOM     25  C   SER A   1      -8.965   7.380  70.037  1.00  0.00    -0.144 C  
ATOM     26  H   SER A   1     -10.085   5.952  70.798  1.00  0.00     0.000 HD 
ATOM     27  O   SER A   1      -9.616   6.113  69.988  1.00  0.00    -0.158 OA 
ENDBRANCH  24  25
BRANCH  24  28
ATOM     28  CB  SER A   1      -6.980   6.704  68.683  1.00  0.00    -0.080 C  
ATOM     29  OG  SER A   1      -6.692   6.062  69.924  1.00  0.00    -0.048 OA 
ATOM     30  HG  SER A   1      -5.938   5.485  69.899  1.00  0.00     0.000 HD 
ENDBRANCH  24  28
ENDBRANCH  22  24
ENDBRANCH  19  22
ENDBRANCH  13  19
BRANCH  18  31
HETATM   31  C   UNK A   0     -11.701  13.301  67.299  1.00  0.00    -0.377 C  
HETATM   32  H   UNK A   0     -13.270  13.202  66.144  1.00  0.00     0.000 HD 
HETATM   33  O   UNK A   0     -12.350  12.969  66.166  1.00  0.00    -0.439 OA 
BRANCH  31  34
ATOM     34  N   SER A   1     -12.316  13.943  68.232  1.00  0.00    -0.455 NA 
ATOM     35  H   SER A   1     -13.241  14.344  68.078  1.00  0.00     0.000 HD 
BRANCH  34  36
ATOM     36  CA  SER A   1     -11.618  14.078  69.547  1.00  0.00    -0.295 C  
BRANCH  36  37
ATOM     37  CB  SER A   1     -11.582  15.564  69.912  1.00  0.00    -0.335 C  
ATOM     38  HG  SER A   1     -10.209  16.922  70.306  1.00  0.00     0.000 HD 
ATOM     39  OG  SER A   1     -10.232  16.000  70.079  1.00  0.00    -0.255 OA 
ENDBRANCH  36  37
BRANCH  36  40
ATOM     40  C   SER A   1     -12.391  13.283  70.616  1.00  0.00    -0.339 C  
ATOM     41  H   SER A   1     -13.594  13.678  72.128  1.00  0.00     0.000 HD 
ATOM     42  O   SER A   1     -13.117  14.167  71.469  1.00  0.00    -0.321 OA 
ENDBRANCH  36  40
ENDBRANCH  34  36
ENDBRANCH  31  34
ENDBRANCH  18  31
ENDBRANCH   8  10
ENDBRANCH   5   8
ENDBRANCH   1   5
TORSDOF 13
ENDMDL
MODEL      114
REMARK 921   NORMALIZED FREE ENERGY PREDICTED BY IDOCK:   -3.84 KCAL/MOL
REMARK 922        TOTAL FREE ENERGY PREDICTED BY IDOCK:   -7.69 KCAL/MOL
REMARK 923 INTER-LIGAND FREE ENERGY PREDICTED BY IDOCK:   -6.11 KCAL/MOL
REMARK 924 INTRA-LIGAND FREE ENERGY PREDICTED BY IDOCK:   -1.58 KCAL/MOL
REMARK 927      BINDING AFFINITY PREDICTED BY RF-SCORE:    0.00 PKD
ROOT
HETATM    1  C   UNK A   0      -7.977   2.350  68.001  1.00  0.00    -0.058 C  
HETATM    2  O   UNK A   0      -7.485   2.098  69.329  1.00  0.00    -0.043 OA 
HETATM    3  C   UNK A   0      -9.430   1.938  67.928  1.00  0.00    -0.168 C  
HETATM    4  H   UNK A   0      -6.572   2.356  69.374  1.00  0.00     0.000 HD 
ENDROOT
BRANCH   1   5
HETATM    5  C   UNK A   0      -7.846   3.844  67.759  1.00  0.00    -0.078 C  
HETATM    6  O   UNK A   0      -6.602   4.312  68.012  1.00  0.00    -0.041 OA 
HETATM    7  H   UNK A   0      -6.519   5.247  67.862  1.00  0.00     0.000 HD 
BRANCH   5   8
HETATM    8  N   UNK A   0      -8.809   4.577  67.308  1.00  0.00    -0.104 NA 
HETATM    9  H   UNK A   0      -9.576   4.153  66.786  1.00  0.00     0.000 HD 
BRANCH   8  10
HETATM   10  C   UNK A   0      -8.793   5.986  67.543  1.00  0.00    -0.109 A  
HETATM   11  C   UNK A   0      -9.217   6.545  68.772  1.00  0.00    -0.131 A  
HETATM   12  I   UNK A   0      -9.799   5.164  70.374  1.00  0.00    -0.332 I  
HETATM   13  C   UNK A   0      -9.113   7.932  69.009  1.00  0.00    -0.144 A  
HETATM   14  I   UNK A   0      -7.812   5.974  64.626  1.00  0.00    -0.101 I  
HETATM   15  C   UNK A   0      -8.328   8.711  68.110  1.00  0.00    -0.127 A  
HETATM   16  I   UNK A   0      -7.499  10.570  68.904  1.00  0.00    -0.134 I  
HETATM   17  C   UNK A   0      -8.185   6.841  66.574  1.00  0.00    -0.117 A  
HETATM   18  C   UNK A   0      -7.859   8.186  66.869  1.00  0.00    -0.096 A  
BRANCH  13  19
HETATM   19  C   UNK A   0      -9.879   8.628  70.092  1.00  0.00    -0.180 C  
HETATM   20  O   UNK A   0      -9.266   8.766  71.276  1.00  0.00    -0.196 OA 
HETATM   21  H   UNK A   0      -9.752   9.208  71.962  1.00  0.00     0.000 HD 
BRANCH  19  22
ATOM     22  N   SER A   1     -11.066   9.093  69.919  1.00  0.00    -0.358 NA 
ATOM     23  H   SER A   1     -11.731   8.625  69.303  1.00  0.00     0.000 HD 
BRANCH  22  24
ATOM     24  CA  SER A   1     -11.440  10.337  70.649  1.00  0.00    -0.349 C  
BRANCH  24  25
ATOM     25  C   SER A   1     -12.580   9.968  71.616  1.00  0.00    -0.427 C  
ATOM     26  H   SER A   1     -12.907   8.627  73.019  1.00  0.00     0.000 HD 
ATOM     27  O   SER A   1     -12.203   8.855  72.423  1.00  0.00    -0.358 OA 
ENDBRANCH  24  25
BRANCH  24  28
ATOM     28  CB  SER A   1     -11.947  11.449  69.709  1.00  0.00    -0.353 C  
ATOM     29  OG  SER A   1     -12.533  10.972  68.499  1.00  0.00    -0.713 OA 
ATOM     30  HG  SER A   1     -12.846  11.657  67.921  1.00  0.00     0.000 HD 
ENDBRANCH  24  28
ENDBRANCH  22  24
ENDBRANCH  19  22
ENDBRANCH  13  19
BRANCH  18  31
HETATM   31  C   UNK A   0      -6.999   9.025  65.955  1.00  0.00    -0.085 C  
HETATM   32  H   UNK A   0      -5.131   9.440  65.578  1.00  0.00     0.000 HD 
HETATM   33  O   UNK A   0      -5.672   8.912  66.153  1.00  0.00    -0.044 OA 
BRANCH  31  34
ATOM     34  N   SER A   1      -7.455   9.852  65.078  1.00  0.00    -0.128 NA 
ATOM     35  H   SER A   1      -6.828  10.442  64.530  1.00  0.00     0.000 HD 
BRANCH  34  36
ATOM     36  CA  SER A   1      -8.937   9.911  64.894  1.00  0.00    -0.207 C  
BRANCH  36  37
ATOM     37  CB  SER A   1      -9.441  11.206  65.538  1.00  0.00    -0.221 C  
ATOM     38  HG  SER A   1     -10.861  11.737  66.796  1.00  0.00     0.000 HD 
ATOM     39  OG  SER A   1     -10.548  10.934  66.397  1.00  0.00    -0.254 OA 
ENDBRANCH  36  37
BRANCH  36  40
ATOM     40  C   SER A   1      -9.264   9.899  63.389  1.00  0.00    -0.240 C  
ATOM     41  H   SER A   1      -8.791  10.956  61.794  1.00  0.00     0.000 HD 
ATOM     42  O   SER A   1      -8.589  10.964  62.722  1.00  0.00    -0.212 OA 
ENDBRANCH  36  40
ENDBRANCH  34  36
ENDBRANCH  31  34
ENDBRANCH  18  31
ENDBRANCH   8  10
ENDBRANCH   5   8
ENDBRANCH   1   5
TORSDOF 13
ENDMDL
MODEL      115
REMARK 921   NORMALIZED FREE ENERGY PREDICTED BY IDOCK:   -3.80 KCAL/MOL
REMARK 922        TOTAL FREE ENERGY PREDICTED BY IDOCK:   -7.62 KCAL/MOL
REMARK 923 INTER-LIGAND FREE ENERGY PREDICTED BY IDOCK:   -6.20 KCAL/MOL
REMARK 924 INTRA-LIGAND FREE ENERGY PREDICTED BY IDOCK:   -1.43 KCAL/MOL
REMARK 927      BINDING AFFINITY PREDICTED BY RF-SCORE:    0.00 PKD
ROOT
HETATM    1  C   UNK A   0     -11.520  11.323  69.797  1.00  0.00    -0.310 C  
HETATM    2  O   UNK A   0     -12.229  11.441  68.551  1.00  0.00    -0.557 OA 
HETATM    3  C   UNK A   0     -12.513  11.391  70.936  1.00  0.00    -0.478 C  
HETATM    4  H   UNK A   0     -11.605  11.398  67.836  1.00  0.00     0.000 HD 
ENDROOT
BRANCH   1   5
HETATM    5  C   UNK A   0     -10.832   9.968  69.785  1.00  0.00    -0.273 C  
HETATM    6  O   UNK A   0      -9.656   9.968  70.454  1.00  0.00    -0.380 OA 
HETATM    7  H   UNK A   0      -9.225   9.122  70.447  1.00  0.00     0.000 HD 
BRANCH   5   8
HETATM    8  N   UNK A   0     -11.346   8.916  69.240  1.00  0.00    -0.363 NA 
HETATM    9  H   UNK A   0     -12.223   8.982  68.723  1.00  0.00     0.000 HD 
BRANCH   8  10
HETATM   10  C   UNK A   0     -10.679   7.659  69.365  1.00  0.00    -0.184 A  
HETATM   11  C   UNK A   0      -9.686   7.244  68.447  1.00  0.00    -0.148 A  
HETATM   12  I   UNK A   0      -9.103   8.651  66.868  1.00  0.00    -0.226 I  
HETATM   13  C   UNK A   0      -8.983   6.036  68.640  1.00  0.00    -0.118 A  
HETATM   14  I   UNK A   0     -12.613   7.418  71.746  1.00  0.00    -0.288 I  
HETATM   15  C   UNK A   0      -9.094   5.388  69.905  1.00  0.00    -0.135 A  
HETATM   16  I   UNK A   0      -7.439   4.081  70.476  1.00  0.00    -0.044 I  
HETATM   17  C   UNK A   0     -10.905   6.872  70.535  1.00  0.00    -0.253 A  
HETATM   18  C   UNK A   0     -10.065   5.784  70.873  1.00  0.00    -0.256 A  
BRANCH  13  19
HETATM   19  C   UNK A   0      -8.224   5.356  67.543  1.00  0.00    -0.100 C  
HETATM   20  O   UNK A   0      -6.951   5.733  67.362  1.00  0.00    -0.062 OA 
HETATM   21  H   UNK A   0      -6.470   5.302  66.665  1.00  0.00     0.000 HD 
BRANCH  19  22
ATOM     22  N   SER A   1      -8.740   4.441  66.800  1.00  0.00    -0.111 NA 
ATOM     23  H   SER A   1      -9.425   3.784  67.173  1.00  0.00     0.000 HD 
BRANCH  22  24
ATOM     24  CA  SER A   1      -8.304   4.371  65.377  1.00  0.00    -0.111 C  
BRANCH  24  25
ATOM     25  C   SER A   1      -9.563   4.098  64.532  1.00  0.00    -0.168 C  
ATOM     26  H   SER A   1     -10.049   2.982  62.986  1.00  0.00     0.000 HD 
ATOM     27  O   SER A   1      -9.273   3.150  63.507  1.00  0.00    -0.095 OA 
ENDBRANCH  24  25
BRANCH  24  28
ATOM     28  CB  SER A   1      -7.295   3.232  65.118  1.00  0.00    -0.071 C  
ATOM     29  OG  SER A   1      -7.652   1.987  65.715  1.00  0.00    -0.068 OA 
ATOM     30  HG  SER A   1      -7.031   1.286  65.555  1.00  0.00     0.000 HD 
ENDBRANCH  24  28
ENDBRANCH  22  24
ENDBRANCH  19  22
ENDBRANCH  13  19
BRANCH  18  31
HETATM   31  C   UNK A   0     -10.133   5.102  72.217  1.00  0.00    -0.192 C  
HETATM   32  H   UNK A   0     -10.568   3.384  73.033  1.00  0.00     0.000 HD 
HETATM   33  O   UNK A   0     -10.525   3.814  72.187  1.00  0.00    -0.102 OA 
BRANCH  31  34
ATOM     34  N   SER A   1      -9.902   5.682  73.345  1.00  0.00    -0.163 NA 
ATOM     35  H   SER A   1     -10.544   5.584  74.132  1.00  0.00     0.000 HD 
BRANCH  34  36
ATOM     36  CA  SER A   1      -8.658   6.502  73.453  1.00  0.00    -0.123 C  
BRANCH  36  37
ATOM     37  CB  SER A   1      -9.067   7.936  73.800  1.00  0.00    -0.242 C  
ATOM     38  HG  SER A   1      -8.851   9.731  73.016  1.00  0.00     0.000 HD 
ATOM     39  OG  SER A   1      -8.598   8.841  72.800  1.00  0.00    -0.412 OA 
ENDBRANCH  36  37
BRANCH  36  40
ATOM     40  C   SER A   1      -7.758   5.920  74.560  1.00  0.00    -0.096 C  
ATOM     41  H   SER A   1      -5.929   5.201  74.712  1.00  0.00     0.000 HD 
ATOM     42  O   SER A   1      -6.483   5.560  74.030  1.00  0.00    -0.070 OA 
ENDBRANCH  36  40
ENDBRANCH  34  36
ENDBRANCH  31  34
ENDBRANCH  18  31
ENDBRANCH   8  10
ENDBRANCH   5   8
ENDBRANCH   1   5
TORSDOF 13
ENDMDL
MODEL      116
REMARK 921   NORMALIZED FREE ENERGY PREDICTED BY IDOCK:   -3.80 KCAL/MOL
REMARK 922        TOTAL FREE ENERGY PREDICTED BY IDOCK:   -7.61 KCAL/MOL
REMARK 923 INTER-LIGAND FREE ENERGY PREDICTED BY IDOCK:   -7.48 KCAL/MOL
REMARK 924 INTRA-LIGAND FREE ENERGY PREDICTED BY IDOCK:   -0.13 KCAL/MOL
REMARK 927      BINDING AFFINITY PREDICTED BY RF-SCORE:    0.00 PKD
ROOT
HETATM    1  C   UNK A   0     -12.777   9.918  71.436  1.00  0.00    -0.403 C  
HETATM    2  O   UNK A   0     -14.021   9.421  70.911  1.00  0.00    -0.515 OA 
HETATM    3  C   UNK A   0     -12.062   8.793  72.150  1.00  0.00    -0.441 C  
HETATM    4  H   UNK A   0     -14.470  10.128  70.463  1.00  0.00     0.000 HD 
ENDROOT
BRANCH   1   5
HETATM    5  C   UNK A   0     -11.954  10.388  70.249  1.00  0.00    -0.302 C  
HETATM    6  O   UNK A   0     -12.656  10.399  69.092  1.00  0.00    -0.645 OA 
HETATM    7  H   UNK A   0     -12.142  10.693  68.349  1.00  0.00     0.000 HD 
BRANCH   5   8
HETATM    8  N   UNK A   0     -10.729  10.788  70.348  1.00  0.00    -0.375 NA 
HETATM    9  H   UNK A   0     -10.352  11.066  71.254  1.00  0.00     0.000 HD 
BRANCH   8  10
HETATM   10  C   UNK A   0      -9.908  10.838  69.181  1.00  0.00    -0.175 A  
HETATM   11  C   UNK A   0      -9.120   9.736  68.773  1.00  0.00    -0.136 A  
HETATM   12  I   UNK A   0      -9.285   7.879  69.929  1.00  0.00    -0.150 I  
HETATM   13  C   UNK A   0      -8.382   9.781  67.571  1.00  0.00    -0.114 A  
HETATM   14  I   UNK A   0     -11.000  13.714  69.124  1.00  0.00    -0.068 I  
HETATM   15  C   UNK A   0      -8.659  10.834  66.651  1.00  0.00    -0.143 A  
HETATM   16  I   UNK A   0      -8.182  10.442  64.554  1.00  0.00     0.041 I  
HETATM   17  C   UNK A   0     -10.005  11.970  68.317  1.00  0.00    -0.203 A  
HETATM   18  C   UNK A   0      -9.465  11.955  67.008  1.00  0.00    -0.192 A  
BRANCH  13  19
HETATM   19  C   UNK A   0      -7.253   8.842  67.278  1.00  0.00    -0.080 C  
HETATM   20  O   UNK A   0      -6.037   9.384  67.125  1.00  0.00    -0.061 OA 
HETATM   21  H   UNK A   0      -5.320   8.788  66.940  1.00  0.00     0.000 HD 
BRANCH  19  22
ATOM     22  N   SER A   1      -7.409   7.568  67.186  1.00  0.00    -0.092 NA 
ATOM     23  H   SER A   1      -7.292   6.962  67.998  1.00  0.00     0.000 HD 
BRANCH  22  24
ATOM     24  CA  SER A   1      -7.768   7.005  65.854  1.00  0.00    -0.101 C  
BRANCH  24  25
ATOM     25  C   SER A   1      -8.991   6.094  66.063  1.00  0.00    -0.145 C  
ATOM     26  H   SER A   1     -10.839   6.285  66.713  1.00  0.00     0.000 HD 
ATOM     27  O   SER A   1     -10.084   6.847  66.584  1.00  0.00    -0.191 OA 
ENDBRANCH  24  25
BRANCH  24  28
ATOM     28  CB  SER A   1      -6.635   6.155  65.242  1.00  0.00    -0.043 C  
ATOM     29  OG  SER A   1      -6.855   4.748  65.311  1.00  0.00    -0.057 OA 
ATOM     30  HG  SER A   1      -6.158   4.225  64.934  1.00  0.00     0.000 HD 
ENDBRANCH  24  28
ENDBRANCH  22  24
ENDBRANCH  19  22
ENDBRANCH  13  19
BRANCH  18  31
HETATM   31  C   UNK A   0      -9.770  13.036  65.999  1.00  0.00    -0.216 C  
HETATM   32  H   UNK A   0      -9.436  14.924  65.643  1.00  0.00     0.000 HD 
HETATM   33  O   UNK A   0      -9.244  14.244  66.278  1.00  0.00    -0.244 OA 
BRANCH  31  34
ATOM     34  N   SER A   1     -10.522  12.880  64.964  1.00  0.00    -0.308 NA 
ATOM     35  H   SER A   1     -10.135  12.891  64.021  1.00  0.00     0.000 HD 
BRANCH  34  36
ATOM     36  CA  SER A   1     -11.985  12.683  65.203  1.00  0.00    -0.428 C  
BRANCH  36  37
ATOM     37  CB  SER A   1     -12.643  14.064  65.263  1.00  0.00    -0.470 C  
ATOM     38  HG  SER A   1     -12.892  15.600  64.055  1.00  0.00     0.000 HD 
ATOM     39  OG  SER A   1     -12.484  14.743  64.018  1.00  0.00    -0.803 OA 
ENDBRANCH  36  37
BRANCH  36  40
ATOM     40  C   SER A   1     -12.582  11.855  64.049  1.00  0.00    -0.282 C  
ATOM     41  H   SER A   1     -11.974  11.130  62.320  1.00  0.00     0.000 HD 
ATOM     42  O   SER A   1     -11.606  11.640  63.031  1.00  0.00    -0.142 OA 
ENDBRANCH  36  40
ENDBRANCH  34  36
ENDBRANCH  31  34
ENDBRANCH  18  31
ENDBRANCH   8  10
ENDBRANCH   5   8
ENDBRANCH   1   5
TORSDOF 13
ENDMDL
MODEL      117
REMARK 921   NORMALIZED FREE ENERGY PREDICTED BY IDOCK:   -3.79 KCAL/MOL
REMARK 922        TOTAL FREE ENERGY PREDICTED BY IDOCK:   -7.61 KCAL/MOL
REMARK 923 INTER-LIGAND FREE ENERGY PREDICTED BY IDOCK:   -6.86 KCAL/MOL
REMARK 924 INTRA-LIGAND FREE ENERGY PREDICTED BY IDOCK:   -0.75 KCAL/MOL
REMARK 927      BINDING AFFINITY PREDICTED BY RF-SCORE:    0.00 PKD
ROOT
HETATM    1  C   UNK A   0      -9.403   4.341  64.374  1.00  0.00    -0.157 C  
HETATM    2  O   UNK A   0      -8.021   4.382  63.977  1.00  0.00    -0.086 OA 
HETATM    3  C   UNK A   0      -9.782   2.911  64.686  1.00  0.00    -0.086 C  
HETATM    4  H   UNK A   0      -7.783   5.280  63.781  1.00  0.00     0.000 HD 
ENDROOT
BRANCH   1   5
HETATM    5  C   UNK A   0      -9.528   5.198  65.623  1.00  0.00    -0.115 C  
HETATM    6  O   UNK A   0     -10.801   5.291  66.072  1.00  0.00    -0.634 OA 
HETATM    7  H   UNK A   0     -10.879   5.827  66.853  1.00  0.00     0.000 HD 
BRANCH   5   8
HETATM    8  N   UNK A   0      -8.515   5.734  66.219  1.00  0.00    -0.122 NA 
HETATM    9  H   UNK A   0      -7.609   5.777  65.754  1.00  0.00     0.000 HD 
BRANCH   8  10
HETATM   10  C   UNK A   0      -8.674   6.266  67.536  1.00  0.00    -0.105 A  
HETATM   11  C   UNK A   0      -8.641   5.441  68.685  1.00  0.00    -0.095 A  
HETATM   12  I   UNK A   0      -8.216   3.308  68.399  1.00  0.00    -0.104 I  
HETATM   13  C   UNK A   0      -8.716   6.000  69.979  1.00  0.00    -0.135 A  
HETATM   14  I   UNK A   0      -9.029   8.861  65.922  1.00  0.00    -0.263 I  
HETATM   15  C   UNK A   0      -8.548   7.410  70.112  1.00  0.00    -0.139 A  
HETATM   16  I   UNK A   0      -7.838   8.124  72.051  1.00  0.00    -0.168 I  
HETATM   17  C   UNK A   0      -8.707   7.683  67.708  1.00  0.00    -0.127 A  
HETATM   18  C   UNK A   0      -8.553   8.281  68.982  1.00  0.00    -0.135 A  
BRANCH  13  19
HETATM   19  C   UNK A   0      -9.074   5.195  71.189  1.00  0.00    -0.143 C  
HETATM   20  O   UNK A   0      -8.102   4.987  72.088  1.00  0.00    -0.108 OA 
HETATM   21  H   UNK A   0      -8.329   4.476  72.857  1.00  0.00     0.000 HD 
BRANCH  19  22
ATOM     22  N   SER A   1     -10.254   4.723  71.391  1.00  0.00    -0.191 NA 
ATOM     23  H   SER A   1     -10.506   3.785  71.077  1.00  0.00     0.000 HD 
BRANCH  22  24
ATOM     24  CA  SER A   1     -11.239   5.589  72.096  1.00  0.00    -0.183 C  
BRANCH  24  25
ATOM     25  C   SER A   1     -11.803   6.572  71.054  1.00  0.00    -0.330 C  
ATOM     26  H   SER A   1     -13.393   7.716  70.859  1.00  0.00     0.000 HD 
ATOM     27  O   SER A   1     -13.045   7.109  71.503  1.00  0.00    -0.381 OA 
ENDBRANCH  24  25
BRANCH  24  28
ATOM     28  CB  SER A   1     -10.602   6.410  73.236  1.00  0.00    -0.268 C  
ATOM     29  OG  SER A   1     -11.223   7.673  73.466  1.00  0.00    -0.586 OA 
ATOM     30  HG  SER A   1     -10.830   8.179  74.168  1.00  0.00     0.000 HD 
ENDBRANCH  24  28
ENDBRANCH  22  24
ENDBRANCH  19  22
ENDBRANCH  13  19
BRANCH  18  31
HETATM   31  C   UNK A   0      -8.338   9.764  69.154  1.00  0.00    -0.137 C  
HETATM   32  H   UNK A   0      -6.968  11.138  68.951  1.00  0.00     0.000 HD 
HETATM   33  O   UNK A   0      -7.104  10.204  68.843  1.00  0.00    -0.064 OA 
BRANCH  31  34
ATOM     34  N   SER A   1      -9.218  10.582  69.621  1.00  0.00    -0.411 NA 
ATOM     35  H   SER A   1      -8.956  11.336  70.258  1.00  0.00     0.000 HD 
BRANCH  34  36
ATOM     36  CA  SER A   1     -10.636  10.383  69.193  1.00  0.00    -0.228 C  
BRANCH  36  37
ATOM     37  CB  SER A   1     -11.531  10.570  70.421  1.00  0.00    -0.341 C  
ATOM     38  HG  SER A   1     -11.592   9.913  72.278  1.00  0.00     0.000 HD 
ATOM     39  OG  SER A   1     -11.037   9.798  71.516  1.00  0.00    -0.343 OA 
ENDBRANCH  36  37
BRANCH  36  40
ATOM     40  C   SER A   1     -10.990  11.419  68.110  1.00  0.00    -0.232 C  
ATOM     41  H   SER A   1     -12.624  12.201  67.331  1.00  0.00     0.000 HD 
ATOM     42  O   SER A   1     -12.406  11.562  67.998  1.00  0.00    -0.445 OA 
ENDBRANCH  36  40
ENDBRANCH  34  36
ENDBRANCH  31  34
ENDBRANCH  18  31
ENDBRANCH   8  10
ENDBRANCH   5   8
ENDBRANCH   1   5
TORSDOF 13
ENDMDL
MODEL      118
REMARK 921   NORMALIZED FREE ENERGY PREDICTED BY IDOCK:   -3.78 KCAL/MOL
REMARK 922        TOTAL FREE ENERGY PREDICTED BY IDOCK:   -7.59 KCAL/MOL
REMARK 923 INTER-LIGAND FREE ENERGY PREDICTED BY IDOCK:   -7.90 KCAL/MOL
REMARK 924 INTRA-LIGAND FREE ENERGY PREDICTED BY IDOCK:    0.31 KCAL/MOL
REMARK 927      BINDING AFFINITY PREDICTED BY RF-SCORE:    0.00 PKD
ROOT
HETATM    1  C   UNK A   0      -7.803  10.270  65.848  1.00  0.00    -0.139 C  
HETATM    2  O   UNK A   0      -7.919  10.719  64.486  1.00  0.00    -0.355 OA 
HETATM    3  C   UNK A   0      -7.083   8.940  65.867  1.00  0.00    -0.084 C  
HETATM    4  H   UNK A   0      -8.372  11.554  64.474  1.00  0.00     0.000 HD 
ENDROOT
BRANCH   1   5
HETATM    5  C   UNK A   0      -6.985  11.316  66.587  1.00  0.00    -0.129 C  
HETATM    6  O   UNK A   0      -5.809  11.592  65.978  1.00  0.00    -0.495 OA 
HETATM    7  H   UNK A   0      -5.297  12.246  66.440  1.00  0.00     0.000 HD 
BRANCH   5   8
HETATM    8  N   UNK A   0      -7.398  11.915  67.655  1.00  0.00    -0.113 NA 
HETATM    9  H   UNK A   0      -6.802  12.597  68.124  1.00  0.00     0.000 HD 
BRANCH   8  10
HETATM   10  C   UNK A   0      -8.695  11.615  68.174  1.00  0.00    -0.159 A  
HETATM   11  C   UNK A   0      -8.906  10.565  69.099  1.00  0.00    -0.151 A  
HETATM   12  I   UNK A   0      -7.148   9.468  69.817  1.00  0.00    -0.122 I  
HETATM   13  C   UNK A   0     -10.182  10.343  69.660  1.00  0.00    -0.245 A  
HETATM   14  I   UNK A   0      -9.459  13.900  66.260  1.00  0.00    -0.030 I  
HETATM   15  C   UNK A   0     -11.175  11.352  69.493  1.00  0.00    -0.256 A  
HETATM   16  I   UNK A   0     -12.762  11.410  70.994  1.00  0.00    -0.160 I  
HETATM   17  C   UNK A   0      -9.778  12.496  67.875  1.00  0.00    -0.205 A  
HETATM   18  C   UNK A   0     -10.999  12.442  68.589  1.00  0.00    -0.283 A  
BRANCH  13  19
HETATM   19  C   UNK A   0     -10.562   9.053  70.319  1.00  0.00    -0.217 C  
HETATM   20  O   UNK A   0     -10.055   8.822  71.538  1.00  0.00    -0.243 OA 
HETATM   21  H   UNK A   0     -10.297   8.003  71.956  1.00  0.00     0.000 HD 
BRANCH  19  22
ATOM     22  N   SER A   1     -11.348   8.194  69.771  1.00  0.00    -0.453 NA 
ATOM     23  H   SER A   1     -12.361   8.276  69.860  1.00  0.00     0.000 HD 
BRANCH  22  24
ATOM     24  CA  SER A   1     -10.731   7.076  69.004  1.00  0.00    -0.210 C  
BRANCH  24  25
ATOM     25  C   SER A   1      -9.415   6.713  69.715  1.00  0.00    -0.147 C  
ATOM     26  H   SER A   1      -8.852   5.576  71.220  1.00  0.00     0.000 HD 
ATOM     27  O   SER A   1      -9.664   5.800  70.781  1.00  0.00    -0.166 OA 
ENDBRANCH  24  25
BRANCH  24  28
ATOM     28  CB  SER A   1     -10.401   7.464  67.548  1.00  0.00    -0.251 C  
ATOM     29  OG  SER A   1     -10.788   6.491  66.580  1.00  0.00    -0.526 OA 
ATOM     30  HG  SER A   1     -10.584   6.730  65.683  1.00  0.00     0.000 HD 
ENDBRANCH  24  28
ENDBRANCH  22  24
ENDBRANCH  19  22
ENDBRANCH  13  19
BRANCH  18  31
HETATM   31  C   UNK A   0     -12.054  13.513  68.462  1.00  0.00    -0.268 C  
HETATM   32  H   UNK A   0     -13.117  14.453  67.124  1.00  0.00     0.000 HD 
HETATM   33  O   UNK A   0     -12.453  13.779  67.204  1.00  0.00    -0.280 OA 
BRANCH  31  34
ATOM     34  N   SER A   1     -12.527  14.195  69.449  1.00  0.00    -0.491 NA 
ATOM     35  H   SER A   1     -13.525  14.197  69.662  1.00  0.00     0.000 HD 
BRANCH  34  36
ATOM     36  CA  SER A   1     -11.555  14.981  70.268  1.00  0.00    -0.288 C  
BRANCH  36  37
ATOM     37  CB  SER A   1     -10.893  16.014  69.352  1.00  0.00    -0.300 C  
ATOM     38  HG  SER A   1      -9.061  16.530  68.842  1.00  0.00     0.000 HD 
ATOM     39  OG  SER A   1      -9.472  15.889  69.410  1.00  0.00    -0.246 OA 
ENDBRANCH  36  37
BRANCH  36  40
ATOM     40  C   SER A   1     -12.307  15.685  71.413  1.00  0.00    -0.426 C  
ATOM     41  H   SER A   1     -12.109  15.897  73.363  1.00  0.00     0.000 HD 
ATOM     42  O   SER A   1     -11.646  15.462  72.657  1.00  0.00    -0.459 OA 
ENDBRANCH  36  40
ENDBRANCH  34  36
ENDBRANCH  31  34
ENDBRANCH  18  31
ENDBRANCH   8  10
ENDBRANCH   5   8
ENDBRANCH   1   5
TORSDOF 13
ENDMDL
MODEL      119
REMARK 921   NORMALIZED FREE ENERGY PREDICTED BY IDOCK:   -3.78 KCAL/MOL
REMARK 922        TOTAL FREE ENERGY PREDICTED BY IDOCK:   -7.58 KCAL/MOL
REMARK 923 INTER-LIGAND FREE ENERGY PREDICTED BY IDOCK:   -6.71 KCAL/MOL
REMARK 924 INTRA-LIGAND FREE ENERGY PREDICTED BY IDOCK:   -0.87 KCAL/MOL
REMARK 927      BINDING AFFINITY PREDICTED BY RF-SCORE:    0.00 PKD
ROOT
HETATM    1  C   UNK A   0     -11.291  11.524  69.411  1.00  0.00    -0.289 C  
HETATM    2  O   UNK A   0     -12.068  11.707  68.214  1.00  0.00    -0.552 OA 
HETATM    3  C   UNK A   0     -12.212  11.588  70.609  1.00  0.00    -0.473 C  
HETATM    4  H   UNK A   0     -11.489  11.666  67.462  1.00  0.00     0.000 HD 
ENDROOT
BRANCH   1   5
HETATM    5  C   UNK A   0     -10.655  10.147  69.317  1.00  0.00    -0.230 C  
HETATM    6  O   UNK A   0      -9.439  10.087  69.907  1.00  0.00    -0.269 OA 
HETATM    7  H   UNK A   0      -9.040   9.227  69.848  1.00  0.00     0.000 HD 
BRANCH   5   8
HETATM    8  N   UNK A   0     -11.241   9.130  68.776  1.00  0.00    -0.427 NA 
HETATM    9  H   UNK A   0     -12.234   9.171  68.550  1.00  0.00     0.000 HD 
BRANCH   8  10
HETATM   10  C   UNK A   0     -10.487   7.948  68.499  1.00  0.00    -0.167 A  
HETATM   11  C   UNK A   0      -9.689   7.825  67.338  1.00  0.00    -0.163 A  
HETATM   12  I   UNK A   0      -9.539   9.566  66.012  1.00  0.00    -0.332 I  
HETATM   13  C   UNK A   0      -8.889   6.681  67.129  1.00  0.00    -0.115 A  
HETATM   14  I   UNK A   0     -11.855   7.049  71.105  1.00  0.00    -0.406 I  
HETATM   15  C   UNK A   0      -8.690   5.791  68.224  1.00  0.00    -0.111 A  
HETATM   16  I   UNK A   0      -6.876   4.574  68.170  1.00  0.00    -0.057 I  
HETATM   17  C   UNK A   0     -10.413   6.928  69.496  1.00  0.00    -0.223 A  
HETATM   18  C   UNK A   0      -9.456   5.888  69.425  1.00  0.00    -0.157 A  
BRANCH  13  19
HETATM   19  C   UNK A   0      -8.341   6.311  65.786  1.00  0.00    -0.145 C  
HETATM   20  O   UNK A   0      -7.070   6.653  65.534  1.00  0.00    -0.061 OA 
HETATM   21  H   UNK A   0      -6.722   6.418  64.682  1.00  0.00     0.000 HD 
BRANCH  19  22
ATOM     22  N   SER A   1      -9.029   5.683  64.899  1.00  0.00    -0.360 NA 
ATOM     23  H   SER A   1      -9.494   6.184  64.141  1.00  0.00     0.000 HD 
BRANCH  22  24
ATOM     24  CA  SER A   1      -9.128   4.201  65.014  1.00  0.00    -0.143 C  
BRANCH  24  25
ATOM     25  C   SER A   1      -8.046   3.604  64.096  1.00  0.00    -0.089 C  
ATOM     26  H   SER A   1      -7.597   3.642  62.180  1.00  0.00     0.000 HD 
ATOM     27  O   SER A   1      -8.264   4.011  62.747  1.00  0.00    -0.077 OA 
ENDBRANCH  24  25
BRANCH  24  28
ATOM     28  CB  SER A   1     -10.498   3.658  64.559  1.00  0.00    -0.129 C  
ATOM     29  OG  SER A   1     -11.577   4.577  64.723  1.00  0.00    -0.988 OA 
ATOM     30  HG  SER A   1     -12.420   4.242  64.443  1.00  0.00     0.000 HD 
ENDBRANCH  24  28
ENDBRANCH  22  24
ENDBRANCH  19  22
ENDBRANCH  13  19
BRANCH  18  31
HETATM   31  C   UNK A   0      -9.197   4.952  70.579  1.00  0.00    -0.142 C  
HETATM   32  H   UNK A   0      -9.429   3.090  71.113  1.00  0.00     0.000 HD 
HETATM   33  O   UNK A   0      -9.593   3.679  70.386  1.00  0.00    -0.177 OA 
BRANCH  31  34
ATOM     34  N   SER A   1      -8.693   5.308  71.711  1.00  0.00    -0.133 NA 
ATOM     35  H   SER A   1      -9.259   5.772  72.421  1.00  0.00     0.000 HD 
BRANCH  34  36
ATOM     36  CA  SER A   1      -7.245   5.013  71.941  1.00  0.00    -0.075 C  
BRANCH  36  37
ATOM     37  CB  SER A   1      -6.518   6.346  72.139  1.00  0.00    -0.054 C  
ATOM     38  HG  SER A   1      -4.987   7.290  71.336  1.00  0.00     0.000 HD 
ATOM     39  OG  SER A   1      -5.438   6.464  71.213  1.00  0.00    -0.025 OA 
ENDBRANCH  36  37
BRANCH  36  40
ATOM     40  C   SER A   1      -7.098   4.132  73.196  1.00  0.00    -0.067 C  
ATOM     41  H   SER A   1      -6.851   4.399  75.134  1.00  0.00     0.000 HD 
ATOM     42  O   SER A   1      -6.941   4.942  74.360  1.00  0.00    -0.070 OA 
ENDBRANCH  36  40
ENDBRANCH  34  36
ENDBRANCH  31  34
ENDBRANCH  18  31
ENDBRANCH   8  10
ENDBRANCH   5   8
ENDBRANCH   1   5
TORSDOF 13
ENDMDL
MODEL      120
REMARK 921   NORMALIZED FREE ENERGY PREDICTED BY IDOCK:   -3.75 KCAL/MOL
REMARK 922        TOTAL FREE ENERGY PREDICTED BY IDOCK:   -7.54 KCAL/MOL
REMARK 923 INTER-LIGAND FREE ENERGY PREDICTED BY IDOCK:   -6.58 KCAL/MOL
REMARK 924 INTRA-LIGAND FREE ENERGY PREDICTED BY IDOCK:   -0.96 KCAL/MOL
REMARK 927      BINDING AFFINITY PREDICTED BY RF-SCORE:    0.00 PKD
ROOT
HETATM    1  C   UNK A   0      -8.550  10.362  62.909  1.00  0.00    -0.192 C  
HETATM    2  O   UNK A   0      -8.960  11.722  62.678  1.00  0.00    -0.580 OA 
HETATM    3  C   UNK A   0      -7.052  10.262  62.724  1.00  0.00    -0.133 C  
HETATM    4  H   UNK A   0      -9.900  11.784  62.794  1.00  0.00     0.000 HD 
ENDROOT
BRANCH   1   5
HETATM    5  C   UNK A   0      -8.921  10.028  64.344  1.00  0.00    -0.231 C  
HETATM    6  O   UNK A   0     -10.258   9.961  64.541  1.00  0.00    -0.378 OA 
HETATM    7  H   UNK A   0     -10.491   9.752  65.438  1.00  0.00     0.000 HD 
BRANCH   5   8
HETATM    8  N   UNK A   0      -8.048   9.782  65.264  1.00  0.00    -0.121 NA 
HETATM    9  H   UNK A   0      -7.094  10.131  65.173  1.00  0.00     0.000 HD 
BRANCH   8  10
HETATM   10  C   UNK A   0      -8.427   9.015  66.408  1.00  0.00    -0.120 A  
HETATM   11  C   UNK A   0      -8.831   9.627  67.618  1.00  0.00    -0.125 A  
HETATM   12  I   UNK A   0      -8.976  11.815  67.657  1.00  0.00    -0.195 I  
HETATM   13  C   UNK A   0      -9.280   8.849  68.707  1.00  0.00    -0.140 A  
HETATM   14  I   UNK A   0      -7.669   6.711  64.515  1.00  0.00    -0.087 I  
HETATM   15  C   UNK A   0      -9.578   7.475  68.472  1.00  0.00    -0.150 A  
HETATM   16  I   UNK A   0     -11.006   6.544  69.840  1.00  0.00    -0.472 I  
HETATM   17  C   UNK A   0      -8.554   7.599  66.279  1.00  0.00    -0.144 A  
HETATM   18  C   UNK A   0      -9.211   6.818  67.260  1.00  0.00    -0.140 A  
BRANCH  13  19
HETATM   19  C   UNK A   0      -9.347   9.377  70.106  1.00  0.00    -0.241 C  
HETATM   20  O   UNK A   0      -8.432   8.919  70.972  1.00  0.00    -0.166 OA 
HETATM   21  H   UNK A   0      -8.474   9.254  71.860  1.00  0.00     0.000 HD 
BRANCH  19  22
ATOM     22  N   SER A   1     -10.222  10.240  70.486  1.00  0.00    -0.353 NA 
ATOM     23  H   SER A   1      -9.941  11.153  70.845  1.00  0.00     0.000 HD 
BRANCH  22  24
ATOM     24  CA  SER A   1     -11.660   9.864  70.387  1.00  0.00    -0.282 C  
BRANCH  24  25
ATOM     25  C   SER A   1     -12.376  11.009  69.646  1.00  0.00    -0.234 C  
ATOM     26  H   SER A   1     -12.428  12.974  69.733  1.00  0.00     0.000 HD 
ATOM     27  O   SER A   1     -11.986  12.268  70.190  1.00  0.00    -0.334 OA 
ENDBRANCH  24  25
BRANCH  24  28
ATOM     28  CB  SER A   1     -12.328   9.692  71.767  1.00  0.00    -0.392 C  
ATOM     29  OG  SER A   1     -13.249  10.728  72.105  1.00  0.00    -0.578 OA 
ATOM     30  HG  SER A   1     -13.660  10.622  72.955  1.00  0.00     0.000 HD 
ENDBRANCH  24  28
ENDBRANCH  22  24
ENDBRANCH  19  22
ENDBRANCH  13  19
BRANCH  18  31
HETATM   31  C   UNK A   0      -9.573   5.372  67.029  1.00  0.00    -0.139 C  
HETATM   32  H   UNK A   0     -10.965   4.258  66.238  1.00  0.00     0.000 HD 
HETATM   33  O   UNK A   0     -10.737   5.168  66.384  1.00  0.00    -0.308 OA 
BRANCH  31  34
ATOM     34  N   SER A   1      -8.884   4.368  67.452  1.00  0.00    -0.105 NA 
ATOM     35  H   SER A   1      -9.210   3.410  67.326  1.00  0.00     0.000 HD 
BRANCH  34  36
ATOM     36  CA  SER A   1      -7.587   4.665  68.135  1.00  0.00    -0.077 C  
BRANCH  36  37
ATOM     37  CB  SER A   1      -7.707   4.212  69.593  1.00  0.00    -0.053 C  
ATOM     38  HG  SER A   1      -7.106   4.848  71.358  1.00  0.00     0.000 HD 
ATOM     39  OG  SER A   1      -7.032   5.129  70.453  1.00  0.00    -0.046 OA 
ENDBRANCH  36  37
BRANCH  36  40
ATOM     40  C   SER A   1      -6.453   3.899  67.428  1.00  0.00    -0.038 C  
ATOM     41  H   SER A   1      -5.509   2.181  67.645  1.00  0.00     0.000 HD 
ATOM     42  O   SER A   1      -6.208   2.654  68.080  1.00  0.00    -0.027 OA 
ENDBRANCH  36  40
ENDBRANCH  34  36
ENDBRANCH  31  34
ENDBRANCH  18  31
ENDBRANCH   8  10
ENDBRANCH   5   8
ENDBRANCH   1   5
TORSDOF 13
ENDMDL
MODEL      121
REMARK 921   NORMALIZED FREE ENERGY PREDICTED BY IDOCK:   -3.74 KCAL/MOL
REMARK 922        TOTAL FREE ENERGY PREDICTED BY IDOCK:   -7.52 KCAL/MOL
REMARK 923 INTER-LIGAND FREE ENERGY PREDICTED BY IDOCK:   -6.73 KCAL/MOL
REMARK 924 INTRA-LIGAND FREE ENERGY PREDICTED BY IDOCK:   -0.79 KCAL/MOL
REMARK 927      BINDING AFFINITY PREDICTED BY RF-SCORE:    0.00 PKD
ROOT
HETATM    1  C   UNK A   0      -6.814  10.091  63.528  1.00  0.00    -0.133 C  
HETATM    2  O   UNK A   0      -7.311  11.072  62.600  1.00  0.00    -0.371 OA 
HETATM    3  C   UNK A   0      -5.369  10.404  63.847  1.00  0.00    -0.151 C  
HETATM    4  H   UNK A   0      -8.218  10.875  62.399  1.00  0.00     0.000 HD 
ENDROOT
BRANCH   1   5
HETATM    5  C   UNK A   0      -7.662  10.205  64.784  1.00  0.00    -0.141 C  
HETATM    6  O   UNK A   0      -6.986  10.735  65.829  1.00  0.00    -0.243 OA 
HETATM    7  H   UNK A   0      -7.516  10.806  66.615  1.00  0.00     0.000 HD 
BRANCH   5   8
HETATM    8  N   UNK A   0      -8.911   9.879  64.828  1.00  0.00    -0.199 NA 
HETATM    9  H   UNK A   0      -9.562  10.246  64.134  1.00  0.00     0.000 HD 
BRANCH   8  10
HETATM   10  C   UNK A   0      -9.375   9.003  65.857  1.00  0.00    -0.242 A  
HETATM   11  C   UNK A   0      -9.133   7.609  65.818  1.00  0.00     0.009 A  
HETATM   12  I   UNK A   0      -7.906   6.831  64.174  1.00  0.00     0.022 I  
HETATM   13  C   UNK A   0      -9.528   6.777  66.887  1.00  0.00    -0.189 A  
HETATM   14  I   UNK A   0     -10.545  11.646  66.912  1.00  0.00    -0.329 I  
HETATM   15  C   UNK A   0      -9.921   7.395  68.110  1.00  0.00    -0.166 A  
HETATM   16  I   UNK A   0      -9.708   6.189  69.920  1.00  0.00    -0.230 I  
HETATM   17  C   UNK A   0      -9.959   9.566  67.032  1.00  0.00    -0.213 A  
HETATM   18  C   UNK A   0     -10.156   8.800  68.205  1.00  0.00    -0.228 A  
BRANCH  13  19
HETATM   19  C   UNK A   0      -9.659   5.292  66.751  1.00  0.00    -0.148 C  
HETATM   20  O   UNK A   0     -10.856   4.819  66.378  1.00  0.00    -0.456 OA 
HETATM   21  H   UNK A   0     -10.938   3.877  66.292  1.00  0.00     0.000 HD 
BRANCH  19  22
ATOM     22  N   SER A   1      -8.681   4.482  66.963  1.00  0.00    -0.104 NA 
ATOM     23  H   SER A   1      -7.978   4.681  67.675  1.00  0.00     0.000 HD 
BRANCH  22  24
ATOM     24  CA  SER A   1      -8.609   3.246  66.136  1.00  0.00    -0.121 C  
BRANCH  24  25
ATOM     25  C   SER A   1      -8.872   2.056  67.078  1.00  0.00    -0.130 C  
ATOM     26  H   SER A   1      -8.641   1.650  68.990  1.00  0.00     0.000 HD 
ATOM     27  O   SER A   1      -8.479   2.384  68.408  1.00  0.00    -0.063 OA 
ENDBRANCH  24  25
BRANCH  24  28
ATOM     28  CB  SER A   1      -7.225   3.045  65.484  1.00  0.00    -0.070 C  
ATOM     29  OG  SER A   1      -6.512   1.905  65.961  1.00  0.00    -0.023 OA 
ATOM     30  HG  SER A   1      -5.660   1.782  65.559  1.00  0.00     0.000 HD 
ENDBRANCH  24  28
ENDBRANCH  22  24
ENDBRANCH  19  22
ENDBRANCH  13  19
BRANCH  18  31
HETATM   31  C   UNK A   0     -10.536   9.428  69.523  1.00  0.00    -0.218 C  
HETATM   32  H   UNK A   0      -9.760  10.394  71.030  1.00  0.00     0.000 HD 
HETATM   33  O   UNK A   0      -9.521   9.998  70.200  1.00  0.00    -0.213 OA 
BRANCH  31  34
ATOM     34  N   SER A   1     -11.718   9.393  70.037  1.00  0.00    -0.456 NA 
ATOM     35  H   SER A   1     -12.534   9.158  69.473  1.00  0.00     0.000 HD 
BRANCH  34  36
ATOM     36  CA  SER A   1     -11.842   9.712  71.492  1.00  0.00    -0.407 C  
BRANCH  36  37
ATOM     37  CB  SER A   1     -13.063  10.619  71.673  1.00  0.00    -0.450 C  
ATOM     38  HG  SER A   1     -13.448  12.551  71.623  1.00  0.00     0.000 HD 
ATOM     39  OG  SER A   1     -12.691  11.988  71.510  1.00  0.00    -0.336 OA 
ENDBRANCH  36  37
BRANCH  36  40
ATOM     40  C   SER A   1     -12.025   8.405  72.286  1.00  0.00    -0.389 C  
ATOM     41  H   SER A   1     -13.035   6.722  72.095  1.00  0.00     0.000 HD 
ATOM     42  O   SER A   1     -12.922   7.529  71.606  1.00  0.00    -0.341 OA 
ENDBRANCH  36  40
ENDBRANCH  34  36
ENDBRANCH  31  34
ENDBRANCH  18  31
ENDBRANCH   8  10
ENDBRANCH   5   8
ENDBRANCH   1   5
TORSDOF 13
ENDMDL
MODEL      122
REMARK 921   NORMALIZED FREE ENERGY PREDICTED BY IDOCK:   -3.74 KCAL/MOL
REMARK 922        TOTAL FREE ENERGY PREDICTED BY IDOCK:   -7.51 KCAL/MOL
REMARK 923 INTER-LIGAND FREE ENERGY PREDICTED BY IDOCK:   -8.20 KCAL/MOL
REMARK 924 INTRA-LIGAND FREE ENERGY PREDICTED BY IDOCK:    0.69 KCAL/MOL
REMARK 927      BINDING AFFINITY PREDICTED BY RF-SCORE:    0.00 PKD
ROOT
HETATM    1  C   UNK A   0      -8.764   6.127  64.758  1.00  0.00     0.168 C  
HETATM    2  O   UNK A   0      -8.438   5.979  63.364  1.00  0.00    -0.311 OA 
HETATM    3  C   UNK A   0      -9.139   4.775  65.322  1.00  0.00    -0.155 C  
HETATM    4  H   UNK A   0      -8.202   6.828  63.010  1.00  0.00     0.000 HD 
ENDROOT
BRANCH   1   5
HETATM    5  C   UNK A   0      -7.517   6.653  65.448  1.00  0.00    -0.080 C  
HETATM    6  O   UNK A   0      -6.465   5.807  65.352  1.00  0.00    -0.040 OA 
HETATM    7  H   UNK A   0      -5.685   6.135  65.784  1.00  0.00     0.000 HD 
BRANCH   5   8
HETATM    8  N   UNK A   0      -7.456   7.811  66.019  1.00  0.00    -0.077 NA 
HETATM    9  H   UNK A   0      -6.588   8.346  66.002  1.00  0.00     0.000 HD 
BRANCH   8  10
HETATM   10  C   UNK A   0      -8.613   8.335  66.673  1.00  0.00    -0.129 A  
HETATM   11  C   UNK A   0      -9.058   7.836  67.919  1.00  0.00    -0.131 A  
HETATM   12  I   UNK A   0      -7.842   6.293  68.895  1.00  0.00    -0.107 I  
HETATM   13  C   UNK A   0     -10.154   8.427  68.584  1.00  0.00    -0.210 A  
HETATM   14  I   UNK A   0      -8.694  10.037  64.111  1.00  0.00    -0.291 I  
HETATM   15  C   UNK A   0     -10.621   9.691  68.118  1.00  0.00    -0.226 A  
HETATM   16  I   UNK A   0     -11.670  10.936  69.575  1.00  0.00    -0.425 I  
HETATM   17  C   UNK A   0      -9.242   9.498  66.133  1.00  0.00    -0.177 A  
HETATM   18  C   UNK A   0     -10.185  10.246  66.878  1.00  0.00    -0.286 A  
BRANCH  13  19
HETATM   19  C   UNK A   0     -10.908   7.734  69.676  1.00  0.00    -0.184 C  
HETATM   20  O   UNK A   0     -11.685   6.703  69.317  1.00  0.00    -0.645 OA 
HETATM   21  H   UNK A   0     -12.163   6.263  70.010  1.00  0.00     0.000 HD 
BRANCH  19  22
ATOM     22  N   SER A   1     -10.822   8.080  70.913  1.00  0.00    -0.226 NA 
ATOM     23  H   SER A   1     -10.219   8.849  71.204  1.00  0.00     0.000 HD 
BRANCH  22  24
ATOM     24  CA  SER A   1     -11.634   7.321  71.906  1.00  0.00    -0.277 C  
BRANCH  24  25
ATOM     25  C   SER A   1     -13.018   7.992  71.964  1.00  0.00    -0.279 C  
ATOM     26  H   SER A   1     -14.864   7.543  71.449  1.00  0.00     0.000 HD 
ATOM     27  O   SER A   1     -14.009   7.128  71.413  1.00  0.00    -0.370 OA 
ENDBRANCH  24  25
BRANCH  24  28
ATOM     28  CB  SER A   1     -11.023   7.354  73.323  1.00  0.00    -0.318 C  
ATOM     29  OG  SER A   1     -10.432   6.123  73.734  1.00  0.00    -0.252 OA 
ATOM     30  HG  SER A   1     -10.057   6.143  74.607  1.00  0.00     0.000 HD 
ENDBRANCH  24  28
ENDBRANCH  22  24
ENDBRANCH  19  22
ENDBRANCH  13  19
BRANCH  18  31
HETATM   31  C   UNK A   0     -10.672  11.602  66.430  1.00  0.00    -0.272 C  
HETATM   32  H   UNK A   0     -10.023  13.399  66.033  1.00  0.00     0.000 HD 
HETATM   33  O   UNK A   0      -9.717  12.545  66.315  1.00  0.00    -0.247 OA 
BRANCH  31  34
ATOM     34  N   SER A   1     -11.907  11.904  66.220  1.00  0.00    -0.528 NA 
ATOM     35  H   SER A   1     -12.661  11.428  66.716  1.00  0.00     0.000 HD 
BRANCH  34  36
ATOM     36  CA  SER A   1     -12.191  12.979  65.221  1.00  0.00    -0.466 C  
BRANCH  36  37
ATOM     37  CB  SER A   1     -11.509  14.262  65.703  1.00  0.00    -0.329 C  
ATOM     38  HG  SER A   1     -10.444  15.719  64.910  1.00  0.00     0.000 HD 
ATOM     39  OG  SER A   1     -10.868  14.923  64.611  1.00  0.00    -0.370 OA 
ENDBRANCH  36  37
BRANCH  36  40
ATOM     40  C   SER A   1     -11.632  12.559  63.849  1.00  0.00    -0.442 C  
ATOM     41  H   SER A   1     -12.272  11.583  62.260  1.00  0.00     0.000 HD 
ATOM     42  O   SER A   1     -12.617  11.842  63.106  1.00  0.00    -0.514 OA 
ENDBRANCH  36  40
ENDBRANCH  34  36
ENDBRANCH  31  34
ENDBRANCH  18  31
ENDBRANCH   8  10
ENDBRANCH   5   8
ENDBRANCH   1   5
TORSDOF 13
ENDMDL
MODEL      123
REMARK 921   NORMALIZED FREE ENERGY PREDICTED BY IDOCK:   -3.73 KCAL/MOL
REMARK 922        TOTAL FREE ENERGY PREDICTED BY IDOCK:   -7.50 KCAL/MOL
REMARK 923 INTER-LIGAND FREE ENERGY PREDICTED BY IDOCK:   -6.04 KCAL/MOL
REMARK 924 INTRA-LIGAND FREE ENERGY PREDICTED BY IDOCK:   -1.46 KCAL/MOL
REMARK 927      BINDING AFFINITY PREDICTED BY RF-SCORE:    0.00 PKD
ROOT
HETATM    1  C   UNK A   0     -11.835  10.008  70.969  1.00  0.00    -0.386 C  
HETATM    2  O   UNK A   0     -13.167  10.038  70.428  1.00  0.00    -0.603 OA 
HETATM    3  C   UNK A   0     -11.771   8.963  72.060  1.00  0.00    -0.438 C  
HETATM    4  H   UNK A   0     -13.207  10.695  69.743  1.00  0.00     0.000 HD 
ENDROOT
BRANCH   1   5
HETATM    5  C   UNK A   0     -10.906   9.629  69.829  1.00  0.00    -0.250 C  
HETATM    6  O   UNK A   0     -11.433   9.888  68.610  1.00  0.00    -0.499 OA 
HETATM    7  H   UNK A   0     -10.852   9.651  67.896  1.00  0.00     0.000 HD 
BRANCH   5   8
HETATM    8  N   UNK A   0      -9.716   9.159  70.009  1.00  0.00    -0.183 NA 
HETATM    9  H   UNK A   0      -9.267   9.234  70.922  1.00  0.00     0.000 HD 
BRANCH   8  10
HETATM   10  C   UNK A   0      -9.033   8.532  68.922  1.00  0.00    -0.146 A  
HETATM   11  C   UNK A   0      -9.298   7.196  68.541  1.00  0.00    -0.136 A  
HETATM   12  I   UNK A   0     -10.895   6.130  69.604  1.00  0.00    -0.450 I  
HETATM   13  C   UNK A   0      -8.671   6.627  67.412  1.00  0.00    -0.118 A  
HETATM   14  I   UNK A   0      -7.603  11.257  68.884  1.00  0.00    -0.015 I  
HETATM   15  C   UNK A   0      -7.988   7.498  66.514  1.00  0.00    -0.107 A  
HETATM   16  I   UNK A   0      -7.779   6.799  64.454  1.00  0.00    -0.066 I  
HETATM   17  C   UNK A   0      -8.175   9.324  68.098  1.00  0.00    -0.119 A  
HETATM   18  C   UNK A   0      -7.715   8.860  66.843  1.00  0.00    -0.098 A  
BRANCH  13  19
HETATM   19  C   UNK A   0      -8.600   5.149  67.184  1.00  0.00    -0.105 C  
HETATM   20  O   UNK A   0      -9.666   4.571  66.614  1.00  0.00    -0.173 OA 
HETATM   21  H   UNK A   0      -9.621   3.634  66.469  1.00  0.00     0.000 HD 
BRANCH  19  22
ATOM     22  N   SER A   1      -7.571   4.443  67.498  1.00  0.00    -0.077 NA 
ATOM     23  H   SER A   1      -7.262   3.671  66.907  1.00  0.00     0.000 HD 
BRANCH  22  24
ATOM     24  CA  SER A   1      -6.846   4.787  68.753  1.00  0.00    -0.051 C  
BRANCH  24  25
ATOM     25  C   SER A   1      -5.422   4.217  68.622  1.00  0.00    -0.012 C  
ATOM     26  H   SER A   1      -4.301   3.444  67.201  1.00  0.00     0.000 HD 
ATOM     27  O   SER A   1      -5.180   3.796  67.281  1.00  0.00    -0.010 OA 
ENDBRANCH  24  25
BRANCH  24  28
ATOM     28  CB  SER A   1      -7.499   4.168  70.006  1.00  0.00    -0.046 C  
ATOM     29  OG  SER A   1      -7.595   5.058  71.117  1.00  0.00    -0.080 OA 
ATOM     30  HG  SER A   1      -7.997   4.677  71.889  1.00  0.00     0.000 HD 
ENDBRANCH  24  28
ENDBRANCH  22  24
ENDBRANCH  19  22
ENDBRANCH  13  19
BRANCH  18  31
HETATM   31  C   UNK A   0      -7.021   9.764  65.855  1.00  0.00    -0.101 C  
HETATM   32  H   UNK A   0      -5.241  10.224  65.199  1.00  0.00     0.000 HD 
HETATM   33  O   UNK A   0      -5.679   9.654  65.821  1.00  0.00    -0.048 OA 
BRANCH  31  34
ATOM     34  N   SER A   1      -7.617  10.640  65.120  1.00  0.00    -0.336 NA 
ATOM     35  H   SER A   1      -7.095  11.378  64.647  1.00  0.00     0.000 HD 
BRANCH  34  36
ATOM     36  CA  SER A   1      -9.101  10.529  64.988  1.00  0.00    -0.201 C  
BRANCH  36  37
ATOM     37  CB  SER A   1      -9.723  11.798  65.576  1.00  0.00    -0.224 C  
ATOM     38  HG  SER A   1     -11.281  12.262  66.690  1.00  0.00     0.000 HD 
ATOM     39  OG  SER A   1     -10.895  11.474  66.326  1.00  0.00    -0.272 OA 
ENDBRANCH  36  37
BRANCH  36  40
ATOM     40  C   SER A   1      -9.471  10.392  63.499  1.00  0.00    -0.312 C  
ATOM     41  H   SER A   1     -10.004  11.584  62.022  1.00  0.00     0.000 HD 
ATOM     42  O   SER A   1      -9.776  11.668  62.940  1.00  0.00    -0.382 OA 
ENDBRANCH  36  40
ENDBRANCH  34  36
ENDBRANCH  31  34
ENDBRANCH  18  31
ENDBRANCH   8  10
ENDBRANCH   5   8
ENDBRANCH   1   5
TORSDOF 13
ENDMDL
MODEL      124
REMARK 921   NORMALIZED FREE ENERGY PREDICTED BY IDOCK:   -3.72 KCAL/MOL
REMARK 922        TOTAL FREE ENERGY PREDICTED BY IDOCK:   -7.47 KCAL/MOL
REMARK 923 INTER-LIGAND FREE ENERGY PREDICTED BY IDOCK:   -6.40 KCAL/MOL
REMARK 924 INTRA-LIGAND FREE ENERGY PREDICTED BY IDOCK:   -1.07 KCAL/MOL
REMARK 927      BINDING AFFINITY PREDICTED BY RF-SCORE:    0.00 PKD
ROOT
HETATM    1  C   UNK A   0     -10.950   7.077  70.299  1.00  0.00    -0.271 C  
HETATM    2  O   UNK A   0     -12.380   6.932  70.358  1.00  0.00    -0.613 OA 
HETATM    3  C   UNK A   0     -10.315   6.059  71.220  1.00  0.00    -0.266 C  
HETATM    4  H   UNK A   0     -12.779   7.572  69.780  1.00  0.00     0.000 HD 
ENDROOT
BRANCH   1   5
HETATM    5  C   UNK A   0     -10.540   6.807  68.861  1.00  0.00    -0.228 C  
HETATM    6  O   UNK A   0     -11.597   6.690  68.025  1.00  0.00    -0.574 OA 
HETATM    7  H   UNK A   0     -11.340   6.521  67.125  1.00  0.00     0.000 HD 
BRANCH   5   8
HETATM    8  N   UNK A   0      -9.308   6.751  68.474  1.00  0.00    -0.127 NA 
HETATM    9  H   UNK A   0      -8.595   6.358  69.087  1.00  0.00     0.000 HD 
BRANCH   8  10
HETATM   10  C   UNK A   0      -8.954   7.243  67.180  1.00  0.00    -0.126 A  
HETATM   11  C   UNK A   0      -8.634   8.604  66.959  1.00  0.00    -0.117 A  
HETATM   12  I   UNK A   0      -8.582   9.936  68.701  1.00  0.00    -0.137 I  
HETATM   13  C   UNK A   0      -8.207   9.049  65.690  1.00  0.00    -0.120 A  
HETATM   14  I   UNK A   0      -9.522   4.311  66.440  1.00  0.00    -0.229 I  
HETATM   15  C   UNK A   0      -7.840   8.068  64.722  1.00  0.00    -0.131 A  
HETATM   16  I   UNK A   0      -6.443   8.710  63.170  1.00  0.00    -0.089 I  
HETATM   17  C   UNK A   0      -8.762   6.311  66.116  1.00  0.00    -0.145 A  
HETATM   18  C   UNK A   0      -8.122   6.681  64.909  1.00  0.00    -0.115 A  
BRANCH  13  19
HETATM   19  C   UNK A   0      -8.230  10.491  65.288  1.00  0.00    -0.146 C  
HETATM   20  O   UNK A   0      -7.280  11.281  65.807  1.00  0.00    -0.368 OA 
HETATM   21  H   UNK A   0      -7.295  12.196  65.551  1.00  0.00     0.000 HD 
BRANCH  19  22
ATOM     22  N   SER A   1      -9.100  10.975  64.473  1.00  0.00    -0.329 NA 
ATOM     23  H   SER A   1      -8.828  11.305  63.547  1.00  0.00     0.000 HD 
BRANCH  22  24
ATOM     24  CA  SER A   1     -10.518  11.038  64.925  1.00  0.00    -0.303 C  
BRANCH  24  25
ATOM     25  C   SER A   1     -11.349  11.549  63.733  1.00  0.00    -0.329 C  
ATOM     26  H   SER A   1     -11.785  13.286  62.916  1.00  0.00     0.000 HD 
ATOM     27  O   SER A   1     -11.272  12.971  63.651  1.00  0.00    -0.399 OA 
ENDBRANCH  24  25
BRANCH  24  28
ATOM     28  CB  SER A   1     -10.724  12.008  66.106  1.00  0.00    -0.275 C  
ATOM     29  OG  SER A   1     -12.082  12.386  66.324  1.00  0.00    -0.612 OA 
ATOM     30  HG  SER A   1     -12.208  12.983  67.052  1.00  0.00     0.000 HD 
ENDBRANCH  24  28
ENDBRANCH  22  24
ENDBRANCH  19  22
ENDBRANCH  13  19
BRANCH  18  31
HETATM   31  C   UNK A   0      -7.689   5.665  63.882  1.00  0.00    -0.095 C  
HETATM   32  H   UNK A   0      -8.332   4.740  62.289  1.00  0.00     0.000 HD 
HETATM   33  O   UNK A   0      -8.604   5.380  62.936  1.00  0.00    -0.115 OA 
BRANCH  31  34
ATOM     34  N   SER A   1      -6.561   5.040  63.900  1.00  0.00    -0.037 NA 
ATOM     35  H   SER A   1      -5.676   5.541  63.826  1.00  0.00     0.000 HD 
BRANCH  34  36
ATOM     36  CA  SER A   1      -6.604   3.552  64.034  1.00  0.00    -0.038 C  
BRANCH  36  37
ATOM     37  CB  SER A   1      -6.202   2.945  62.686  1.00  0.00    -0.014 C  
ATOM     38  HG  SER A   1      -6.624   1.326  61.646  1.00  0.00     0.000 HD 
ATOM     39  OG  SER A   1      -6.874   1.703  62.482  1.00  0.00    -0.019 OA 
ENDBRANCH  36  37
BRANCH  36  40
ATOM     40  C   SER A   1      -5.620   3.111  65.134  1.00  0.00    -0.013 C  
ATOM     41  H   SER A   1      -5.206   3.614  66.995  1.00  0.00     0.000 HD 
ATOM     42  O   SER A   1      -5.813   3.886  66.316  1.00  0.00    -0.021 OA 
ENDBRANCH  36  40
ENDBRANCH  34  36
ENDBRANCH  31  34
ENDBRANCH  18  31
ENDBRANCH   8  10
ENDBRANCH   5   8
ENDBRANCH   1   5
TORSDOF 13
ENDMDL
MODEL      125
REMARK 921   NORMALIZED FREE ENERGY PREDICTED BY IDOCK:   -3.71 KCAL/MOL
REMARK 922        TOTAL FREE ENERGY PREDICTED BY IDOCK:   -7.47 KCAL/MOL
REMARK 923 INTER-LIGAND FREE ENERGY PREDICTED BY IDOCK:   -6.32 KCAL/MOL
REMARK 924 INTRA-LIGAND FREE ENERGY PREDICTED BY IDOCK:   -1.15 KCAL/MOL
REMARK 927      BINDING AFFINITY PREDICTED BY RF-SCORE:    0.00 PKD
ROOT
HETATM    1  C   UNK A   0     -10.852  13.185  64.422  1.00  0.00    -0.397 C  
HETATM    2  O   UNK A   0     -10.607  12.533  63.163  1.00  0.00    -0.554 OA 
HETATM    3  C   UNK A   0     -11.782  14.355  64.197  1.00  0.00    -0.249 C  
HETATM    4  H   UNK A   0     -10.022  11.798  63.305  1.00  0.00     0.000 HD 
ENDROOT
BRANCH   1   5
HETATM    5  C   UNK A   0     -11.514  12.159  65.327  1.00  0.00    -0.336 C  
HETATM    6  O   UNK A   0     -12.735  11.779  64.888  1.00  0.00    -0.106 OA 
HETATM    7  H   UNK A   0     -13.150  11.138  65.454  1.00  0.00     0.000 HD 
BRANCH   5   8
HETATM    8  N   UNK A   0     -10.943  11.665  66.376  1.00  0.00    -0.289 NA 
HETATM    9  H   UNK A   0     -11.299  10.809  66.799  1.00  0.00     0.000 HD 
BRANCH   8  10
HETATM   10  C   UNK A   0      -9.809  12.327  66.939  1.00  0.00    -0.209 A  
HETATM   11  C   UNK A   0      -9.945  13.416  67.832  1.00  0.00    -0.236 A  
HETATM   12  I   UNK A   0     -11.973  13.995  68.434  1.00  0.00    -0.095 I  
HETATM   13  C   UNK A   0      -8.812  13.999  68.439  1.00  0.00    -0.180 A  
HETATM   14  I   UNK A   0      -8.343  10.302  65.145  1.00  0.00    -0.139 I  
HETATM   15  C   UNK A   0      -7.570  13.303  68.353  1.00  0.00    -0.137 A  
HETATM   16  I   UNK A   0      -6.109  13.726  69.921  1.00  0.00    -0.073 I  
HETATM   17  C   UNK A   0      -8.509  11.777  66.719  1.00  0.00    -0.177 A  
HETATM   18  C   UNK A   0      -7.390  12.187  67.482  1.00  0.00    -0.135 A  
BRANCH  13  19
HETATM   19  C   UNK A   0      -8.839  15.358  69.066  1.00  0.00    -0.231 C  
HETATM   20  O   UNK A   0      -9.433  15.463  70.262  1.00  0.00    -0.297 OA 
HETATM   21  H   UNK A   0      -9.450  16.326  70.660  1.00  0.00     0.000 HD 
BRANCH  19  22
ATOM     22  N   SER A   1      -8.312  16.393  68.512  1.00  0.00    -0.192 NA 
ATOM     23  H   SER A   1      -7.432  16.327  68.000  1.00  0.00     0.000 HD 
BRANCH  22  24
ATOM     24  CA  SER A   1      -9.029  17.693  68.642  1.00  0.00    -0.261 C  
BRANCH  24  25
ATOM     25  C   SER A   1     -10.152  17.696  67.588  1.00  0.00    -0.339 C  
ATOM     26  H   SER A   1     -10.510  18.570  65.862  1.00  0.00     0.000 HD 
ATOM     27  O   SER A   1      -9.817  18.568  66.511  1.00  0.00    -0.328 OA 
ENDBRANCH  24  25
BRANCH  24  28
ATOM     28  CB  SER A   1      -8.115  18.906  68.373  1.00  0.00    -0.341 C  
ATOM     29  OG  SER A   1      -7.226  18.738  67.270  1.00  0.00    -0.209 OA 
ATOM     30  HG  SER A   1      -6.663  19.485  67.105  1.00  0.00     0.000 HD 
ENDBRANCH  24  28
ENDBRANCH  22  24
ENDBRANCH  19  22
ENDBRANCH  13  19
BRANCH  18  31
HETATM   31  C   UNK A   0      -6.073  11.450  67.440  1.00  0.00    -0.074 C  
HETATM   32  H   UNK A   0      -4.306  11.535  66.619  1.00  0.00     0.000 HD 
HETATM   33  O   UNK A   0      -5.135  11.999  66.645  1.00  0.00    -0.307 OA 
BRANCH  31  34
ATOM     34  N   SER A   1      -5.835  10.341  68.053  1.00  0.00    -0.041 NA 
ATOM     35  H   SER A   1      -4.941   9.861  67.951  1.00  0.00     0.000 HD 
BRANCH  34  36
ATOM     36  CA  SER A   1      -6.921   9.789  68.919  1.00  0.00    -0.062 C  
BRANCH  36  37
ATOM     37  CB  SER A   1      -7.418   8.489  68.280  1.00  0.00    -0.096 C  
ATOM     38  HG  SER A   1      -9.154   7.642  67.888  1.00  0.00     0.000 HD 
ATOM     39  OG  SER A   1      -8.845   8.449  68.284  1.00  0.00    -0.138 OA 
ENDBRANCH  36  37
BRANCH  36  40
ATOM     40  C   SER A   1      -6.359   9.513  70.326  1.00  0.00    -0.066 C  
ATOM     41  H   SER A   1      -5.059   8.282  71.152  1.00  0.00     0.000 HD 
ATOM     42  O   SER A   1      -5.406   8.452  70.285  1.00  0.00    -0.022 OA 
ENDBRANCH  36  40
ENDBRANCH  34  36
ENDBRANCH  31  34
ENDBRANCH  18  31
ENDBRANCH   8  10
ENDBRANCH   5   8
ENDBRANCH   1   5
TORSDOF 13
ENDMDL
MODEL      126
REMARK 921   NORMALIZED FREE ENERGY PREDICTED BY IDOCK:   -3.71 KCAL/MOL
REMARK 922        TOTAL FREE ENERGY PREDICTED BY IDOCK:   -7.47 KCAL/MOL
REMARK 923 INTER-LIGAND FREE ENERGY PREDICTED BY IDOCK:   -8.48 KCAL/MOL
REMARK 924 INTRA-LIGAND FREE ENERGY PREDICTED BY IDOCK:    1.01 KCAL/MOL
REMARK 927      BINDING AFFINITY PREDICTED BY RF-SCORE:    0.00 PKD
ROOT
HETATM    1  C   UNK A   0      -9.606  10.191  64.680  1.00  0.00    -0.315 C  
HETATM    2  O   UNK A   0     -10.624  10.057  65.688  1.00  0.00    -0.081 OA 
HETATM    3  C   UNK A   0     -10.007  11.288  63.720  1.00  0.00    -0.388 C  
HETATM    4  H   UNK A   0     -10.372   9.367  66.291  1.00  0.00     0.000 HD 
ENDROOT
BRANCH   1   5
HETATM    5  C   UNK A   0      -8.322  10.568  65.398  1.00  0.00    -0.165 C  
HETATM    6  O   UNK A   0      -7.260   9.829  65.003  1.00  0.00    -0.114 OA 
HETATM    7  H   UNK A   0      -6.457  10.065  65.452  1.00  0.00     0.000 HD 
BRANCH   5   8
HETATM    8  N   UNK A   0      -8.246  11.532  66.255  1.00  0.00    -0.344 NA 
HETATM    9  H   UNK A   0      -7.635  12.329  66.078  1.00  0.00     0.000 HD 
BRANCH   8  10
HETATM   10  C   UNK A   0      -9.022  11.473  67.453  1.00  0.00    -0.156 A  
HETATM   11  C   UNK A   0     -10.051  12.406  67.725  1.00  0.00    -0.203 A  
HETATM   12  I   UNK A   0     -10.511  13.897  66.183  1.00  0.00    -0.329 I  
HETATM   13  C   UNK A   0     -10.859  12.276  68.875  1.00  0.00    -0.238 A  
HETATM   14  I   UNK A   0      -7.110   9.126  68.001  1.00  0.00    -0.079 I  
HETATM   15  C   UNK A   0     -10.802  11.051  69.601  1.00  0.00    -0.183 A  
HETATM   16  I   UNK A   0     -12.565  10.542  70.787  1.00  0.00    -0.426 I  
HETATM   17  C   UNK A   0      -8.864  10.352  68.323  1.00  0.00    -0.135 A  
HETATM   18  C   UNK A   0      -9.797  10.070  69.349  1.00  0.00    -0.240 A  
BRANCH  13  19
HETATM   19  C   UNK A   0     -11.678  13.404  69.420  1.00  0.00    -0.325 C  
HETATM   20  O   UNK A   0     -12.651  13.884  68.632  1.00  0.00    -0.344 OA 
HETATM   21  H   UNK A   0     -13.171  14.599  68.978  1.00  0.00     0.000 HD 
BRANCH  19  22
ATOM     22  N   SER A   1     -11.490  13.903  70.591  1.00  0.00    -0.500 NA 
ATOM     23  H   SER A   1     -10.618  13.743  71.097  1.00  0.00     0.000 HD 
BRANCH  22  24
ATOM     24  CA  SER A   1     -12.584  14.720  71.185  1.00  0.00    -0.337 C  
BRANCH  24  25
ATOM     25  C   SER A   1     -12.026  16.141  71.390  1.00  0.00    -0.395 C  
ATOM     26  H   SER A   1     -11.592  17.316  72.908  1.00  0.00     0.000 HD 
ATOM     27  O   SER A   1     -11.936  16.439  72.781  1.00  0.00    -0.531 OA 
ENDBRANCH  24  25
BRANCH  24  28
ATOM     28  CB  SER A   1     -13.052  14.185  72.554  1.00  0.00    -0.463 C  
ATOM     29  OG  SER A   1     -14.258  13.424  72.504  1.00  0.00    -0.721 OA 
ATOM     30  HG  SER A   1     -14.546  13.095  73.347  1.00  0.00     0.000 HD 
ENDBRANCH  24  28
ENDBRANCH  22  24
ENDBRANCH  19  22
ENDBRANCH  13  19
BRANCH  18  31
HETATM   31  C   UNK A   0      -9.786   8.767  70.111  1.00  0.00    -0.176 C  
HETATM   32  H   UNK A   0     -10.336   6.903  69.949  1.00  0.00     0.000 HD 
HETATM   33  O   UNK A   0     -10.343   7.723  69.469  1.00  0.00    -0.209 OA 
BRANCH  31  34
ATOM     34  N   SER A   1      -9.345   8.627  71.314  1.00  0.00    -0.201 NA 
ATOM     35  H   SER A   1      -9.379   9.395  71.985  1.00  0.00     0.000 HD 
BRANCH  34  36
ATOM     36  CA  SER A   1      -8.784   7.293  71.688  1.00  0.00    -0.117 C  
BRANCH  36  37
ATOM     37  CB  SER A   1      -7.346   7.504  72.170  1.00  0.00    -0.069 C  
ATOM     38  HG  SER A   1      -6.281   8.973  72.940  1.00  0.00     0.000 HD 
ATOM     39  OG  SER A   1      -7.173   8.841  72.641  1.00  0.00    -0.323 OA 
ENDBRANCH  36  37
BRANCH  36  40
ATOM     40  C   SER A   1      -9.639   6.677  72.811  1.00  0.00    -0.145 C  
ATOM     41  H   SER A   1     -11.314   5.647  72.959  1.00  0.00     0.000 HD 
ATOM     42  O   SER A   1     -10.786   6.027  72.267  1.00  0.00    -0.222 OA 
ENDBRANCH  36  40
ENDBRANCH  34  36
ENDBRANCH  31  34
ENDBRANCH  18  31
ENDBRANCH   8  10
ENDBRANCH   5   8
ENDBRANCH   1   5
TORSDOF 13
ENDMDL
MODEL      127
REMARK 921   NORMALIZED FREE ENERGY PREDICTED BY IDOCK:   -3.71 KCAL/MOL
REMARK 922        TOTAL FREE ENERGY PREDICTED BY IDOCK:   -7.46 KCAL/MOL
REMARK 923 INTER-LIGAND FREE ENERGY PREDICTED BY IDOCK:   -6.89 KCAL/MOL
REMARK 924 INTRA-LIGAND FREE ENERGY PREDICTED BY IDOCK:   -0.57 KCAL/MOL
REMARK 927      BINDING AFFINITY PREDICTED BY RF-SCORE:    0.00 PKD
ROOT
HETATM    1  C   UNK A   0     -10.093   4.208  65.511  1.00  0.00    -0.187 C  
HETATM    2  O   UNK A   0     -11.394   4.345  64.912  1.00  0.00    -1.015 OA 
HETATM    3  C   UNK A   0      -9.041   4.304  64.429  1.00  0.00    -0.150 C  
HETATM    4  H   UNK A   0     -12.055   4.285  65.592  1.00  0.00     0.000 HD 
ENDROOT
BRANCH   1   5
HETATM    5  C   UNK A   0      -9.938   5.358  66.492  1.00  0.00    -0.196 C  
HETATM    6  O   UNK A   0     -11.071   5.617  67.185  1.00  0.00    -0.422 OA 
HETATM    7  H   UNK A   0     -10.975   6.336  67.798  1.00  0.00     0.000 HD 
BRANCH   5   8
HETATM    8  N   UNK A   0      -8.823   5.984  66.681  1.00  0.00    -0.122 NA 
HETATM    9  H   UNK A   0      -8.159   6.091  65.915  1.00  0.00     0.000 HD 
BRANCH   8  10
HETATM   10  C   UNK A   0      -8.528   6.523  67.971  1.00  0.00    -0.119 A  
HETATM   11  C   UNK A   0      -8.977   7.805  68.367  1.00  0.00    -0.132 A  
HETATM   12  I   UNK A   0     -10.259   8.913  66.973  1.00  0.00    -0.289 I  
HETATM   13  C   UNK A   0      -8.743   8.281  69.675  1.00  0.00    -0.138 A  
HETATM   14  I   UNK A   0      -7.002   3.861  68.201  1.00  0.00    -0.052 I  
HETATM   15  C   UNK A   0      -8.297   7.350  70.658  1.00  0.00    -0.127 A  
HETATM   16  I   UNK A   0      -8.743   7.849  72.739  1.00  0.00    -0.305 I  
HETATM   17  C   UNK A   0      -7.899   5.685  68.941  1.00  0.00    -0.096 A  
HETATM   18  C   UNK A   0      -7.855   6.039  70.311  1.00  0.00    -0.102 A  
BRANCH  13  19
HETATM   19  C   UNK A   0      -8.836   9.730  70.037  1.00  0.00    -0.215 C  
HETATM   20  O   UNK A   0      -7.908  10.546  69.518  1.00  0.00    -0.186 OA 
HETATM   21  H   UNK A   0      -7.967  11.466  69.748  1.00  0.00     0.000 HD 
BRANCH  19  22
ATOM     22  N   SER A   1      -9.759  10.203  70.799  1.00  0.00    -0.156 NA 
ATOM     23  H   SER A   1      -9.532  10.649  71.688  1.00  0.00     0.000 HD 
BRANCH  22  24
ATOM     24  CA  SER A   1     -11.171  10.076  70.342  1.00  0.00    -0.323 C  
BRANCH  24  25
ATOM     25  C   SER A   1     -11.592  11.451  69.791  1.00  0.00    -0.332 C  
ATOM     26  H   SER A   1     -12.727  12.138  68.337  1.00  0.00     0.000 HD 
ATOM     27  O   SER A   1     -12.468  11.290  68.678  1.00  0.00    -0.442 OA 
ENDBRANCH  24  25
BRANCH  24  28
ATOM     28  CB  SER A   1     -12.136   9.701  71.486  1.00  0.00    -0.401 C  
ATOM     29  OG  SER A   1     -13.143  10.677  71.747  1.00  0.00    -0.444 OA 
ATOM     30  HG  SER A   1     -13.737  10.445  72.452  1.00  0.00     0.000 HD 
ENDBRANCH  24  28
ENDBRANCH  22  24
ENDBRANCH  19  22
ENDBRANCH  13  19
BRANCH  18  31
HETATM   31  C   UNK A   0      -7.422   5.066  71.380  1.00  0.00    -0.086 C  
HETATM   32  H   UNK A   0      -5.822   4.396  72.274  1.00  0.00     0.000 HD 
HETATM   33  O   UNK A   0      -6.095   5.009  71.600  1.00  0.00    -0.026 OA 
BRANCH  31  34
ATOM     34  N   SER A   1      -8.219   4.281  72.021  1.00  0.00    -0.093 NA 
ATOM     35  H   SER A   1      -7.921   3.802  72.871  1.00  0.00     0.000 HD 
BRANCH  34  36
ATOM     36  CA  SER A   1      -9.596   4.101  71.468  1.00  0.00    -0.168 C  
BRANCH  36  37
ATOM     37  CB  SER A   1      -9.680   2.698  70.860  1.00  0.00    -0.060 C  
ATOM     38  HG  SER A   1     -10.403   0.939  71.377  1.00  0.00     0.000 HD 
ATOM     39  OG  SER A   1     -10.351   1.810  71.754  1.00  0.00    -0.132 OA 
ENDBRANCH  36  37
BRANCH  36  40
ATOM     40  C   SER A   1     -10.624   4.253  72.605  1.00  0.00    -0.140 C  
ATOM     41  H   SER A   1     -12.121   5.456  73.054  1.00  0.00     0.000 HD 
ATOM     42  O   SER A   1     -11.487   5.362  72.353  1.00  0.00    -0.235 OA 
ENDBRANCH  36  40
ENDBRANCH  34  36
ENDBRANCH  31  34
ENDBRANCH  18  31
ENDBRANCH   8  10
ENDBRANCH   5   8
ENDBRANCH   1   5
TORSDOF 13
ENDMDL
MODEL      128
REMARK 921   NORMALIZED FREE ENERGY PREDICTED BY IDOCK:   -3.71 KCAL/MOL
REMARK 922        TOTAL FREE ENERGY PREDICTED BY IDOCK:   -7.45 KCAL/MOL
REMARK 923 INTER-LIGAND FREE ENERGY PREDICTED BY IDOCK:   -7.32 KCAL/MOL
REMARK 924 INTRA-LIGAND FREE ENERGY PREDICTED BY IDOCK:   -0.13 KCAL/MOL
REMARK 927      BINDING AFFINITY PREDICTED BY RF-SCORE:    0.00 PKD
ROOT
HETATM    1  C   UNK A   0     -11.200   6.597  71.798  1.00  0.00    -0.260 C  
HETATM    2  O   UNK A   0     -12.624   6.640  71.998  1.00  0.00    -0.480 OA 
HETATM    3  C   UNK A   0     -10.670   5.281  72.321  1.00  0.00    -0.282 C  
HETATM    4  H   UNK A   0     -12.957   7.467  71.670  1.00  0.00     0.000 HD 
ENDROOT
BRANCH   1   5
HETATM    5  C   UNK A   0     -10.962   6.698  70.301  1.00  0.00    -0.303 C  
HETATM    6  O   UNK A   0     -12.111   6.722  69.586  1.00  0.00    -0.635 OA 
HETATM    7  H   UNK A   0     -11.962   6.785  68.649  1.00  0.00     0.000 HD 
BRANCH   5   8
HETATM    8  N   UNK A   0      -9.787   6.803  69.775  1.00  0.00    -0.166 NA 
HETATM    9  H   UNK A   0      -8.963   6.508  70.297  1.00  0.00     0.000 HD 
BRANCH   8  10
HETATM   10  C   UNK A   0      -9.651   7.338  68.457  1.00  0.00    -0.140 A  
HETATM   11  C   UNK A   0      -9.657   8.731  68.211  1.00  0.00    -0.146 A  
HETATM   12  I   UNK A   0      -9.765  10.074  69.942  1.00  0.00     0.007 I  
HETATM   13  C   UNK A   0      -9.437   9.236  66.911  1.00  0.00    -0.211 A  
HETATM   14  I   UNK A   0      -9.615   4.340  67.767  1.00  0.00    -0.093 I  
HETATM   15  C   UNK A   0      -8.940   8.342  65.918  1.00  0.00    -0.178 A  
HETATM   16  I   UNK A   0      -7.843   9.247  64.259  1.00  0.00    -0.156 I  
HETATM   17  C   UNK A   0      -9.341   6.451  67.382  1.00  0.00    -0.116 A  
HETATM   18  C   UNK A   0      -8.894   6.932  66.128  1.00  0.00    -0.163 A  
BRANCH  13  19
HETATM   19  C   UNK A   0      -9.808  10.630  66.511  1.00  0.00    -0.204 C  
HETATM   20  O   UNK A   0      -9.066  11.625  67.017  1.00  0.00    -0.170 OA 
HETATM   21  H   UNK A   0      -9.302  12.510  66.763  1.00  0.00     0.000 HD 
BRANCH  19  22
ATOM     22  N   SER A   1     -10.781  10.892  65.710  1.00  0.00    -0.162 NA 
ATOM     23  H   SER A   1     -11.391  10.151  65.363  1.00  0.00     0.000 HD 
BRANCH  22  24
ATOM     24  CA  SER A   1     -10.988  12.310  65.305  1.00  0.00    -0.307 C  
BRANCH  24  25
ATOM     25  C   SER A   1     -12.495  12.599  65.427  1.00  0.00    -0.355 C  
ATOM     26  H   SER A   1     -13.688  14.153  65.234  1.00  0.00     0.000 HD 
ATOM     27  O   SER A   1     -12.758  13.975  65.159  1.00  0.00    -0.619 OA 
ENDBRANCH  24  25
BRANCH  24  28
ATOM     28  CB  SER A   1     -10.563  12.582  63.847  1.00  0.00    -0.440 C  
ATOM     29  OG  SER A   1     -11.557  12.260  62.877  1.00  0.00    -0.624 OA 
ATOM     30  HG  SER A   1     -11.295  12.427  61.979  1.00  0.00     0.000 HD 
ENDBRANCH  24  28
ENDBRANCH  22  24
ENDBRANCH  19  22
ENDBRANCH  13  19
BRANCH  18  31
HETATM   31  C   UNK A   0      -8.329   6.016  65.070  1.00  0.00    -0.121 C  
HETATM   32  H   UNK A   0      -6.643   5.235  64.473  1.00  0.00     0.000 HD 
HETATM   33  O   UNK A   0      -6.999   5.812  65.139  1.00  0.00    -0.056 OA 
BRANCH  31  34
ATOM     34  N   SER A   1      -9.014   5.493  64.112  1.00  0.00    -0.340 NA 
ATOM     35  H   SER A   1      -9.858   5.943  63.757  1.00  0.00     0.000 HD 
BRANCH  34  36
ATOM     36  CA  SER A   1      -8.523   4.201  63.542  1.00  0.00    -0.100 C  
BRANCH  36  37
ATOM     37  CB  SER A   1      -8.016   3.337  64.700  1.00  0.00    -0.082 C  
ATOM     38  HG  SER A   1      -6.873   1.748  64.925  1.00  0.00     0.000 HD 
ATOM     39  OG  SER A   1      -7.188   2.285  64.207  1.00  0.00    -0.053 OA 
ENDBRANCH  36  37
BRANCH  36  40
ATOM     40  C   SER A   1      -9.681   3.493  62.814  1.00  0.00    -0.107 C  
ATOM     41  H   SER A   1     -11.590   3.123  63.142  1.00  0.00     0.000 HD 
ATOM     42  O   SER A   1     -10.876   3.560  63.591  1.00  0.00    -0.261 OA 
ENDBRANCH  36  40
ENDBRANCH  34  36
ENDBRANCH  31  34
ENDBRANCH  18  31
ENDBRANCH   8  10
ENDBRANCH   5   8
ENDBRANCH   1   5
TORSDOF 13
ENDMDL
MODEL      129
REMARK 921   NORMALIZED FREE ENERGY PREDICTED BY IDOCK:   -3.68 KCAL/MOL
REMARK 922        TOTAL FREE ENERGY PREDICTED BY IDOCK:   -7.40 KCAL/MOL
REMARK 923 INTER-LIGAND FREE ENERGY PREDICTED BY IDOCK:   -7.11 KCAL/MOL
REMARK 924 INTRA-LIGAND FREE ENERGY PREDICTED BY IDOCK:   -0.30 KCAL/MOL
REMARK 927      BINDING AFFINITY PREDICTED BY RF-SCORE:    0.00 PKD
ROOT
HETATM    1  C   UNK A   0      -7.412  10.117  62.750  1.00  0.00    -0.138 C  
HETATM    2  O   UNK A   0      -7.685  11.503  62.480  1.00  0.00    -0.462 OA 
HETATM    3  C   UNK A   0      -5.915   9.898  62.728  1.00  0.00    -0.109 C  
HETATM    4  H   UNK A   0      -8.625  11.641  62.494  1.00  0.00     0.000 HD 
ENDROOT
BRANCH   1   5
HETATM    5  C   UNK A   0      -7.961   9.822  64.136  1.00  0.00    -0.143 C  
HETATM    6  O   UNK A   0      -7.233  10.392  65.124  1.00  0.00    -0.185 OA 
HETATM    7  H   UNK A   0      -7.576  10.207  65.990  1.00  0.00     0.000 HD 
BRANCH   5   8
HETATM    8  N   UNK A   0      -9.041   9.143  64.341  1.00  0.00    -0.430 NA 
HETATM    9  H   UNK A   0      -9.467   8.614  63.580  1.00  0.00     0.000 HD 
BRANCH   8  10
HETATM   10  C   UNK A   0      -9.635   9.139  65.640  1.00  0.00    -0.217 A  
HETATM   11  C   UNK A   0      -9.427   8.081  66.555  1.00  0.00    -0.214 A  
HETATM   12  I   UNK A   0      -8.052   6.476  65.965  1.00  0.00    -0.139 I  
HETATM   13  C   UNK A   0      -9.957   8.141  67.862  1.00  0.00    -0.225 A  
HETATM   14  I   UNK A   0     -10.841  11.758  64.566  1.00  0.00    -0.396 I  
HETATM   15  C   UNK A   0     -10.461   9.391  68.326  1.00  0.00    -0.217 A  
HETATM   16  I   UNK A   0     -10.476   9.689  70.491  1.00  0.00    -0.288 I  
HETATM   17  C   UNK A   0     -10.327  10.307  66.086  1.00  0.00    -0.183 A  
HETATM   18  C   UNK A   0     -10.669  10.494  67.446  1.00  0.00    -0.334 A  
BRANCH  13  19
HETATM   19  C   UNK A   0     -10.111   6.930  68.729  1.00  0.00    -0.166 C  
HETATM   20  O   UNK A   0     -11.361   6.566  69.048  1.00  0.00    -0.524 OA 
HETATM   21  H   UNK A   0     -11.458   5.798  69.598  1.00  0.00     0.000 HD 
BRANCH  19  22
ATOM     22  N   SER A   1      -9.109   6.242  69.154  1.00  0.00    -0.130 NA 
ATOM     23  H   SER A   1      -8.535   5.697  68.511  1.00  0.00     0.000 HD 
BRANCH  22  24
ATOM     24  CA  SER A   1      -8.815   6.268  70.614  1.00  0.00    -0.144 C  
BRANCH  24  25
ATOM     25  C   SER A   1      -7.443   6.947  70.786  1.00  0.00    -0.082 C  
ATOM     26  H   SER A   1      -5.549   6.433  70.636  1.00  0.00     0.000 HD 
ATOM     27  O   SER A   1      -6.395   6.014  70.529  1.00  0.00    -0.033 OA 
ENDBRANCH  24  25
BRANCH  24  28
ATOM     28  CB  SER A   1      -8.733   4.856  71.230  1.00  0.00    -0.128 C  
ATOM     29  OG  SER A   1      -9.712   3.944  70.735  1.00  0.00    -0.181 OA 
ATOM     30  HG  SER A   1      -9.662   3.075  71.115  1.00  0.00     0.000 HD 
ENDBRANCH  24  28
ENDBRANCH  22  24
ENDBRANCH  19  22
ENDBRANCH  13  19
BRANCH  18  31
HETATM   31  C   UNK A   0     -11.171  11.815  67.975  1.00  0.00    -0.263 C  
HETATM   32  H   UNK A   0     -12.769  12.648  68.723  1.00  0.00     0.000 HD 
HETATM   33  O   UNK A   0     -12.452  11.817  68.390  1.00  0.00    -0.207 OA 
BRANCH  31  34
ATOM     34  N   SER A   1     -10.484  12.906  67.993  1.00  0.00    -0.224 NA 
ATOM     35  H   SER A   1      -9.543  12.946  67.600  1.00  0.00     0.000 HD 
BRANCH  34  36
ATOM     36  CA  SER A   1     -11.120  14.108  68.613  1.00  0.00    -0.262 C  
BRANCH  36  37
ATOM     37  CB  SER A   1     -10.007  14.987  69.189  1.00  0.00    -0.237 C  
ATOM     38  HG  SER A   1      -9.868  16.519  70.420  1.00  0.00     0.000 HD 
ATOM     39  OG  SER A   1     -10.558  15.973  70.063  1.00  0.00    -0.301 OA 
ENDBRANCH  36  37
BRANCH  36  40
ATOM     40  C   SER A   1     -11.907  14.879  67.536  1.00  0.00    -0.232 C  
ATOM     41  H   SER A   1     -11.501  15.937  65.923  1.00  0.00     0.000 HD 
ATOM     42  O   SER A   1     -11.016  15.462  66.587  1.00  0.00    -0.313 OA 
ENDBRANCH  36  40
ENDBRANCH  34  36
ENDBRANCH  31  34
ENDBRANCH  18  31
ENDBRANCH   8  10
ENDBRANCH   5   8
ENDBRANCH   1   5
TORSDOF 13
ENDMDL
MODEL      130
REMARK 921   NORMALIZED FREE ENERGY PREDICTED BY IDOCK:   -3.67 KCAL/MOL
REMARK 922        TOTAL FREE ENERGY PREDICTED BY IDOCK:   -7.39 KCAL/MOL
REMARK 923 INTER-LIGAND FREE ENERGY PREDICTED BY IDOCK:   -7.39 KCAL/MOL
REMARK 924 INTRA-LIGAND FREE ENERGY PREDICTED BY IDOCK:   -0.00 KCAL/MOL
REMARK 927      BINDING AFFINITY PREDICTED BY RF-SCORE:    0.00 PKD
ROOT
HETATM    1  C   UNK A   0      -7.867  13.575  67.569  1.00  0.00    -0.178 C  
HETATM    2  O   UNK A   0      -6.536  13.565  67.023  1.00  0.00    -0.427 OA 
HETATM    3  C   UNK A   0      -8.072  14.859  68.340  1.00  0.00    -0.137 C  
HETATM    4  H   UNK A   0      -6.407  12.758  66.539  1.00  0.00     0.000 HD 
ENDROOT
BRANCH   1   5
HETATM    5  C   UNK A   0      -8.826  13.514  66.392  1.00  0.00     0.133 C  
HETATM    6  O   UNK A   0      -8.936  14.695  65.740  1.00  0.00    -0.419 OA 
HETATM    7  H   UNK A   0      -9.536  14.658  65.004  1.00  0.00     0.000 HD 
BRANCH   5   8
HETATM    8  N   UNK A   0      -9.429  12.433  66.023  1.00  0.00    -0.363 NA 
HETATM    9  H   UNK A   0      -9.526  12.212  65.032  1.00  0.00     0.000 HD 
BRANCH   8  10
HETATM   10  C   UNK A   0      -9.959  11.549  67.012  1.00  0.00    -0.200 A  
HETATM   11  C   UNK A   0      -9.426  10.256  67.223  1.00  0.00    -0.150 A  
HETATM   12  I   UNK A   0      -7.661   9.676  66.056  1.00  0.00    -0.110 I  
HETATM   13  C   UNK A   0      -9.913   9.434  68.262  1.00  0.00    -0.197 A  
HETATM   14  I   UNK A   0     -11.905  13.904  67.377  1.00  0.00    -0.341 I  
HETATM   15  C   UNK A   0     -10.746  10.028  69.255  1.00  0.00    -0.224 A  
HETATM   16  I   UNK A   0     -10.785   9.045  71.205  1.00  0.00    -0.444 I  
HETATM   17  C   UNK A   0     -10.948  12.041  67.918  1.00  0.00    -0.220 A  
HETATM   18  C   UNK A   0     -11.291  11.338  69.097  1.00  0.00    -0.349 A  
BRANCH  13  19
HETATM   19  C   UNK A   0      -9.683   7.955  68.299  1.00  0.00    -0.160 C  
HETATM   20  O   UNK A   0     -10.759   7.169  68.148  1.00  0.00    -0.292 OA 
HETATM   21  H   UNK A   0     -10.613   6.231  68.172  1.00  0.00     0.000 HD 
BRANCH  19  22
ATOM     22  N   SER A   1      -8.517   7.432  68.455  1.00  0.00    -0.125 NA 
ATOM     23  H   SER A   1      -7.856   7.380  67.680  1.00  0.00     0.000 HD 
BRANCH  22  24
ATOM     24  CA  SER A   1      -8.164   6.906  69.803  1.00  0.00    -0.131 C  
BRANCH  24  25
ATOM     25  C   SER A   1      -7.052   7.813  70.364  1.00  0.00    -0.050 C  
ATOM     26  H   SER A   1      -5.459   8.739  69.673  1.00  0.00     0.000 HD 
ATOM     27  O   SER A   1      -6.145   8.180  69.327  1.00  0.00    -0.036 OA 
ENDBRANCH  24  25
BRANCH  24  28
ATOM     28  CB  SER A   1      -7.628   5.460  69.756  1.00  0.00    -0.070 C  
ATOM     29  OG  SER A   1      -6.972   5.118  68.537  1.00  0.00    -0.054 OA 
ATOM     30  HG  SER A   1      -6.642   4.228  68.509  1.00  0.00     0.000 HD 
ENDBRANCH  24  28
ENDBRANCH  22  24
ENDBRANCH  19  22
ENDBRANCH  13  19
BRANCH  18  31
HETATM   31  C   UNK A   0     -12.140  11.952  70.183  1.00  0.00    -0.302 C  
HETATM   32  H   UNK A   0     -13.814  11.676  71.146  1.00  0.00     0.000 HD 
HETATM   33  O   UNK A   0     -13.279  11.290  70.462  1.00  0.00     0.050 OA 
BRANCH  31  34
ATOM     34  N   SER A   1     -11.871  13.059  70.785  1.00  0.00    -0.455 NA 
ATOM     35  H   SER A   1     -10.917  13.296  71.058  1.00  0.00     0.000 HD 
BRANCH  34  36
ATOM     36  CA  SER A   1     -13.012  13.982  71.066  1.00  0.00    -0.308 C  
BRANCH  36  37
ATOM     37  CB  SER A   1     -13.461  13.751  72.512  1.00  0.00    -0.578 C  
ATOM     38  HG  SER A   1     -13.552  14.794  74.181  1.00  0.00     0.000 HD 
ATOM     39  OG  SER A   1     -13.274  14.937  73.284  1.00  0.00    -0.494 OA 
ENDBRANCH  36  37
BRANCH  36  40
ATOM     40  C   SER A   1     -12.548  15.439  70.877  1.00  0.00    -0.438 C  
ATOM     41  H   SER A   1     -10.839  16.398  70.658  1.00  0.00     0.000 HD 
ATOM     42  O   SER A   1     -11.126  15.501  70.775  1.00  0.00    -0.315 OA 
ENDBRANCH  36  40
ENDBRANCH  34  36
ENDBRANCH  31  34
ENDBRANCH  18  31
ENDBRANCH   8  10
ENDBRANCH   5   8
ENDBRANCH   1   5
TORSDOF 13
ENDMDL
MODEL      131
REMARK 921   NORMALIZED FREE ENERGY PREDICTED BY IDOCK:   -3.66 KCAL/MOL
REMARK 922        TOTAL FREE ENERGY PREDICTED BY IDOCK:   -7.37 KCAL/MOL
REMARK 923 INTER-LIGAND FREE ENERGY PREDICTED BY IDOCK:   -6.92 KCAL/MOL
REMARK 924 INTRA-LIGAND FREE ENERGY PREDICTED BY IDOCK:   -0.45 KCAL/MOL
REMARK 927      BINDING AFFINITY PREDICTED BY RF-SCORE:    0.00 PKD
ROOT
HETATM    1  C   UNK A   0     -10.124  18.816  66.363  1.00  0.00    -0.404 C  
HETATM    2  O   UNK A   0     -10.619  19.038  67.696  1.00  0.00    -0.429 OA 
HETATM    3  C   UNK A   0      -8.903  19.681  66.142  1.00  0.00    -0.367 C  
HETATM    4  H   UNK A   0     -11.386  18.495  67.834  1.00  0.00     0.000 HD 
ENDROOT
BRANCH   1   5
HETATM    5  C   UNK A   0      -9.745  17.348  66.274  1.00  0.00    -0.261 C  
HETATM    6  O   UNK A   0      -8.602  17.139  65.580  1.00  0.00    -0.470 OA 
HETATM    7  H   UNK A   0      -8.365  16.221  65.524  1.00  0.00     0.000 HD 
BRANCH   5   8
HETATM    8  N   UNK A   0     -10.418  16.405  66.847  1.00  0.00    -0.303 NA 
HETATM    9  H   UNK A   0     -11.364  16.582  67.184  1.00  0.00     0.000 HD 
BRANCH   8  10
HETATM   10  C   UNK A   0      -9.826  15.115  67.008  1.00  0.00    -0.230 A  
HETATM   11  C   UNK A   0      -8.793  14.877  67.945  1.00  0.00    -0.165 A  
HETATM   12  I   UNK A   0      -8.193  16.537  69.247  1.00  0.00     0.388 I  
HETATM   13  C   UNK A   0      -8.283  13.576  68.143  1.00  0.00    -0.162 A  
HETATM   14  I   UNK A   0     -11.777  14.469  64.718  1.00  0.00    -0.376 I  
HETATM   15  C   UNK A   0      -9.008  12.479  67.593  1.00  0.00    -0.185 A  
HETATM   16  I   UNK A   0      -8.729  10.543  68.567  1.00  0.00    -0.159 I  
HETATM   17  C   UNK A   0     -10.400  14.003  66.320  1.00  0.00    -0.293 A  
HETATM   18  C   UNK A   0     -10.072  12.669  66.661  1.00  0.00    -0.248 A  
BRANCH  13  19
HETATM   19  C   UNK A   0      -6.966  13.315  68.805  1.00  0.00    -0.103 C  
HETATM   20  O   UNK A   0      -5.881  13.312  68.018  1.00  0.00    -0.095 OA 
HETATM   21  H   UNK A   0      -5.045  13.147  68.438  1.00  0.00     0.000 HD 
BRANCH  19  22
ATOM     22  N   SER A   1      -6.847  13.113  70.070  1.00  0.00    -0.280 NA 
ATOM     23  H   SER A   1      -7.661  12.903  70.648  1.00  0.00     0.000 HD 
BRANCH  22  24
ATOM     24  CA  SER A   1      -5.484  13.195  70.664  1.00  0.00    -0.169 C  
BRANCH  24  25
ATOM     25  C   SER A   1      -5.135  11.790  71.189  1.00  0.00    -0.119 C  
ATOM     26  H   SER A   1      -5.986  10.016  71.242  1.00  0.00     0.000 HD 
ATOM     27  O   SER A   1      -6.201  10.883  70.918  1.00  0.00    -0.352 OA 
ENDBRANCH  24  25
BRANCH  24  28
ATOM     28  CB  SER A   1      -5.407  14.182  71.847  1.00  0.00    -0.209 C  
ATOM     29  OG  SER A   1      -5.892  13.657  73.081  1.00  0.00    -0.400 OA 
ATOM     30  HG  SER A   1      -5.845  14.265  73.809  1.00  0.00     0.000 HD 
ENDBRANCH  24  28
ENDBRANCH  22  24
ENDBRANCH  19  22
ENDBRANCH  13  19
BRANCH  18  31
HETATM   31  C   UNK A   0     -10.843  11.488  66.124  1.00  0.00    -0.278 C  
HETATM   32  H   UNK A   0     -12.598  10.642  66.224  1.00  0.00     0.000 HD 
HETATM   33  O   UNK A   0     -12.113  11.385  66.562  1.00  0.00    -0.075 OA 
BRANCH  31  34
ATOM     34  N   SER A   1     -10.350  10.582  65.351  1.00  0.00    -0.258 NA 
ATOM     35  H   SER A   1     -10.684   9.619  65.383  1.00  0.00     0.000 HD 
BRANCH  34  36
ATOM     36  CA  SER A   1      -9.269  10.999  64.407  1.00  0.00    -0.158 C  
BRANCH  36  37
ATOM     37  CB  SER A   1      -8.116  10.000  64.538  1.00  0.00    -0.156 C  
ATOM     38  HG  SER A   1      -7.798   8.099  64.128  1.00  0.00     0.000 HD 
ATOM     39  OG  SER A   1      -8.513   8.720  64.047  1.00  0.00    -0.172 OA 
ENDBRANCH  36  37
BRANCH  36  40
ATOM     40  C   SER A   1      -9.820  10.996  62.969  1.00  0.00    -0.337 C  
ATOM     41  H   SER A   1     -11.529  11.392  62.070  1.00  0.00     0.000 HD 
ATOM     42  O   SER A   1     -11.189  11.394  62.957  1.00  0.00    -0.091 OA 
ENDBRANCH  36  40
ENDBRANCH  34  36
ENDBRANCH  31  34
ENDBRANCH  18  31
ENDBRANCH   8  10
ENDBRANCH   5   8
ENDBRANCH   1   5
TORSDOF 13
ENDMDL
MODEL      132
REMARK 921   NORMALIZED FREE ENERGY PREDICTED BY IDOCK:   -3.65 KCAL/MOL
REMARK 922        TOTAL FREE ENERGY PREDICTED BY IDOCK:   -7.35 KCAL/MOL
REMARK 923 INTER-LIGAND FREE ENERGY PREDICTED BY IDOCK:   -5.91 KCAL/MOL
REMARK 924 INTRA-LIGAND FREE ENERGY PREDICTED BY IDOCK:   -1.44 KCAL/MOL
REMARK 927      BINDING AFFINITY PREDICTED BY RF-SCORE:    0.00 PKD
ROOT
HETATM    1  C   UNK A   0      -7.946  10.346  62.743  1.00  0.00    -0.153 C  
HETATM    2  O   UNK A   0      -8.632  11.589  62.509  1.00  0.00    -0.595 OA 
HETATM    3  C   UNK A   0      -6.462  10.559  62.544  1.00  0.00    -0.142 C  
HETATM    4  H   UNK A   0      -9.564  11.455  62.634  1.00  0.00     0.000 HD 
ENDROOT
BRANCH   1   5
HETATM    5  C   UNK A   0      -8.228   9.953  64.183  1.00  0.00    -0.159 C  
HETATM    6  O   UNK A   0      -9.471   9.448  64.358  1.00  0.00    -0.424 OA 
HETATM    7  H   UNK A   0      -9.648   9.202  65.259  1.00  0.00     0.000 HD 
BRANCH   5   8
HETATM    8  N   UNK A   0      -7.350  10.041  65.127  1.00  0.00    -0.134 NA 
HETATM    9  H   UNK A   0      -6.583  10.708  65.054  1.00  0.00     0.000 HD 
BRANCH   8  10
HETATM   10  C   UNK A   0      -7.462   9.197  66.275  1.00  0.00    -0.092 A  
HETATM   11  C   UNK A   0      -7.004   7.858  66.266  1.00  0.00    -0.063 A  
HETATM   12  I   UNK A   0      -5.996   7.135  64.457  1.00  0.00    -0.037 I  
HETATM   13  C   UNK A   0      -7.050   7.071  67.437  1.00  0.00    -0.088 A  
HETATM   14  I   UNK A   0      -8.834  11.714  67.393  1.00  0.00    -0.182 I  
HETATM   15  C   UNK A   0      -7.303   7.727  68.677  1.00  0.00    -0.087 A  
HETATM   16  I   UNK A   0      -6.560   6.727  70.473  1.00  0.00    -0.055 I  
HETATM   17  C   UNK A   0      -7.901   9.765  67.509  1.00  0.00    -0.095 A  
HETATM   18  C   UNK A   0      -7.746   9.082  68.739  1.00  0.00    -0.095 A  
BRANCH  13  19
HETATM   19  C   UNK A   0      -6.957   5.577  67.412  1.00  0.00    -0.069 C  
HETATM   20  O   UNK A   0      -5.740   5.042  67.582  1.00  0.00    -0.016 OA 
HETATM   21  H   UNK A   0      -5.681   4.094  67.567  1.00  0.00     0.000 HD 
BRANCH  19  22
ATOM     22  N   SER A   1      -7.981   4.816  67.250  1.00  0.00    -0.101 NA 
ATOM     23  H   SER A   1      -7.914   3.949  66.716  1.00  0.00     0.000 HD 
BRANCH  22  24
ATOM     24  CA  SER A   1      -9.269   5.239  67.868  1.00  0.00    -0.112 C  
BRANCH  24  25
ATOM     25  C   SER A   1      -9.651   4.161  68.899  1.00  0.00    -0.152 C  
ATOM     26  H   SER A   1      -9.593   2.198  69.023  1.00  0.00     0.000 HD 
ATOM     27  O   SER A   1      -9.356   2.863  68.388  1.00  0.00    -0.181 OA 
ENDBRANCH  24  25
BRANCH  24  28
ATOM     28  CB  SER A   1     -10.414   5.350  66.841  1.00  0.00    -0.277 C  
ATOM     29  OG  SER A   1      -9.981   5.605  65.506  1.00  0.00    -0.365 OA 
ATOM     30  HG  SER A   1     -10.687   5.674  64.873  1.00  0.00     0.000 HD 
ENDBRANCH  24  28
ENDBRANCH  22  24
ENDBRANCH  19  22
ENDBRANCH  13  19
BRANCH  18  31
HETATM   31  C   UNK A   0      -7.970   9.757  70.069  1.00  0.00    -0.184 C  
HETATM   32  H   UNK A   0      -7.073  10.908  71.364  1.00  0.00     0.000 HD 
HETATM   33  O   UNK A   0      -6.932  10.483  70.526  1.00  0.00    -0.307 OA 
BRANCH  31  34
ATOM     34  N   SER A   1      -9.036   9.630  70.784  1.00  0.00    -0.358 NA 
ATOM     35  H   SER A   1      -9.058   9.928  71.759  1.00  0.00     0.000 HD 
BRANCH  34  36
ATOM     36  CA  SER A   1     -10.235   9.028  70.127  1.00  0.00    -0.197 C  
BRANCH  36  37
ATOM     37  CB  SER A   1     -10.527   7.690  70.812  1.00  0.00    -0.210 C  
ATOM     38  HG  SER A   1     -11.712   6.143  70.516  1.00  0.00     0.000 HD 
ATOM     39  OG  SER A   1     -11.530   6.973  70.091  1.00  0.00    -0.290 OA 
ENDBRANCH  36  37
BRANCH  36  40
ATOM     40  C   SER A   1     -11.434   9.982  70.284  1.00  0.00    -0.300 C  
ATOM     41  H   SER A   1     -12.661  10.545  71.721  1.00  0.00     0.000 HD 
ATOM     42  O   SER A   1     -11.922   9.956  71.624  1.00  0.00    -0.393 OA 
ENDBRANCH  36  40
ENDBRANCH  34  36
ENDBRANCH  31  34
ENDBRANCH  18  31
ENDBRANCH   8  10
ENDBRANCH   5   8
ENDBRANCH   1   5
TORSDOF 13
ENDMDL
MODEL      133
REMARK 921   NORMALIZED FREE ENERGY PREDICTED BY IDOCK:   -3.62 KCAL/MOL
REMARK 922        TOTAL FREE ENERGY PREDICTED BY IDOCK:   -7.30 KCAL/MOL
REMARK 923 INTER-LIGAND FREE ENERGY PREDICTED BY IDOCK:   -6.99 KCAL/MOL
REMARK 924 INTRA-LIGAND FREE ENERGY PREDICTED BY IDOCK:   -0.31 KCAL/MOL
REMARK 927      BINDING AFFINITY PREDICTED BY RF-SCORE:    0.00 PKD
ROOT
HETATM    1  C   UNK A   0     -12.866   8.072  71.655  1.00  0.00    -0.329 C  
HETATM    2  O   UNK A   0     -12.222   7.803  72.913  1.00  0.00    -0.590 OA 
HETATM    3  C   UNK A   0     -14.274   8.557  71.918  1.00  0.00    -0.536 C  
HETATM    4  H   UNK A   0     -11.338   7.498  72.748  1.00  0.00     0.000 HD 
ENDROOT
BRANCH   1   5
HETATM    5  C   UNK A   0     -12.058   9.161  70.971  1.00  0.00    -0.263 C  
HETATM    6  O   UNK A   0     -11.184   9.772  71.804  1.00  0.00    -0.260 OA 
HETATM    7  H   UNK A   0     -10.679  10.453  71.377  1.00  0.00     0.000 HD 
BRANCH   5   8
HETATM    8  N   UNK A   0     -12.160   9.436  69.712  1.00  0.00    -0.153 NA 
HETATM    9  H   UNK A   0     -13.077   9.477  69.269  1.00  0.00     0.000 HD 
BRANCH   8  10
HETATM   10  C   UNK A   0     -10.979   9.681  68.947  1.00  0.00    -0.121 A  
HETATM   11  C   UNK A   0     -10.140   8.630  68.508  1.00  0.00    -0.190 A  
HETATM   12  I   UNK A   0     -10.771   6.573  68.936  1.00  0.00    -0.381 I  
HETATM   13  C   UNK A   0      -9.026   8.892  67.683  1.00  0.00    -0.141 A  
HETATM   14  I   UNK A   0     -11.872  12.591  69.401  1.00  0.00    -0.196 I  
HETATM   15  C   UNK A   0      -8.922  10.180  67.082  1.00  0.00    -0.135 A  
HETATM   16  I   UNK A   0      -7.754  10.301  65.239  1.00  0.00    -0.042 I  
HETATM   17  C   UNK A   0     -10.723  11.006  68.479  1.00  0.00    -0.202 A  
HETATM   18  C   UNK A   0      -9.759  11.267  67.476  1.00  0.00    -0.192 A  
BRANCH  13  19
HETATM   19  C   UNK A   0      -7.902   7.918  67.507  1.00  0.00    -0.122 C  
HETATM   20  O   UNK A   0      -8.052   6.983  66.559  1.00  0.00    -0.105 OA 
HETATM   21  H   UNK A   0      -7.339   6.365  66.448  1.00  0.00     0.000 HD 
BRANCH  19  22
ATOM     22  N   SER A   1      -6.825   7.960  68.210  1.00  0.00    -0.069 NA 
ATOM     23  H   SER A   1      -5.982   8.412  67.855  1.00  0.00     0.000 HD 
BRANCH  22  24
ATOM     24  CA  SER A   1      -6.848   7.326  69.558  1.00  0.00    -0.050 C  
BRANCH  24  25
ATOM     25  C   SER A   1      -6.315   8.371  70.556  1.00  0.00    -0.035 C  
ATOM     26  H   SER A   1      -7.005   9.959  71.491  1.00  0.00     0.000 HD 
ATOM     27  O   SER A   1      -7.335   9.314  70.876  1.00  0.00    -0.114 OA 
ENDBRANCH  24  25
BRANCH  24  28
ATOM     28  CB  SER A   1      -5.948   6.076  69.644  1.00  0.00    -0.025 C  
ATOM     29  OG  SER A   1      -5.888   5.313  68.440  1.00  0.00    -0.015 OA 
ATOM     30  HG  SER A   1      -5.335   4.543  68.493  1.00  0.00     0.000 HD 
ENDBRANCH  24  28
ENDBRANCH  22  24
ENDBRANCH  19  22
ENDBRANCH  13  19
BRANCH  18  31
HETATM   31  C   UNK A   0      -9.648  12.608  66.794  1.00  0.00    -0.241 C  
HETATM   32  H   UNK A   0      -8.360  14.025  66.421  1.00  0.00     0.000 HD 
HETATM   33  O   UNK A   0      -8.430  13.181  66.850  1.00  0.00    -0.170 OA 
BRANCH  31  34
ATOM     34  N   SER A   1     -10.631  13.232  66.240  1.00  0.00    -0.286 NA 
ATOM     35  H   SER A   1     -11.259  13.822  66.785  1.00  0.00     0.000 HD 
BRANCH  34  36
ATOM     36  CA  SER A   1     -10.813  13.054  64.767  1.00  0.00    -0.337 C  
BRANCH  36  37
ATOM     37  CB  SER A   1     -11.431  11.673  64.531  1.00  0.00    -0.198 C  
ATOM     38  HG  SER A   1     -10.917   9.993  63.640  1.00  0.00     0.000 HD 
ATOM     39  OG  SER A   1     -10.533  10.849  63.787  1.00  0.00    -0.353 OA 
ENDBRANCH  36  37
BRANCH  36  40
ATOM     40  C   SER A   1     -11.747  14.157  64.233  1.00  0.00    -0.345 C  
ATOM     41  H   SER A   1     -13.148  14.328  62.857  1.00  0.00     0.000 HD 
ATOM     42  O   SER A   1     -12.572  13.649  63.186  1.00  0.00    -0.792 OA 
ENDBRANCH  36  40
ENDBRANCH  34  36
ENDBRANCH  31  34
ENDBRANCH  18  31
ENDBRANCH   8  10
ENDBRANCH   5   8
ENDBRANCH   1   5
TORSDOF 13
ENDMDL
MODEL      134
REMARK 921   NORMALIZED FREE ENERGY PREDICTED BY IDOCK:   -3.60 KCAL/MOL
REMARK 922        TOTAL FREE ENERGY PREDICTED BY IDOCK:   -7.26 KCAL/MOL
REMARK 923 INTER-LIGAND FREE ENERGY PREDICTED BY IDOCK:   -6.15 KCAL/MOL
REMARK 924 INTRA-LIGAND FREE ENERGY PREDICTED BY IDOCK:   -1.12 KCAL/MOL
REMARK 927      BINDING AFFINITY PREDICTED BY RF-SCORE:    0.00 PKD
ROOT
HETATM    1  C   UNK A   0      -5.987  16.231  67.878  1.00  0.00    -0.127 C  
HETATM    2  O   UNK A   0      -6.252  16.635  66.523  1.00  0.00    -0.293 OA 
HETATM    3  C   UNK A   0      -6.626  17.226  68.821  1.00  0.00    -0.197 C  
HETATM    4  H   UNK A   0      -5.851  16.010  65.931  1.00  0.00     0.000 HD 
ENDROOT
BRANCH   1   5
HETATM    5  C   UNK A   0      -6.618  14.861  68.060  1.00  0.00    -0.148 C  
HETATM    6  O   UNK A   0      -6.662  14.468  69.354  1.00  0.00    -0.124 OA 
HETATM    7  H   UNK A   0      -7.056  13.611  69.468  1.00  0.00     0.000 HD 
BRANCH   5   8
HETATM    8  N   UNK A   0      -7.108  14.170  67.084  1.00  0.00    -0.382 NA 
HETATM    9  H   UNK A   0      -6.832  14.371  66.123  1.00  0.00     0.000 HD 
BRANCH   8  10
HETATM   10  C   UNK A   0      -8.041  13.124  67.360  1.00  0.00    -0.179 A  
HETATM   11  C   UNK A   0      -7.633  11.778  67.512  1.00  0.00    -0.135 A  
HETATM   12  I   UNK A   0      -5.484  11.348  67.429  1.00  0.00    -0.097 I  
HETATM   13  C   UNK A   0      -8.562  10.777  67.866  1.00  0.00    -0.125 A  
HETATM   14  I   UNK A   0     -10.010  15.478  67.134  1.00  0.00    -0.265 I  
HETATM   15  C   UNK A   0      -9.845  11.186  68.333  1.00  0.00    -0.185 A  
HETATM   16  I   UNK A   0     -10.905   9.775  69.623  1.00  0.00    -0.283 I  
HETATM   17  C   UNK A   0      -9.397  13.467  67.647  1.00  0.00    -0.216 A  
HETATM   18  C   UNK A   0     -10.294  12.536  68.222  1.00  0.00    -0.241 A  
BRANCH  13  19
HETATM   19  C   UNK A   0      -8.295   9.317  67.666  1.00  0.00    -0.116 C  
HETATM   20  O   UNK A   0      -7.795   8.643  68.711  1.00  0.00    -0.102 OA 
HETATM   21  H   UNK A   0      -7.626   7.717  68.584  1.00  0.00     0.000 HD 
BRANCH  19  22
ATOM     22  N   SER A   1      -8.536   8.708  66.558  1.00  0.00    -0.111 NA 
ATOM     23  H   SER A   1      -8.974   9.193  65.776  1.00  0.00     0.000 HD 
BRANCH  22  24
ATOM     24  CA  SER A   1      -8.154   7.272  66.456  1.00  0.00    -0.114 C  
BRANCH  24  25
ATOM     25  C   SER A   1      -7.663   7.037  65.016  1.00  0.00    -0.115 C  
ATOM     26  H   SER A   1      -8.325   7.367  63.192  1.00  0.00     0.000 HD 
ATOM     27  O   SER A   1      -8.628   7.513  64.081  1.00  0.00     0.170 OA 
ENDBRANCH  24  25
BRANCH  24  28
ATOM     28  CB  SER A   1      -9.340   6.320  66.720  1.00  0.00    -0.142 C  
ATOM     29  OG  SER A   1      -9.688   6.186  68.097  1.00  0.00    -0.118 OA 
ATOM     30  HG  SER A   1     -10.417   5.601  68.260  1.00  0.00     0.000 HD 
ENDBRANCH  24  28
ENDBRANCH  22  24
ENDBRANCH  19  22
ENDBRANCH  13  19
BRANCH  18  31
HETATM   31  C   UNK A   0     -11.644  12.943  68.758  1.00  0.00    -0.311 C  
HETATM   32  H   UNK A   0     -13.482  13.254  68.182  1.00  0.00     0.000 HD 
HETATM   33  O   UNK A   0     -12.632  12.997  67.844  1.00  0.00     0.167 OA 
BRANCH  31  34
ATOM     34  N   SER A   1     -11.874  13.284  69.980  1.00  0.00    -0.452 NA 
ATOM     35  H   SER A   1     -11.738  12.626  70.748  1.00  0.00     0.000 HD 
BRANCH  34  36
ATOM     36  CA  SER A   1     -12.348  14.680  70.226  1.00  0.00    -0.349 C  
BRANCH  36  37
ATOM     37  CB  SER A   1     -13.547  14.611  71.176  1.00  0.00    -0.344 C  
ATOM     38  HG  SER A   1     -14.102  13.528  72.726  1.00  0.00     0.000 HD 
ATOM     39  OG  SER A   1     -13.358  13.571  72.136  1.00  0.00    -0.424 OA 
ENDBRANCH  36  37
BRANCH  36  40
ATOM     40  C   SER A   1     -11.209  15.500  70.860  1.00  0.00    -0.371 C  
ATOM     41  H   SER A   1     -11.036  17.070  72.039  1.00  0.00     0.000 HD 
ATOM     42  O   SER A   1     -11.738  16.565  71.648  1.00  0.00    -0.415 OA 
ENDBRANCH  36  40
ENDBRANCH  34  36
ENDBRANCH  31  34
ENDBRANCH  18  31
ENDBRANCH   8  10
ENDBRANCH   5   8
ENDBRANCH   1   5
TORSDOF 13
ENDMDL
MODEL      135
REMARK 921   NORMALIZED FREE ENERGY PREDICTED BY IDOCK:   -3.59 KCAL/MOL
REMARK 922        TOTAL FREE ENERGY PREDICTED BY IDOCK:   -7.25 KCAL/MOL
REMARK 923 INTER-LIGAND FREE ENERGY PREDICTED BY IDOCK:   -6.95 KCAL/MOL
REMARK 924 INTRA-LIGAND FREE ENERGY PREDICTED BY IDOCK:   -0.30 KCAL/MOL
REMARK 927      BINDING AFFINITY PREDICTED BY RF-SCORE:    0.00 PKD
ROOT
HETATM    1  C   UNK A   0     -12.690  12.703  64.050  1.00  0.00    -0.269 C  
HETATM    2  O   UNK A   0     -12.658  13.984  63.397  1.00  0.00    -1.056 OA 
HETATM    3  C   UNK A   0     -12.212  11.645  63.082  1.00  0.00    -0.150 C  
HETATM    4  H   UNK A   0     -12.959  14.649  64.005  1.00  0.00     0.000 HD 
ENDROOT
BRANCH   1   5
HETATM    5  C   UNK A   0     -11.744  12.790  65.236  1.00  0.00    -0.368 C  
HETATM    6  O   UNK A   0     -12.391  12.905  66.419  1.00  0.00    -0.463 OA 
HETATM    7  H   UNK A   0     -11.799  12.960  67.161  1.00  0.00     0.000 HD 
BRANCH   5   8
HETATM    8  N   UNK A   0     -10.459  12.709  65.126  1.00  0.00    -0.290 NA 
HETATM    9  H   UNK A   0     -10.032  12.532  64.217  1.00  0.00     0.000 HD 
BRANCH   8  10
HETATM   10  C   UNK A   0      -9.641  12.867  66.287  1.00  0.00    -0.243 A  
HETATM   11  C   UNK A   0      -9.170  11.757  67.027  1.00  0.00    -0.187 A  
HETATM   12  I   UNK A   0      -9.637   9.752  66.269  1.00  0.00    -0.334 I  
HETATM   13  C   UNK A   0      -8.296  11.936  68.120  1.00  0.00    -0.161 A  
HETATM   14  I   UNK A   0     -10.119  15.834  65.626  1.00  0.00    -0.281 I  
HETATM   15  C   UNK A   0      -7.684  13.212  68.289  1.00  0.00    -0.141 A  
HETATM   16  I   UNK A   0      -5.791  13.245  69.380  1.00  0.00    -0.114 I  
HETATM   17  C   UNK A   0      -9.155  14.168  66.616  1.00  0.00    -0.216 A  
HETATM   18  C   UNK A   0      -8.109  14.357  67.551  1.00  0.00    -0.204 A  
BRANCH  13  19
HETATM   19  C   UNK A   0      -8.075  10.883  69.161  1.00  0.00    -0.100 C  
HETATM   20  O   UNK A   0      -9.094  10.632  69.996  1.00  0.00    -0.286 OA 
HETATM   21  H   UNK A   0      -8.954   9.964  70.656  1.00  0.00     0.000 HD 
BRANCH  19  22
ATOM     22  N   SER A   1      -6.975  10.223  69.267  1.00  0.00    -0.064 NA 
ATOM     23  H   SER A   1      -6.247  10.298  68.556  1.00  0.00     0.000 HD 
BRANCH  22  24
ATOM     24  CA  SER A   1      -6.800   9.347  70.459  1.00  0.00    -0.098 C  
BRANCH  24  25
ATOM     25  C   SER A   1      -5.437   9.702  71.083  1.00  0.00    -0.064 C  
ATOM     26  H   SER A   1      -4.773  10.400  72.799  1.00  0.00     0.000 HD 
ATOM     27  O   SER A   1      -5.614  10.181  72.414  1.00  0.00    -0.300 OA 
ENDBRANCH  24  25
BRANCH  24  28
ATOM     28  CB  SER A   1      -6.787   7.847  70.099  1.00  0.00    -0.045 C  
ATOM     29  OG  SER A   1      -5.517   7.218  70.255  1.00  0.00    -0.023 OA 
ATOM     30  HG  SER A   1      -5.510   6.294  70.033  1.00  0.00     0.000 HD 
ENDBRANCH  24  28
ENDBRANCH  22  24
ENDBRANCH  19  22
ENDBRANCH  13  19
BRANCH  18  31
HETATM   31  C   UNK A   0      -7.417  15.686  67.728  1.00  0.00    -0.145 C  
HETATM   32  H   UNK A   0      -6.038  16.805  66.920  1.00  0.00     0.000 HD 
HETATM   33  O   UNK A   0      -6.474  15.968  66.809  1.00  0.00    -0.278 OA 
BRANCH  31  34
ATOM     34  N   SER A   1      -7.633  16.499  68.705  1.00  0.00    -0.200 NA 
ATOM     35  H   SER A   1      -7.776  16.159  69.656  1.00  0.00     0.000 HD 
BRANCH  34  36
ATOM     36  CA  SER A   1      -7.664  17.959  68.387  1.00  0.00    -0.291 C  
BRANCH  36  37
ATOM     37  CB  SER A   1      -9.012  18.271  67.732  1.00  0.00    -0.267 C  
ATOM     38  HG  SER A   1      -9.815  19.754  66.712  1.00  0.00     0.000 HD 
ATOM     39  OG  SER A   1      -8.978  19.560  67.119  1.00  0.00    -0.287 OA 
ENDBRANCH  36  37
BRANCH  36  40
ATOM     40  C   SER A   1      -7.503  18.767  69.689  1.00  0.00     0.308 C  
ATOM     41  H   SER A   1      -6.507  20.356  70.296  1.00  0.00     0.000 HD 
ATOM     42  O   SER A   1      -6.606  19.859  69.493  1.00  0.00    -0.335 OA 
ENDBRANCH  36  40
ENDBRANCH  34  36
ENDBRANCH  31  34
ENDBRANCH  18  31
ENDBRANCH   8  10
ENDBRANCH   5   8
ENDBRANCH   1   5
TORSDOF 13
ENDMDL
MODEL      136
REMARK 921   NORMALIZED FREE ENERGY PREDICTED BY IDOCK:   -3.57 KCAL/MOL
REMARK 922        TOTAL FREE ENERGY PREDICTED BY IDOCK:   -7.21 KCAL/MOL
REMARK 923 INTER-LIGAND FREE ENERGY PREDICTED BY IDOCK:   -7.12 KCAL/MOL
REMARK 924 INTRA-LIGAND FREE ENERGY PREDICTED BY IDOCK:   -0.09 KCAL/MOL
REMARK 927      BINDING AFFINITY PREDICTED BY RF-SCORE:    0.00 PKD
ROOT
HETATM    1  C   UNK A   0     -11.316  13.673  64.289  1.00  0.00    -0.350 C  
HETATM    2  O   UNK A   0     -11.263  12.826  63.127  1.00  0.00    -0.721 OA 
HETATM    3  C   UNK A   0     -12.203  14.861  63.991  1.00  0.00    -0.151 C  
HETATM    4  H   UNK A   0     -10.705  12.081  63.314  1.00  0.00     0.000 HD 
ENDROOT
BRANCH   1   5
HETATM    5  C   UNK A   0     -11.916  12.843  65.411  1.00  0.00    -0.426 C  
HETATM    6  O   UNK A   0     -13.137  12.346  65.104  1.00  0.00    -0.558 OA 
HETATM    7  H   UNK A   0     -13.512  11.827  65.806  1.00  0.00     0.000 HD 
BRANCH   5   8
HETATM    8  N   UNK A   0     -11.298  12.595  66.518  1.00  0.00    -0.307 NA 
HETATM    9  H   UNK A   0     -11.785  12.133  67.285  1.00  0.00     0.000 HD 
BRANCH   8  10
HETATM   10  C   UNK A   0      -9.928  12.974  66.661  1.00  0.00    -0.250 A  
HETATM   11  C   UNK A   0      -9.550  14.273  67.073  1.00  0.00    -0.257 A  
HETATM   12  I   UNK A   0     -11.146  15.679  67.611  1.00  0.00    -0.147 I  
HETATM   13  C   UNK A   0      -8.193  14.597  67.287  1.00  0.00    -0.235 A  
HETATM   14  I   UNK A   0      -9.530  10.096  65.647  1.00  0.00    -0.350 I  
HETATM   15  C   UNK A   0      -7.249  13.531  67.347  1.00  0.00    -0.098 A  
HETATM   16  I   UNK A   0      -5.415  13.920  68.470  1.00  0.00    -0.119 I  
HETATM   17  C   UNK A   0      -8.919  11.971  66.537  1.00  0.00    -0.193 A  
HETATM   18  C   UNK A   0      -7.588  12.199  66.962  1.00  0.00    -0.093 A  
BRANCH  13  19
HETATM   19  C   UNK A   0      -7.696  16.009  67.339  1.00  0.00    -0.167 C  
HETATM   20  O   UNK A   0      -6.906  16.412  66.334  1.00  0.00    -0.179 OA 
HETATM   21  H   UNK A   0      -6.592  17.307  66.367  1.00  0.00     0.000 HD 
BRANCH  19  22
ATOM     22  N   SER A   1      -8.008  16.825  68.284  1.00  0.00    -0.192 NA 
ATOM     23  H   SER A   1      -8.097  16.504  69.248  1.00  0.00     0.000 HD 
BRANCH  22  24
ATOM     24  CA  SER A   1      -8.234  18.253  67.925  1.00  0.00    -0.253 C  
BRANCH  24  25
ATOM     25  C   SER A   1      -6.847  18.903  67.766  1.00  0.00    -0.207 C  
ATOM     26  H   SER A   1      -5.820  20.343  68.630  1.00  0.00     0.000 HD 
ATOM     27  O   SER A   1      -6.676  19.941  68.728  1.00  0.00    -0.303 OA 
ENDBRANCH  24  25
BRANCH  24  28
ATOM     28  CB  SER A   1      -9.005  19.026  69.015  1.00  0.00    -0.182 C  
ATOM     29  OG  SER A   1     -10.313  19.441  68.625  1.00  0.00    -0.484 OA 
ATOM     30  HG  SER A   1     -10.787  19.917  69.296  1.00  0.00     0.000 HD 
ENDBRANCH  24  28
ENDBRANCH  22  24
ENDBRANCH  19  22
ENDBRANCH  13  19
BRANCH  18  31
HETATM   31  C   UNK A   0      -6.575  11.086  67.072  1.00  0.00    -0.100 C  
HETATM   32  H   UNK A   0      -4.930  10.438  66.249  1.00  0.00     0.000 HD 
HETATM   33  O   UNK A   0      -5.567  11.138  66.180  1.00  0.00    -0.136 OA 
BRANCH  31  34
ATOM     34  N   SER A   1      -6.657  10.101  67.899  1.00  0.00    -0.065 NA 
ATOM     35  H   SER A   1      -7.292   9.321  67.733  1.00  0.00     0.000 HD 
BRANCH  34  36
ATOM     36  CA  SER A   1      -5.783  10.149  69.111  1.00  0.00    -0.037 C  
BRANCH  36  37
ATOM     37  CB  SER A   1      -6.640  10.609  70.293  1.00  0.00    -0.125 C  
ATOM     38  HG  SER A   1      -6.358  11.540  72.007  1.00  0.00     0.000 HD 
ATOM     39  OG  SER A   1      -5.827  11.254  71.273  1.00  0.00    -0.371 OA 
ENDBRANCH  36  37
BRANCH  36  40
ATOM     40  C   SER A   1      -5.210   8.745  69.381  1.00  0.00    -0.035 C  
ATOM     41  H   SER A   1      -5.465   6.917  68.686  1.00  0.00     0.000 HD 
ATOM     42  O   SER A   1      -5.818   7.783  68.520  1.00  0.00    -0.029 OA 
ENDBRANCH  36  40
ENDBRANCH  34  36
ENDBRANCH  31  34
ENDBRANCH  18  31
ENDBRANCH   8  10
ENDBRANCH   5   8
ENDBRANCH   1   5
TORSDOF 13
ENDMDL
MODEL      137
REMARK 921   NORMALIZED FREE ENERGY PREDICTED BY IDOCK:   -3.55 KCAL/MOL
REMARK 922        TOTAL FREE ENERGY PREDICTED BY IDOCK:   -7.18 KCAL/MOL
REMARK 923 INTER-LIGAND FREE ENERGY PREDICTED BY IDOCK:   -6.15 KCAL/MOL
REMARK 924 INTRA-LIGAND FREE ENERGY PREDICTED BY IDOCK:   -1.03 KCAL/MOL
REMARK 927      BINDING AFFINITY PREDICTED BY RF-SCORE:    0.00 PKD
ROOT
HETATM    1  C   UNK A   0     -10.546   4.790  72.829  1.00  0.00    -0.211 C  
HETATM    2  O   UNK A   0     -11.915   5.124  73.116  1.00  0.00    -0.525 OA 
HETATM    3  C   UNK A   0     -10.383   3.288  72.893  1.00  0.00    -0.246 C  
HETATM    4  H   UNK A   0     -12.017   6.068  73.077  1.00  0.00     0.000 HD 
ENDROOT
BRANCH   1   5
HETATM    5  C   UNK A   0     -10.257   5.286  71.422  1.00  0.00    -0.213 C  
HETATM    6  O   UNK A   0     -11.357   5.767  70.797  1.00  0.00    -0.216 OA 
HETATM    7  H   UNK A   0     -11.177   6.077  69.917  1.00  0.00     0.000 HD 
BRANCH   5   8
HETATM    8  N   UNK A   0      -9.075   5.296  70.902  1.00  0.00    -0.136 NA 
HETATM    9  H   UNK A   0      -8.343   4.693  71.278  1.00  0.00     0.000 HD 
BRANCH   8  10
HETATM   10  C   UNK A   0      -8.798   6.159  69.797  1.00  0.00    -0.135 A  
HETATM   11  C   UNK A   0      -8.786   5.686  68.464  1.00  0.00    -0.110 A  
HETATM   12  I   UNK A   0      -9.327   3.589  68.118  1.00  0.00    -0.124 I  
HETATM   13  C   UNK A   0      -8.592   6.575  67.384  1.00  0.00    -0.118 A  
HETATM   14  I   UNK A   0      -8.443   8.181  72.089  1.00  0.00    -0.242 I  
HETATM   15  C   UNK A   0      -8.686   7.974  67.640  1.00  0.00    -0.126 A  
HETATM   16  I   UNK A   0      -9.222   9.239  65.941  1.00  0.00    -0.311 I  
HETATM   17  C   UNK A   0      -8.688   7.563  70.030  1.00  0.00    -0.140 A  
HETATM   18  C   UNK A   0      -8.723   8.498  68.967  1.00  0.00    -0.134 A  
BRANCH  13  19
HETATM   19  C   UNK A   0      -8.186   6.113  66.019  1.00  0.00    -0.127 C  
HETATM   20  O   UNK A   0      -9.164   5.701  65.201  1.00  0.00    -0.359 OA 
HETATM   21  H   UNK A   0      -8.906   5.409  64.335  1.00  0.00     0.000 HD 
BRANCH  19  22
ATOM     22  N   SER A   1      -6.963   6.114  65.617  1.00  0.00    -0.056 NA 
ATOM     23  H   SER A   1      -6.211   5.778  66.218  1.00  0.00     0.000 HD 
BRANCH  22  24
ATOM     24  CA  SER A   1      -6.682   6.621  64.245  1.00  0.00    -0.041 C  
BRANCH  24  25
ATOM     25  C   SER A   1      -6.171   5.426  63.418  1.00  0.00    -0.022 C  
ATOM     26  H   SER A   1      -6.919   3.775  62.651  1.00  0.00     0.000 HD 
ATOM     27  O   SER A   1      -7.235   4.513  63.161  1.00  0.00    -0.043 OA 
ENDBRANCH  24  25
BRANCH  24  28
ATOM     28  CB  SER A   1      -5.597   7.718  64.226  1.00  0.00    -0.037 C  
ATOM     29  OG  SER A   1      -5.914   8.841  63.407  1.00  0.00    -0.079 OA 
ATOM     30  HG  SER A   1      -5.246   9.517  63.396  1.00  0.00     0.000 HD 
ENDBRANCH  24  28
ENDBRANCH  22  24
ENDBRANCH  19  22
ENDBRANCH  13  19
BRANCH  18  31
HETATM   31  C   UNK A   0      -8.858   9.982  69.204  1.00  0.00    -0.168 C  
HETATM   32  H   UNK A   0      -7.872  11.653  68.999  1.00  0.00     0.000 HD 
HETATM   33  O   UNK A   0      -7.787  10.719  68.850  1.00  0.00    -0.118 OA 
BRANCH  31  34
ATOM     34  N   SER A   1      -9.876  10.545  69.758  1.00  0.00    -0.431 NA 
ATOM     35  H   SER A   1      -9.852  10.844  70.733  1.00  0.00     0.000 HD 
BRANCH  34  36
ATOM     36  CA  SER A   1     -11.094  10.743  68.914  1.00  0.00    -0.253 C  
BRANCH  36  37
ATOM     37  CB  SER A   1     -12.315  10.739  69.839  1.00  0.00    -0.271 C  
ATOM     38  HG  SER A   1     -13.114  11.940  71.182  1.00  0.00     0.000 HD 
ATOM     39  OG  SER A   1     -12.357  11.942  70.608  1.00  0.00    -0.356 OA 
ENDBRANCH  36  37
BRANCH  36  40
ATOM     40  C   SER A   1     -10.988  12.090  68.174  1.00  0.00    -0.230 C  
ATOM     41  H   SER A   1     -11.754  12.921  66.559  1.00  0.00     0.000 HD 
ATOM     42  O   SER A   1     -11.820  12.091  67.015  1.00  0.00    -0.573 OA 
ENDBRANCH  36  40
ENDBRANCH  34  36
ENDBRANCH  31  34
ENDBRANCH  18  31
ENDBRANCH   8  10
ENDBRANCH   5   8
ENDBRANCH   1   5
TORSDOF 13
ENDMDL
MODEL      138
REMARK 921   NORMALIZED FREE ENERGY PREDICTED BY IDOCK:   -3.54 KCAL/MOL
REMARK 922        TOTAL FREE ENERGY PREDICTED BY IDOCK:   -7.16 KCAL/MOL
REMARK 923 INTER-LIGAND FREE ENERGY PREDICTED BY IDOCK:   -6.11 KCAL/MOL
REMARK 924 INTRA-LIGAND FREE ENERGY PREDICTED BY IDOCK:   -1.05 KCAL/MOL
REMARK 927      BINDING AFFINITY PREDICTED BY RF-SCORE:    0.00 PKD
ROOT
HETATM    1  C   UNK A   0      -8.652   3.397  63.455  1.00  0.00    -0.090 C  
HETATM    2  O   UNK A   0      -7.223   3.421  63.294  1.00  0.00    -0.047 OA 
HETATM    3  C   UNK A   0      -9.062   2.051  64.011  1.00  0.00    -0.109 C  
HETATM    4  H   UNK A   0      -6.966   4.265  62.944  1.00  0.00     0.000 HD 
ENDROOT
BRANCH   1   5
HETATM    5  C   UNK A   0      -9.002   4.497  64.442  1.00  0.00    -0.152 C  
HETATM    6  O   UNK A   0     -10.334   4.721  64.532  1.00  0.00    -0.376 OA 
HETATM    7  H   UNK A   0     -10.553   5.410  65.149  1.00  0.00     0.000 HD 
BRANCH   5   8
HETATM    8  N   UNK A   0      -8.121   5.115  65.158  1.00  0.00    -0.113 NA 
HETATM    9  H   UNK A   0      -7.130   4.898  65.052  1.00  0.00     0.000 HD 
BRANCH   8  10
HETATM   10  C   UNK A   0      -8.545   6.102  66.099  1.00  0.00    -0.141 A  
HETATM   11  C   UNK A   0      -9.080   5.752  67.361  1.00  0.00    -0.110 A  
HETATM   12  I   UNK A   0      -9.135   3.624  67.892  1.00  0.00    -0.233 I  
HETATM   13  C   UNK A   0      -9.413   6.746  68.306  1.00  0.00    -0.125 A  
HETATM   14  I   UNK A   0      -7.717   7.961  63.791  1.00  0.00    -0.090 I  
HETATM   15  C   UNK A   0      -8.949   8.074  68.076  1.00  0.00    -0.130 A  
HETATM   16  I   UNK A   0      -8.725   9.343  69.841  1.00  0.00    -0.272 I  
HETATM   17  C   UNK A   0      -8.275   7.477  65.825  1.00  0.00    -0.137 A  
HETATM   18  C   UNK A   0      -8.383   8.470  66.828  1.00  0.00    -0.109 A  
BRANCH  13  19
HETATM   19  C   UNK A   0     -10.321   6.486  69.468  1.00  0.00    -0.200 C  
HETATM   20  O   UNK A   0     -11.638   6.585  69.244  1.00  0.00    -0.628 OA 
HETATM   21  H   UNK A   0     -12.214   6.420  69.982  1.00  0.00     0.000 HD 
BRANCH  19  22
ATOM     22  N   SER A   1      -9.886   6.168  70.637  1.00  0.00    -0.177 NA 
ATOM     23  H   SER A   1      -9.073   6.634  71.041  1.00  0.00     0.000 HD 
BRANCH  22  24
ATOM     24  CA  SER A   1     -10.606   5.096  71.380  1.00  0.00    -0.137 C  
BRANCH  24  25
ATOM     25  C   SER A   1     -11.230   5.752  72.626  1.00  0.00    -0.301 C  
ATOM     26  H   SER A   1     -11.679   5.220  74.466  1.00  0.00     0.000 HD 
ATOM     27  O   SER A   1     -11.293   4.815  73.698  1.00  0.00    -0.309 OA 
ENDBRANCH  24  25
BRANCH  24  28
ATOM     28  CB  SER A   1      -9.668   3.965  71.851  1.00  0.00    -0.169 C  
ATOM     29  OG  SER A   1      -8.601   4.401  72.692  1.00  0.00    -0.107 OA 
ATOM     30  HG  SER A   1      -8.024   3.704  72.982  1.00  0.00     0.000 HD 
ENDBRANCH  24  28
ENDBRANCH  22  24
ENDBRANCH  19  22
ENDBRANCH  13  19
BRANCH  18  31
HETATM   31  C   UNK A   0      -7.868   9.875  66.629  1.00  0.00    -0.110 C  
HETATM   32  H   UNK A   0      -6.204  10.874  66.431  1.00  0.00     0.000 HD 
HETATM   33  O   UNK A   0      -6.528   9.990  66.556  1.00  0.00    -0.068 OA 
BRANCH  31  34
ATOM     34  N   SER A   1      -8.611  10.928  66.589  1.00  0.00    -0.143 NA 
ATOM     35  H   SER A   1      -8.300  11.812  66.992  1.00  0.00     0.000 HD 
BRANCH  34  36
ATOM     36  CA  SER A   1      -9.945  10.801  65.927  1.00  0.00    -0.250 C  
BRANCH  36  37
ATOM     37  CB  SER A   1     -10.975  11.521  66.802  1.00  0.00    -0.294 C  
ATOM     38  HG  SER A   1     -12.251  11.040  68.225  1.00  0.00     0.000 HD 
ATOM     39  OG  SER A   1     -11.611  10.594  67.682  1.00  0.00    -0.492 OA 
ENDBRANCH  36  37
BRANCH  36  40
ATOM     40  C   SER A   1      -9.884  11.448  64.530  1.00  0.00    -0.260 C  
ATOM     41  H   SER A   1     -10.224  10.906  62.665  1.00  0.00     0.000 HD 
ATOM     42  O   SER A   1     -10.261  10.507  63.526  1.00  0.00    -0.234 OA 
ENDBRANCH  36  40
ENDBRANCH  34  36
ENDBRANCH  31  34
ENDBRANCH  18  31
ENDBRANCH   8  10
ENDBRANCH   5   8
ENDBRANCH   1   5
TORSDOF 13
ENDMDL
MODEL      139
REMARK 921   NORMALIZED FREE ENERGY PREDICTED BY IDOCK:   -3.45 KCAL/MOL
REMARK 922        TOTAL FREE ENERGY PREDICTED BY IDOCK:   -7.01 KCAL/MOL
REMARK 923 INTER-LIGAND FREE ENERGY PREDICTED BY IDOCK:   -6.92 KCAL/MOL
REMARK 924 INTRA-LIGAND FREE ENERGY PREDICTED BY IDOCK:   -0.09 KCAL/MOL
REMARK 927      BINDING AFFINITY PREDICTED BY RF-SCORE:    0.00 PKD
ROOT
HETATM    1  C   UNK A   0      -8.148  18.194  68.503  1.00  0.00    -0.302 C  
HETATM    2  O   UNK A   0      -7.326  18.429  67.346  1.00  0.00    -0.213 OA 
HETATM    3  C   UNK A   0      -9.511  18.806  68.269  1.00  0.00    -0.389 C  
HETATM    4  H   UNK A   0      -6.469  18.045  67.493  1.00  0.00     0.000 HD 
ENDROOT
BRANCH   1   5
HETATM    5  C   UNK A   0      -8.272  16.688  68.656  1.00  0.00    -0.245 C  
HETATM    6  O   UNK A   0      -9.141  16.327  69.628  1.00  0.00    -0.069 OA 
HETATM    7  H   UNK A   0      -9.219  15.385  69.725  1.00  0.00     0.000 HD 
BRANCH   5   8
HETATM    8  N   UNK A   0      -7.652  15.844  67.899  1.00  0.00    -0.128 NA 
HETATM    9  H   UNK A   0      -6.827  16.134  67.375  1.00  0.00     0.000 HD 
BRANCH   8  10
HETATM   10  C   UNK A   0      -8.131  14.502  67.800  1.00  0.00    -0.158 A  
HETATM   11  C   UNK A   0      -7.561  13.447  68.551  1.00  0.00    -0.127 A  
HETATM   12  I   UNK A   0      -5.976  13.951  69.981  1.00  0.00    -0.119 I  
HETATM   13  C   UNK A   0      -8.106  12.146  68.498  1.00  0.00    -0.112 A  
HETATM   14  I   UNK A   0      -9.971  15.824  65.718  1.00  0.00    -0.307 I  
HETATM   15  C   UNK A   0      -9.390  11.978  67.901  1.00  0.00    -0.190 A  
HETATM   16  I   UNK A   0     -10.545  10.242  68.553  1.00  0.00    -0.307 I  
HETATM   17  C   UNK A   0      -9.317  14.246  67.046  1.00  0.00    -0.241 A  
HETATM   18  C   UNK A   0     -10.015  13.020  67.152  1.00  0.00    -0.235 A  
BRANCH  13  19
HETATM   19  C   UNK A   0      -7.348  10.932  68.939  1.00  0.00    -0.111 C  
HETATM   20  O   UNK A   0      -6.957  10.080  67.981  1.00  0.00    -0.077 OA 
HETATM   21  H   UNK A   0      -6.475   9.310  68.261  1.00  0.00     0.000 HD 
BRANCH  19  22
ATOM     22  N   SER A   1      -7.059  10.698  70.171  1.00  0.00    -0.396 NA 
ATOM     23  H   SER A   1      -7.241  11.392  70.896  1.00  0.00     0.000 HD 
BRANCH  22  24
ATOM     24  CA  SER A   1      -6.450   9.381  70.505  1.00  0.00    -0.078 C  
BRANCH  24  25
ATOM     25  C   SER A   1      -7.549   8.529  71.167  1.00  0.00    -0.096 C  
ATOM     26  H   SER A   1      -9.202   8.846  72.188  1.00  0.00     0.000 HD 
ATOM     27  O   SER A   1      -8.523   9.371  71.780  1.00  0.00    -0.190 OA 
ENDBRANCH  24  25
BRANCH  24  28
ATOM     28  CB  SER A   1      -5.274   9.502  71.497  1.00  0.00    -0.062 C  
ATOM     29  OG  SER A   1      -5.642   9.999  72.783  1.00  0.00    -0.314 OA 
ATOM     30  HG  SER A   1      -4.918  10.074  73.393  1.00  0.00     0.000 HD 
ENDBRANCH  24  28
ENDBRANCH  22  24
ENDBRANCH  19  22
ENDBRANCH  13  19
BRANCH  18  31
HETATM   31  C   UNK A   0     -11.390  12.822  66.563  1.00  0.00    -0.322 C  
HETATM   32  H   UNK A   0     -13.201  12.297  67.063  1.00  0.00     0.000 HD 
HETATM   33  O   UNK A   0     -12.335  12.421  67.434  1.00  0.00    -0.343 OA 
BRANCH  31  34
ATOM     34  N   SER A   1     -11.677  12.955  65.313  1.00  0.00    -0.344 NA 
ATOM     35  H   SER A   1     -12.088  13.815  64.951  1.00  0.00     0.000 HD 
BRANCH  34  36
ATOM     36  CA  SER A   1     -11.382  11.796  64.415  1.00  0.00    -0.301 C  
BRANCH  36  37
ATOM     37  CB  SER A   1     -12.465  11.750  63.334  1.00  0.00    -0.372 C  
ATOM     38  HG  SER A   1     -14.431  11.856  63.252  1.00  0.00     0.000 HD 
ATOM     39  OG  SER A   1     -13.759  11.885  63.923  1.00  0.00    -0.224 OA 
ENDBRANCH  36  37
BRANCH  36  40
ATOM     40  C   SER A   1      -9.995  11.989  63.775  1.00  0.00    -0.343 C  
ATOM     41  H   SER A   1      -8.332  10.947  63.577  1.00  0.00     0.000 HD 
ATOM     42  O   SER A   1      -9.187  10.829  63.972  1.00  0.00    -0.206 OA 
ENDBRANCH  36  40
ENDBRANCH  34  36
ENDBRANCH  31  34
ENDBRANCH  18  31
ENDBRANCH   8  10
ENDBRANCH   5   8
ENDBRANCH   1   5
TORSDOF 13
ENDMDL
MODEL      140
REMARK 921   NORMALIZED FREE ENERGY PREDICTED BY IDOCK:   -3.45 KCAL/MOL
REMARK 922        TOTAL FREE ENERGY PREDICTED BY IDOCK:   -7.00 KCAL/MOL
REMARK 923 INTER-LIGAND FREE ENERGY PREDICTED BY IDOCK:   -6.18 KCAL/MOL
REMARK 924 INTRA-LIGAND FREE ENERGY PREDICTED BY IDOCK:   -0.82 KCAL/MOL
REMARK 927      BINDING AFFINITY PREDICTED BY RF-SCORE:    0.00 PKD
ROOT
HETATM    1  C   UNK A   0      -9.110   4.047  64.851  1.00  0.00    -0.140 C  
HETATM    2  O   UNK A   0     -10.254   3.253  65.212  1.00  0.00    -0.382 OA 
HETATM    3  C   UNK A   0      -9.185   4.375  63.377  1.00  0.00    -0.123 C  
HETATM    4  H   UNK A   0     -10.206   3.046  66.138  1.00  0.00     0.000 HD 
ENDROOT
BRANCH   1   5
HETATM    5  C   UNK A   0      -9.182   5.322  65.674  1.00  0.00    -0.136 C  
HETATM    6  O   UNK A   0     -10.451   5.697  65.955  1.00  0.00    -0.445 OA 
HETATM    7  H   UNK A   0     -10.496   6.495  66.469  1.00  0.00     0.000 HD 
BRANCH   5   8
HETATM    8  N   UNK A   0      -8.137   5.948  66.105  1.00  0.00    -0.106 NA 
HETATM    9  H   UNK A   0      -7.282   5.963  65.549  1.00  0.00     0.000 HD 
BRANCH   8  10
HETATM   10  C   UNK A   0      -8.187   6.619  67.365  1.00  0.00    -0.121 A  
HETATM   11  C   UNK A   0      -8.424   8.010  67.464  1.00  0.00    -0.127 A  
HETATM   12  I   UNK A   0      -8.839   9.109  65.611  1.00  0.00    -0.258 I  
HETATM   13  C   UNK A   0      -8.552   8.634  68.723  1.00  0.00    -0.130 A  
HETATM   14  I   UNK A   0      -7.519   3.783  68.354  1.00  0.00    -0.053 I  
HETATM   15  C   UNK A   0      -8.711   7.804  69.871  1.00  0.00    -0.142 A  
HETATM   16  I   UNK A   0      -9.716   8.705  71.589  1.00  0.00    -0.356 I  
HETATM   17  C   UNK A   0      -8.153   5.841  68.562  1.00  0.00    -0.108 A  
HETATM   18  C   UNK A   0      -8.503   6.393  69.818  1.00  0.00    -0.127 A  
BRANCH  13  19
HETATM   19  C   UNK A   0      -8.414  10.113  68.912  1.00  0.00    -0.139 C  
HETATM   20  O   UNK A   0      -7.195  10.637  68.728  1.00  0.00    -0.075 OA 
HETATM   21  H   UNK A   0      -7.108  11.576  68.848  1.00  0.00     0.000 HD 
BRANCH  19  22
ATOM     22  N   SER A   1      -9.405  10.873  69.222  1.00  0.00    -0.406 NA 
ATOM     23  H   SER A   1      -9.783  10.885  70.170  1.00  0.00     0.000 HD 
BRANCH  22  24
ATOM     24  CA  SER A   1      -9.984  11.735  68.154  1.00  0.00    -0.194 C  
BRANCH  24  25
ATOM     25  C   SER A   1      -9.935  13.185  68.668  1.00  0.00    -0.111 C  
ATOM     26  H   SER A   1     -10.204  14.989  67.928  1.00  0.00     0.000 HD 
ATOM     27  O   SER A   1     -10.234  14.094  67.611  1.00  0.00    -0.237 OA 
ENDBRANCH  24  25
BRANCH  24  28
ATOM     28  CB  SER A   1     -11.453  11.385  67.837  1.00  0.00    -0.291 C  
ATOM     29  OG  SER A   1     -11.836  11.633  66.486  1.00  0.00    -0.500 OA 
ATOM     30  HG  SER A   1     -12.740  11.418  66.291  1.00  0.00     0.000 HD 
ENDBRANCH  24  28
ENDBRANCH  22  24
ENDBRANCH  19  22
ENDBRANCH  13  19
BRANCH  18  31
HETATM   31  C   UNK A   0      -8.714   5.538  71.043  1.00  0.00    -0.129 C  
HETATM   32  H   UNK A   0      -7.796   4.931  72.653  1.00  0.00     0.000 HD 
HETATM   33  O   UNK A   0      -7.663   5.469  71.882  1.00  0.00    -0.100 OA 
BRANCH  31  34
ATOM     34  N   SER A   1      -9.780   4.855  71.284  1.00  0.00    -0.168 NA 
ATOM     35  H   SER A   1     -10.500   4.726  70.572  1.00  0.00     0.000 HD 
BRANCH  34  36
ATOM     36  CA  SER A   1      -9.920   4.259  72.647  1.00  0.00    -0.155 C  
BRANCH  36  37
ATOM     37  CB  SER A   1     -10.990   5.054  73.402  1.00  0.00    -0.327 C  
ATOM     38  HG  SER A   1     -12.559   6.157  72.949  1.00  0.00     0.000 HD 
ATOM     39  OG  SER A   1     -11.895   5.663  72.482  1.00  0.00    -0.282 OA 
ENDBRANCH  36  37
BRANCH  36  40
ATOM     40  C   SER A   1     -10.342   2.784  72.518  1.00  0.00    -0.121 C  
ATOM     41  H   SER A   1     -11.684   1.584  73.321  1.00  0.00     0.000 HD 
ATOM     42  O   SER A   1     -11.424   2.493  73.401  1.00  0.00    -0.189 OA 
ENDBRANCH  36  40
ENDBRANCH  34  36
ENDBRANCH  31  34
ENDBRANCH  18  31
ENDBRANCH   8  10
ENDBRANCH   5   8
ENDBRANCH   1   5
TORSDOF 13
ENDMDL
MODEL      141
REMARK 921   NORMALIZED FREE ENERGY PREDICTED BY IDOCK:   -3.44 KCAL/MOL
REMARK 922        TOTAL FREE ENERGY PREDICTED BY IDOCK:   -6.98 KCAL/MOL
REMARK 923 INTER-LIGAND FREE ENERGY PREDICTED BY IDOCK:   -6.66 KCAL/MOL
REMARK 924 INTRA-LIGAND FREE ENERGY PREDICTED BY IDOCK:   -0.32 KCAL/MOL
REMARK 927      BINDING AFFINITY PREDICTED BY RF-SCORE:    0.00 PKD
ROOT
HETATM    1  C   UNK A   0      -5.200  13.724  70.975  1.00  0.00    -0.146 C  
HETATM    2  O   UNK A   0      -5.594  14.475  72.137  1.00  0.00    -0.104 OA 
HETATM    3  C   UNK A   0      -5.147  12.256  71.333  1.00  0.00    -0.105 C  
HETATM    4  H   UNK A   0      -5.627  15.397  71.912  1.00  0.00     0.000 HD 
ENDROOT
BRANCH   1   5
HETATM    5  C   UNK A   0      -6.262  13.964  69.915  1.00  0.00    -0.136 C  
HETATM    6  O   UNK A   0      -7.367  14.572  70.404  1.00  0.00    -0.322 OA 
HETATM    7  H   UNK A   0      -8.032  14.722  69.741  1.00  0.00     0.000 HD 
BRANCH   5   8
HETATM    8  N   UNK A   0      -6.099  13.666  68.668  1.00  0.00    -0.082 NA 
HETATM    9  H   UNK A   0      -5.167  13.474  68.303  1.00  0.00     0.000 HD 
BRANCH   8  10
HETATM   10  C   UNK A   0      -7.235  13.609  67.803  1.00  0.00    -0.164 A  
HETATM   11  C   UNK A   0      -7.914  12.397  67.538  1.00  0.00    -0.173 A  
HETATM   12  I   UNK A   0      -7.240  10.597  68.596  1.00  0.00    -0.114 I  
HETATM   13  C   UNK A   0      -9.082  12.381  66.747  1.00  0.00    -0.212 A  
HETATM   14  I   UNK A   0      -6.571  16.601  67.531  1.00  0.00    -0.239 I  
HETATM   15  C   UNK A   0      -9.714  13.625  66.456  1.00  0.00    -0.292 A  
HETATM   16  I   UNK A   0     -11.851  13.548  66.007  1.00  0.00    -0.497 I  
HETATM   17  C   UNK A   0      -7.797  14.831  67.321  1.00  0.00    -0.194 A  
HETATM   18  C   UNK A   0      -9.080  14.875  66.725  1.00  0.00    -0.295 A  
BRANCH  13  19
HETATM   19  C   UNK A   0      -9.615  11.132  66.115  1.00  0.00    -0.210 C  
HETATM   20  O   UNK A   0      -8.979  10.685  65.023  1.00  0.00    -0.188 OA 
HETATM   21  H   UNK A   0      -9.317   9.893  64.623  1.00  0.00     0.000 HD 
BRANCH  19  22
ATOM     22  N   SER A   1     -10.627  10.489  66.583  1.00  0.00    -0.226 NA 
ATOM     23  H   SER A   1     -11.353  10.129  65.964  1.00  0.00     0.000 HD 
BRANCH  22  24
ATOM     24  CA  SER A   1     -10.703  10.288  68.057  1.00  0.00    -0.255 C  
BRANCH  24  25
ATOM     25  C   SER A   1     -11.031   8.802  68.293  1.00  0.00     0.156 C  
ATOM     26  H   SER A   1     -10.520   7.397  69.573  1.00  0.00     0.000 HD 
ATOM     27  O   SER A   1     -10.318   8.314  69.427  1.00  0.00    -0.214 OA 
ENDBRANCH  24  25
BRANCH  24  28
ATOM     28  CB  SER A   1     -11.811  11.135  68.717  1.00  0.00    -0.320 C  
ATOM     29  OG  SER A   1     -12.156  10.721  70.037  1.00  0.00    -0.302 OA 
ATOM     30  HG  SER A   1     -12.838  11.243  70.444  1.00  0.00     0.000 HD 
ENDBRANCH  24  28
ENDBRANCH  22  24
ENDBRANCH  19  22
ENDBRANCH  13  19
BRANCH  18  31
HETATM   31  C   UNK A   0      -9.790  16.174  66.437  1.00  0.00    -0.284 C  
HETATM   32  H   UNK A   0     -10.096  17.457  65.000  1.00  0.00     0.000 HD 
HETATM   33  O   UNK A   0      -9.649  16.639  65.181  1.00  0.00    -0.099 OA 
BRANCH  31  34
ATOM     34  N   SER A   1     -10.444  16.860  67.311  1.00  0.00    -0.315 NA 
ATOM     35  H   SER A   1     -11.238  16.461  67.812  1.00  0.00     0.000 HD 
BRANCH  34  36
ATOM     36  CA  SER A   1      -9.992  18.263  67.561  1.00  0.00    -0.335 C  
BRANCH  36  37
ATOM     37  CB  SER A   1     -11.018  19.208  66.931  1.00  0.00    -0.219 C  
ATOM     38  HG  SER A   1     -11.010  20.973  66.054  1.00  0.00     0.000 HD 
ATOM     39  OG  SER A   1     -10.373  20.386  66.445  1.00  0.00    -0.356 OA 
ENDBRANCH  36  37
BRANCH  36  40
ATOM     40  C   SER A   1      -9.902  18.505  69.080  1.00  0.00    -0.277 C  
ATOM     41  H   SER A   1      -8.952  19.730  70.298  1.00  0.00     0.000 HD 
ATOM     42  O   SER A   1      -9.008  19.580  69.362  1.00  0.00    -0.144 OA 
ENDBRANCH  36  40
ENDBRANCH  34  36
ENDBRANCH  31  34
ENDBRANCH  18  31
ENDBRANCH   8  10
ENDBRANCH   5   8
ENDBRANCH   1   5
TORSDOF 13
ENDMDL
MODEL      142
REMARK 921   NORMALIZED FREE ENERGY PREDICTED BY IDOCK:   -3.43 KCAL/MOL
REMARK 922        TOTAL FREE ENERGY PREDICTED BY IDOCK:   -6.97 KCAL/MOL
REMARK 923 INTER-LIGAND FREE ENERGY PREDICTED BY IDOCK:   -7.56 KCAL/MOL
REMARK 924 INTRA-LIGAND FREE ENERGY PREDICTED BY IDOCK:    0.59 KCAL/MOL
REMARK 927      BINDING AFFINITY PREDICTED BY RF-SCORE:    0.00 PKD
ROOT
HETATM    1  C   UNK A   0     -11.561   6.464  72.563  1.00  0.00    -0.222 C  
HETATM    2  O   UNK A   0     -12.967   6.414  72.264  1.00  0.00    -0.545 OA 
HETATM    3  C   UNK A   0     -11.079   5.070  72.895  1.00  0.00    -0.348 C  
HETATM    4  H   UNK A   0     -13.270   7.290  72.056  1.00  0.00     0.000 HD 
ENDROOT
BRANCH   1   5
HETATM    5  C   UNK A   0     -10.863   6.974  71.314  1.00  0.00    -0.235 C  
HETATM    6  O   UNK A   0      -9.532   7.148  71.487  1.00  0.00    -0.157 OA 
HETATM    7  H   UNK A   0      -9.095   7.467  70.706  1.00  0.00     0.000 HD 
BRANCH   5   8
HETATM    8  N   UNK A   0     -11.471   7.167  70.190  1.00  0.00    -0.458 NA 
HETATM    9  H   UNK A   0     -12.256   6.573  69.923  1.00  0.00     0.000 HD 
BRANCH   8  10
HETATM   10  C   UNK A   0     -11.037   8.218  69.325  1.00  0.00     0.162 A  
HETATM   11  C   UNK A   0     -11.377   9.570  69.562  1.00  0.00     0.010 A  
HETATM   12  I   UNK A   0     -12.507  10.035  71.384  1.00  0.00    -0.547 I  
HETATM   13  C   UNK A   0     -10.867  10.598  68.740  1.00  0.00    -0.269 A  
HETATM   14  I   UNK A   0      -9.844   5.821  67.809  1.00  0.00    -0.217 I  
HETATM   15  C   UNK A   0      -9.797  10.280  67.852  1.00  0.00    -0.157 A  
HETATM   16  I   UNK A   0      -8.506  11.939  67.255  1.00  0.00    -0.188 I  
HETATM   17  C   UNK A   0     -10.105   7.915  68.286  1.00  0.00    -0.194 A  
HETATM   18  C   UNK A   0      -9.403   8.933  67.597  1.00  0.00    -0.156 A  
BRANCH  13  19
HETATM   19  C   UNK A   0     -11.473  11.966  68.684  1.00  0.00    -0.294 C  
HETATM   20  O   UNK A   0     -12.108  12.303  67.553  1.00  0.00    -0.514 OA 
HETATM   21  H   UNK A   0     -12.493  13.170  67.518  1.00  0.00     0.000 HD 
BRANCH  19  22
ATOM     22  N   SER A   1     -11.415  12.797  69.666  1.00  0.00    -0.467 NA 
ATOM     23  H   SER A   1     -10.903  12.569  70.518  1.00  0.00     0.000 HD 
BRANCH  22  24
ATOM     24  CA  SER A   1     -12.119  14.101  69.517  1.00  0.00    -0.340 C  
BRANCH  24  25
ATOM     25  C   SER A   1     -11.045  15.162  69.213  1.00  0.00    -0.274 C  
ATOM     26  H   SER A   1     -10.974  17.112  68.956  1.00  0.00     0.000 HD 
ATOM     27  O   SER A   1     -11.636  16.457  69.144  1.00  0.00    -0.256 OA 
ENDBRANCH  24  25
BRANCH  24  28
ATOM     28  CB  SER A   1     -12.864  14.525  70.799  1.00  0.00    -0.361 C  
ATOM     29  OG  SER A   1     -13.781  15.602  70.615  1.00  0.00    -0.847 OA 
ATOM     30  HG  SER A   1     -14.239  15.863  71.405  1.00  0.00     0.000 HD 
ENDBRANCH  24  28
ENDBRANCH  22  24
ENDBRANCH  19  22
ENDBRANCH  13  19
BRANCH  18  31
HETATM   31  C   UNK A   0      -8.244   8.632  66.679  1.00  0.00    -0.107 C  
HETATM   32  H   UNK A   0      -7.816   8.410  64.789  1.00  0.00     0.000 HD 
HETATM   33  O   UNK A   0      -8.546   8.599  65.367  1.00  0.00    -0.165 OA 
BRANCH  31  34
ATOM     34  N   SER A   1      -7.048   8.359  67.076  1.00  0.00    -0.078 NA 
ATOM     35  H   SER A   1      -6.874   7.953  67.995  1.00  0.00     0.000 HD 
BRANCH  34  36
ATOM     36  CA  SER A   1      -5.928   8.660  66.133  1.00  0.00    -0.048 C  
BRANCH  36  37
ATOM     37  CB  SER A   1      -5.779   7.469  65.182  1.00  0.00    -0.037 C  
ATOM     38  HG  SER A   1      -5.885   5.505  65.297  1.00  0.00     0.000 HD 
ATOM     39  OG  SER A   1      -5.978   6.244  65.887  1.00  0.00    -0.024 OA 
ENDBRANCH  36  37
BRANCH  36  40
ATOM     40  C   SER A   1      -6.258   9.939  65.342  1.00  0.00    -0.087 C  
ATOM     41  H   SER A   1      -5.655  11.816  65.301  1.00  0.00     0.000 HD 
ATOM     42  O   SER A   1      -5.451  11.027  65.790  1.00  0.00    -0.141 OA 
ENDBRANCH  36  40
ENDBRANCH  34  36
ENDBRANCH  31  34
ENDBRANCH  18  31
ENDBRANCH   8  10
ENDBRANCH   5   8
ENDBRANCH   1   5
TORSDOF 13
ENDMDL
MODEL      143
REMARK 921   NORMALIZED FREE ENERGY PREDICTED BY IDOCK:   -3.41 KCAL/MOL
REMARK 922        TOTAL FREE ENERGY PREDICTED BY IDOCK:   -6.93 KCAL/MOL
REMARK 923 INTER-LIGAND FREE ENERGY PREDICTED BY IDOCK:   -6.15 KCAL/MOL
REMARK 924 INTRA-LIGAND FREE ENERGY PREDICTED BY IDOCK:   -0.78 KCAL/MOL
REMARK 927      BINDING AFFINITY PREDICTED BY RF-SCORE:    0.00 PKD
ROOT
HETATM    1  C   UNK A   0     -10.314   8.505  71.559  1.00  0.00    -0.250 C  
HETATM    2  O   UNK A   0     -11.095   9.712  71.487  1.00  0.00    -0.370 OA 
HETATM    3  C   UNK A   0     -11.112   7.447  72.287  1.00  0.00    -0.308 C  
HETATM    4  H   UNK A   0     -10.593  10.376  71.030  1.00  0.00     0.000 HD 
ENDROOT
BRANCH   1   5
HETATM    5  C   UNK A   0     -10.049   8.067  70.129  1.00  0.00    -0.194 C  
HETATM    6  O   UNK A   0     -11.107   8.271  69.310  1.00  0.00    -0.435 OA 
HETATM    7  H   UNK A   0     -10.941   7.996  68.415  1.00  0.00     0.000 HD 
BRANCH   5   8
HETATM    8  N   UNK A   0      -8.913   7.599  69.729  1.00  0.00    -0.140 NA 
HETATM    9  H   UNK A   0      -8.308   7.096  70.378  1.00  0.00     0.000 HD 
BRANCH   8  10
HETATM   10  C   UNK A   0      -8.509   7.791  68.372  1.00  0.00    -0.125 A  
HETATM   11  C   UNK A   0      -8.703   6.796  67.385  1.00  0.00    -0.119 A  
HETATM   12  I   UNK A   0      -9.764   4.968  67.973  1.00  0.00    -0.169 I  
HETATM   13  C   UNK A   0      -8.372   7.043  66.036  1.00  0.00    -0.134 A  
HETATM   14  I   UNK A   0      -7.514  10.453  69.554  1.00  0.00    -0.094 I  
HETATM   15  C   UNK A   0      -8.102   8.387  65.645  1.00  0.00    -0.125 A  
HETATM   16  I   UNK A   0      -8.427   8.869  63.538  1.00  0.00     0.062 I  
HETATM   17  C   UNK A   0      -8.043   9.079  67.968  1.00  0.00    -0.105 A  
HETATM   18  C   UNK A   0      -7.919   9.429  66.602  1.00  0.00    -0.108 A  
BRANCH  13  19
HETATM   19  C   UNK A   0      -8.184   5.945  65.035  1.00  0.00    -0.138 C  
HETATM   20  O   UNK A   0      -6.926   5.671  64.664  1.00  0.00    -0.049 OA 
HETATM   21  H   UNK A   0      -6.808   4.974  64.029  1.00  0.00     0.000 HD 
BRANCH  19  22
ATOM     22  N   SER A   1      -9.165   5.271  64.546  1.00  0.00    -0.356 NA 
ATOM     23  H   SER A   1     -10.125   5.608  64.619  1.00  0.00     0.000 HD 
BRANCH  22  24
ATOM     24  CA  SER A   1      -8.854   3.980  63.870  1.00  0.00    -0.117 C  
BRANCH  24  25
ATOM     25  C   SER A   1     -10.105   3.577  63.068  1.00  0.00    -0.164 C  
ATOM     26  H   SER A   1     -12.052   3.534  63.355  1.00  0.00     0.000 HD 
ATOM     27  O   SER A   1     -11.280   3.783  63.850  1.00  0.00    -0.296 OA 
ENDBRANCH  24  25
BRANCH  24  28
ATOM     28  CB  SER A   1      -8.537   2.847  64.868  1.00  0.00    -0.100 C  
ATOM     29  OG  SER A   1      -9.679   2.110  65.299  1.00  0.00    -0.349 OA 
ATOM     30  HG  SER A   1      -9.484   1.412  65.914  1.00  0.00     0.000 HD 
ENDBRANCH  24  28
ENDBRANCH  22  24
ENDBRANCH  19  22
ENDBRANCH  13  19
BRANCH  18  31
HETATM   31  C   UNK A   0      -7.670  10.849  66.154  1.00  0.00    -0.133 C  
HETATM   32  H   UNK A   0      -6.226  12.138  65.909  1.00  0.00     0.000 HD 
HETATM   33  O   UNK A   0      -6.384  11.244  66.191  1.00  0.00    -0.101 OA 
BRANCH  31  34
ATOM     34  N   SER A   1      -8.593  11.681  65.811  1.00  0.00    -0.394 NA 
ATOM     35  H   SER A   1      -8.799  11.870  64.830  1.00  0.00     0.000 HD 
BRANCH  34  36
ATOM     36  CA  SER A   1      -9.350  12.357  66.909  1.00  0.00    -0.213 C  
BRANCH  36  37
ATOM     37  CB  SER A   1      -9.538  13.825  66.518  1.00  0.00    -0.285 C  
ATOM     38  HG  SER A   1      -8.525  15.507  66.687  1.00  0.00     0.000 HD 
ATOM     39  OG  SER A   1      -8.409  14.596  66.929  1.00  0.00    -0.203 OA 
ENDBRANCH  36  37
BRANCH  36  40
ATOM     40  C   SER A   1     -10.718  11.670  67.083  1.00  0.00    -0.247 C  
ATOM     41  H   SER A   1     -12.397  11.506  66.063  1.00  0.00     0.000 HD 
ATOM     42  O   SER A   1     -11.554  11.930  65.956  1.00  0.00    -0.391 OA 
ENDBRANCH  36  40
ENDBRANCH  34  36
ENDBRANCH  31  34
ENDBRANCH  18  31
ENDBRANCH   8  10
ENDBRANCH   5   8
ENDBRANCH   1   5
TORSDOF 13
ENDMDL
MODEL      144
REMARK 921   NORMALIZED FREE ENERGY PREDICTED BY IDOCK:   -3.35 KCAL/MOL
REMARK 922        TOTAL FREE ENERGY PREDICTED BY IDOCK:   -6.82 KCAL/MOL
REMARK 923 INTER-LIGAND FREE ENERGY PREDICTED BY IDOCK:   -5.80 KCAL/MOL
REMARK 924 INTRA-LIGAND FREE ENERGY PREDICTED BY IDOCK:   -1.02 KCAL/MOL
REMARK 927      BINDING AFFINITY PREDICTED BY RF-SCORE:    0.00 PKD
ROOT
HETATM    1  C   UNK A   0     -10.409   3.938  72.392  1.00  0.00    -0.124 C  
HETATM    2  O   UNK A   0     -10.352   2.505  72.505  1.00  0.00    -0.162 OA 
HETATM    3  C   UNK A   0     -11.226   4.489  73.539  1.00  0.00    -0.388 C  
HETATM    4  H   UNK A   0      -9.839   2.159  71.784  1.00  0.00     0.000 HD 
ENDROOT
BRANCH   1   5
HETATM    5  C   UNK A   0      -8.979   4.444  72.479  1.00  0.00    -0.115 C  
HETATM    6  O   UNK A   0      -8.379   4.130  73.650  1.00  0.00    -0.092 OA 
HETATM    7  H   UNK A   0      -7.485   4.446  73.705  1.00  0.00     0.000 HD 
BRANCH   5   8
HETATM    8  N   UNK A   0      -8.385   5.061  71.512  1.00  0.00    -0.117 NA 
HETATM    9  H   UNK A   0      -7.370   5.018  71.422  1.00  0.00     0.000 HD 
BRANCH   8  10
HETATM   10  C   UNK A   0      -9.159   5.806  70.570  1.00  0.00    -0.147 A  
HETATM   11  C   UNK A   0      -9.675   7.088  70.872  1.00  0.00    -0.174 A  
HETATM   12  I   UNK A   0      -9.148   7.970  72.810  1.00  0.00    -0.334 I  
HETATM   13  C   UNK A   0     -10.365   7.838  69.896  1.00  0.00    -0.223 A  
HETATM   14  I   UNK A   0      -8.718   3.248  68.917  1.00  0.00    -0.195 I  
HETATM   15  C   UNK A   0     -10.293   7.404  68.540  1.00  0.00    -0.198 A  
HETATM   16  I   UNK A   0     -10.604   8.935  67.012  1.00  0.00     0.126 I  
HETATM   17  C   UNK A   0      -9.282   5.313  69.235  1.00  0.00    -0.114 A  
HETATM   18  C   UNK A   0      -9.762   6.128  68.183  1.00  0.00    -0.125 A  
BRANCH  13  19
HETATM   19  C   UNK A   0     -11.253   8.993  70.241  1.00  0.00    -0.205 C  
HETATM   20  O   UNK A   0     -12.511   8.706  70.600  1.00  0.00    -0.491 OA 
HETATM   21  H   UNK A   0     -13.074   9.439  70.819  1.00  0.00     0.000 HD 
BRANCH  19  22
ATOM     22  N   SER A   1     -10.851  10.216  70.215  1.00  0.00    -0.300 NA 
ATOM     23  H   SER A   1      -9.911  10.467  70.524  1.00  0.00     0.000 HD 
BRANCH  22  24
ATOM     24  CA  SER A   1     -11.800  11.251  69.721  1.00  0.00    -0.364 C  
BRANCH  24  25
ATOM     25  C   SER A   1     -10.967  12.307  68.972  1.00  0.00    -0.201 C  
ATOM     26  H   SER A   1     -11.213  13.521  67.442  1.00  0.00     0.000 HD 
ATOM     27  O   SER A   1     -11.727  12.870  67.905  1.00  0.00    -0.324 OA 
ENDBRANCH  24  25
BRANCH  24  28
ATOM     28  CB  SER A   1     -12.557  11.959  70.865  1.00  0.00    -0.266 C  
ATOM     29  OG  SER A   1     -12.671  13.372  70.705  1.00  0.00    -0.298 OA 
ATOM     30  HG  SER A   1     -13.137  13.807  71.409  1.00  0.00     0.000 HD 
ENDBRANCH  24  28
ENDBRANCH  22  24
ENDBRANCH  19  22
ENDBRANCH  13  19
BRANCH  18  31
HETATM   31  C   UNK A   0      -9.668   5.713  66.735  1.00  0.00    -0.154 C  
HETATM   32  H   UNK A   0     -10.697   4.830  65.333  1.00  0.00     0.000 HD 
HETATM   33  O   UNK A   0     -10.757   5.091  66.245  1.00  0.00    -0.312 OA 
BRANCH  31  34
ATOM     34  N   SER A   1      -8.622   5.865  65.997  1.00  0.00    -0.136 NA 
ATOM     35  H   SER A   1      -8.087   6.733  66.007  1.00  0.00     0.000 HD 
BRANCH  34  36
ATOM     36  CA  SER A   1      -8.224   4.717  65.127  1.00  0.00    -0.118 C  
BRANCH  36  37
ATOM     37  CB  SER A   1      -8.206   5.208  63.677  1.00  0.00    -0.118 C  
ATOM     38  HG  SER A   1      -7.091   6.394  62.567  1.00  0.00     0.000 HD 
ATOM     39  OG  SER A   1      -7.102   6.089  63.466  1.00  0.00    -0.043 OA 
ENDBRANCH  36  37
BRANCH  36  40
ATOM     40  C   SER A   1      -6.825   4.224  65.542  1.00  0.00    -0.057 C  
ATOM     41  H   SER A   1      -5.408   4.772  66.799  1.00  0.00     0.000 HD 
ATOM     42  O   SER A   1      -6.271   5.076  66.542  1.00  0.00    -0.033 OA 
ENDBRANCH  36  40
ENDBRANCH  34  36
ENDBRANCH  31  34
ENDBRANCH  18  31
ENDBRANCH   8  10
ENDBRANCH   5   8
ENDBRANCH   1   5
TORSDOF 13
ENDMDL
MODEL      145
REMARK 921   NORMALIZED FREE ENERGY PREDICTED BY IDOCK:   -3.32 KCAL/MOL
REMARK 922        TOTAL FREE ENERGY PREDICTED BY IDOCK:   -6.78 KCAL/MOL
REMARK 923 INTER-LIGAND FREE ENERGY PREDICTED BY IDOCK:   -5.78 KCAL/MOL
REMARK 924 INTRA-LIGAND FREE ENERGY PREDICTED BY IDOCK:   -0.99 KCAL/MOL
REMARK 927      BINDING AFFINITY PREDICTED BY RF-SCORE:    0.00 PKD
ROOT
HETATM    1  C   UNK A   0      -9.784   3.973  66.160  1.00  0.00    -0.186 C  
HETATM    2  O   UNK A   0     -10.939   4.008  65.303  1.00  0.00    -0.494 OA 
HETATM    3  C   UNK A   0      -8.589   3.514  65.354  1.00  0.00    -0.113 C  
HETATM    4  H   UNK A   0     -11.690   4.296  65.810  1.00  0.00     0.000 HD 
ENDROOT
BRANCH   1   5
HETATM    5  C   UNK A   0      -9.563   5.390  66.659  1.00  0.00    -0.151 C  
HETATM    6  O   UNK A   0     -10.719   6.057  66.883  1.00  0.00    -0.286 OA 
HETATM    7  H   UNK A   0     -10.581   6.944  67.195  1.00  0.00     0.000 HD 
BRANCH   5   8
HETATM    8  N   UNK A   0      -8.393   5.885  66.896  1.00  0.00    -0.109 NA 
HETATM    9  H   UNK A   0      -7.557   5.321  66.745  1.00  0.00     0.000 HD 
BRANCH   8  10
HETATM   10  C   UNK A   0      -8.278   7.227  67.372  1.00  0.00    -0.116 A  
HETATM   11  C   UNK A   0      -8.259   8.334  66.491  1.00  0.00    -0.106 A  
HETATM   12  I   UNK A   0      -8.533   7.941  64.351  1.00  0.00     0.452 I  
HETATM   13  C   UNK A   0      -8.229   9.654  66.990  1.00  0.00    -0.117 A  
HETATM   14  I   UNK A   0      -8.097   5.745  70.062  1.00  0.00    -0.111 I  
HETATM   15  C   UNK A   0      -8.495   9.855  68.376  1.00  0.00    -0.111 A  
HETATM   16  I   UNK A   0      -9.262  11.821  68.943  1.00  0.00     0.466 I  
HETATM   17  C   UNK A   0      -8.344   7.469  68.778  1.00  0.00    -0.129 A  
HETATM   18  C   UNK A   0      -8.545   8.768  69.300  1.00  0.00    -0.130 A  
BRANCH  13  19
HETATM   19  C   UNK A   0      -7.822  10.827  66.153  1.00  0.00    -0.155 C  
HETATM   20  O   UNK A   0      -6.660  11.419  66.462  1.00  0.00    -0.226 OA 
HETATM   21  H   UNK A   0      -6.402  12.163  65.930  1.00  0.00     0.000 HD 
BRANCH  19  22
ATOM     22  N   SER A   1      -8.527  11.260  65.168  1.00  0.00    -0.375 NA 
ATOM     23  H   SER A   1      -8.129  11.348  64.233  1.00  0.00     0.000 HD 
BRANCH  22  24
ATOM     24  CA  SER A   1      -9.945  11.631  65.437  1.00  0.00    -0.250 C  
BRANCH  24  25
ATOM     25  C   SER A   1     -10.772  11.163  64.225  1.00  0.00    -0.333 C  
ATOM     26  H   SER A   1     -10.518  11.000  62.280  1.00  0.00     0.000 HD 
ATOM     27  O   SER A   1     -10.008  11.289  63.028  1.00  0.00    -0.329 OA 
ENDBRANCH  24  25
BRANCH  24  28
ATOM     28  CB  SER A   1     -10.143  13.153  65.594  1.00  0.00    -0.271 C  
ATOM     29  OG  SER A   1     -10.224  13.865  64.361  1.00  0.00    -0.654 OA 
ATOM     30  HG  SER A   1     -10.346  14.802  64.458  1.00  0.00     0.000 HD 
ENDBRANCH  24  28
ENDBRANCH  22  24
ENDBRANCH  19  22
ENDBRANCH  13  19
BRANCH  18  31
HETATM   31  C   UNK A   0      -8.864   9.012  70.755  1.00  0.00    -0.234 C  
HETATM   32  H   UNK A   0      -8.050   9.660  72.405  1.00  0.00     0.000 HD 
HETATM   33  O   UNK A   0      -7.850   9.507  71.489  1.00  0.00    -0.243 OA 
BRANCH  31  34
ATOM     34  N   SER A   1      -9.989   8.725  71.316  1.00  0.00    -0.236 NA 
ATOM     35  H   SER A   1     -10.040   8.473  72.303  1.00  0.00     0.000 HD 
BRANCH  34  36
ATOM     36  CA  SER A   1     -11.214   8.776  70.461  1.00  0.00    -0.247 C  
BRANCH  36  37
ATOM     37  CB  SER A   1     -11.838   7.378  70.445  1.00  0.00    -0.083 C  
ATOM     38  HG  SER A   1     -12.071   5.885  71.710  1.00  0.00     0.000 HD 
ATOM     39  OG  SER A   1     -11.685   6.753  71.720  1.00  0.00    -0.280 OA 
ENDBRANCH  36  37
BRANCH  36  40
ATOM     40  C   SER A   1     -12.205   9.797  71.053  1.00  0.00    -0.347 C  
ATOM     41  H   SER A   1     -13.283  11.315  70.404  1.00  0.00     0.000 HD 
ATOM     42  O   SER A   1     -12.672  10.686  70.039  1.00  0.00    -0.278 OA 
ENDBRANCH  36  40
ENDBRANCH  34  36
ENDBRANCH  31  34
ENDBRANCH  18  31
ENDBRANCH   8  10
ENDBRANCH   5   8
ENDBRANCH   1   5
TORSDOF 13
ENDMDL
MODEL      146
REMARK 921   NORMALIZED FREE ENERGY PREDICTED BY IDOCK:   -3.30 KCAL/MOL
REMARK 922        TOTAL FREE ENERGY PREDICTED BY IDOCK:   -6.74 KCAL/MOL
REMARK 923 INTER-LIGAND FREE ENERGY PREDICTED BY IDOCK:   -5.38 KCAL/MOL
REMARK 924 INTRA-LIGAND FREE ENERGY PREDICTED BY IDOCK:   -1.36 KCAL/MOL
REMARK 927      BINDING AFFINITY PREDICTED BY RF-SCORE:    0.00 PKD
ROOT
HETATM    1  C   UNK A   0      -9.267   3.459  69.192  1.00  0.00    -0.160 C  
HETATM    2  O   UNK A   0      -9.737   2.678  68.079  1.00  0.00    -0.277 OA 
HETATM    3  C   UNK A   0      -9.583   2.725  70.476  1.00  0.00    -0.158 C  
HETATM    4  H   UNK A   0      -9.538   3.140  67.273  1.00  0.00     0.000 HD 
ENDROOT
BRANCH   1   5
HETATM    5  C   UNK A   0      -7.763   3.598  69.028  1.00  0.00    -0.052 C  
HETATM    6  O   UNK A   0      -7.078   2.546  69.533  1.00  0.00    -0.042 OA 
HETATM    7  H   UNK A   0      -6.137   2.633  69.431  1.00  0.00     0.000 HD 
BRANCH   5   8
HETATM    8  N   UNK A   0      -7.204   4.593  68.421  1.00  0.00    -0.063 NA 
HETATM    9  H   UNK A   0      -6.365   4.446  67.861  1.00  0.00     0.000 HD 
BRANCH   8  10
HETATM   10  C   UNK A   0      -7.771   5.899  68.540  1.00  0.00    -0.094 A  
HETATM   11  C   UNK A   0      -7.690   6.643  69.740  1.00  0.00    -0.113 A  
HETATM   12  I   UNK A   0      -6.554   5.777  71.404  1.00  0.00    -0.053 I  
HETATM   13  C   UNK A   0      -8.184   7.964  69.806  1.00  0.00    -0.121 A  
HETATM   14  I   UNK A   0      -8.634   5.259  65.656  1.00  0.00    -0.147 I  
HETATM   15  C   UNK A   0      -8.509   8.622  68.584  1.00  0.00    -0.130 A  
HETATM   16  I   UNK A   0      -8.446  10.806  68.610  1.00  0.00    -0.127 I  
HETATM   17  C   UNK A   0      -8.292   6.533  67.371  1.00  0.00    -0.120 A  
HETATM   18  C   UNK A   0      -8.582   7.919  67.344  1.00  0.00    -0.125 A  
BRANCH  13  19
HETATM   19  C   UNK A   0      -8.484   8.652  71.101  1.00  0.00    -0.171 C  
HETATM   20  O   UNK A   0      -7.453   9.227  71.736  1.00  0.00    -0.335 OA 
HETATM   21  H   UNK A   0      -7.643   9.664  72.558  1.00  0.00     0.000 HD 
BRANCH  19  22
ATOM     22  N   SER A   1      -9.668   8.717  71.601  1.00  0.00    -0.250 NA 
ATOM     23  H   SER A   1      -9.972   9.533  72.132  1.00  0.00     0.000 HD 
BRANCH  22  24
ATOM     24  CA  SER A   1     -10.582   7.562  71.378  1.00  0.00    -0.210 C  
BRANCH  24  25
ATOM     25  C   SER A   1     -11.979   8.141  71.087  1.00  0.00    -0.273 C  
ATOM     26  H   SER A   1     -13.089   9.629  71.740  1.00  0.00     0.000 HD 
ATOM     27  O   SER A   1     -12.227   9.272  71.919  1.00  0.00    -0.356 OA 
ENDBRANCH  24  25
BRANCH  24  28
ATOM     28  CB  SER A   1     -10.690   6.641  72.611  1.00  0.00    -0.235 C  
ATOM     29  OG  SER A   1     -11.055   7.315  73.815  1.00  0.00    -0.557 OA 
ATOM     30  HG  SER A   1     -11.122   6.748  74.574  1.00  0.00     0.000 HD 
ENDBRANCH  24  28
ENDBRANCH  22  24
ENDBRANCH  19  22
ENDBRANCH  13  19
BRANCH  18  31
HETATM   31  C   UNK A   0      -8.894   8.651  66.062  1.00  0.00    -0.178 C  
HETATM   32  H   UNK A   0     -10.397   9.352  65.035  1.00  0.00     0.000 HD 
HETATM   33  O   UNK A   0     -10.201   8.890  65.842  1.00  0.00    -0.106 OA 
BRANCH  31  34
ATOM     34  N   SER A   1      -8.016   8.990  65.181  1.00  0.00    -0.114 NA 
ATOM     35  H   SER A   1      -7.074   9.271  65.452  1.00  0.00     0.000 HD 
BRANCH  34  36
ATOM     36  CA  SER A   1      -8.436   8.954  63.747  1.00  0.00    -0.137 C  
BRANCH  36  37
ATOM     37  CB  SER A   1      -8.466  10.395  63.228  1.00  0.00    -0.177 C  
ATOM     38  HG  SER A   1      -9.828  11.687  62.630  1.00  0.00     0.000 HD 
ATOM     39  OG  SER A   1      -9.809  10.793  62.952  1.00  0.00    -0.316 OA 
ENDBRANCH  36  37
BRANCH  36  40
ATOM     40  C   SER A   1      -7.424   8.117  62.941  1.00  0.00    -0.115 C  
ATOM     41  H   SER A   1      -5.524   7.611  63.081  1.00  0.00     0.000 HD 
ATOM     42  O   SER A   1      -6.147   8.128  63.577  1.00  0.00    -0.069 OA 
ENDBRANCH  36  40
ENDBRANCH  34  36
ENDBRANCH  31  34
ENDBRANCH  18  31
ENDBRANCH   8  10
ENDBRANCH   5   8
ENDBRANCH   1   5
TORSDOF 13
ENDMDL
MODEL      147
REMARK 921   NORMALIZED FREE ENERGY PREDICTED BY IDOCK:   -3.30 KCAL/MOL
REMARK 922        TOTAL FREE ENERGY PREDICTED BY IDOCK:   -6.74 KCAL/MOL
REMARK 923 INTER-LIGAND FREE ENERGY PREDICTED BY IDOCK:   -7.59 KCAL/MOL
REMARK 924 INTRA-LIGAND FREE ENERGY PREDICTED BY IDOCK:    0.85 KCAL/MOL
REMARK 927      BINDING AFFINITY PREDICTED BY RF-SCORE:    0.00 PKD
ROOT
HETATM    1  C   UNK A   0     -12.406  15.301  70.312  1.00  0.00    -0.366 C  
HETATM    2  O   UNK A   0     -12.954  16.076  69.231  1.00  0.00    -0.139 OA 
HETATM    3  C   UNK A   0     -13.541  14.696  71.108  1.00  0.00    -0.404 C  
HETATM    4  H   UNK A   0     -12.241  16.456  68.732  1.00  0.00     0.000 HD 
ENDROOT
BRANCH   1   5
HETATM    5  C   UNK A   0     -11.566  14.203  69.685  1.00  0.00    -0.292 C  
HETATM    6  O   UNK A   0     -10.238  14.378  69.879  1.00  0.00    -0.409 OA 
HETATM    7  H   UNK A   0      -9.712  13.691  69.487  1.00  0.00     0.000 HD 
BRANCH   5   8
HETATM    8  N   UNK A   0     -12.073  13.181  69.077  1.00  0.00    -0.260 NA 
HETATM    9  H   UNK A   0     -13.065  13.164  68.842  1.00  0.00     0.000 HD 
BRANCH   8  10
HETATM   10  C   UNK A   0     -11.234  12.076  68.737  1.00  0.00    -0.263 A  
HETATM   11  C   UNK A   0     -10.456  12.063  67.555  1.00  0.00    -0.212 A  
HETATM   12  I   UNK A   0     -10.479  13.859  66.297  1.00  0.00    -0.312 I  
HETATM   13  C   UNK A   0      -9.573  10.996  67.283  1.00  0.00    -0.183 A  
HETATM   14  I   UNK A   0     -12.461  10.969  71.332  1.00  0.00    -0.181 I  
HETATM   15  C   UNK A   0      -9.276  10.084  68.338  1.00  0.00    -0.131 A  
HETATM   16  I   UNK A   0      -7.372   9.021  68.196  1.00  0.00    -0.083 I  
HETATM   17  C   UNK A   0     -11.053  11.028  69.690  1.00  0.00    -0.256 A  
HETATM   18  C   UNK A   0     -10.018  10.072  69.556  1.00  0.00    -0.249 A  
BRANCH  13  19
HETATM   19  C   UNK A   0      -9.029  10.724  65.915  1.00  0.00    -0.184 C  
HETATM   20  O   UNK A   0      -7.781  11.142  65.663  1.00  0.00    -0.364 OA 
HETATM   21  H   UNK A   0      -7.436  10.969  64.795  1.00  0.00     0.000 HD 
BRANCH  19  22
ATOM     22  N   SER A   1      -9.700  10.107  65.006  1.00  0.00    -0.299 NA 
ATOM     23  H   SER A   1     -10.720  10.099  65.019  1.00  0.00     0.000 HD 
BRANCH  22  24
ATOM     24  CA  SER A   1      -8.940   9.404  63.935  1.00  0.00    -0.126 C  
BRANCH  24  25
ATOM     25  C   SER A   1      -7.473   9.330  64.397  1.00  0.00    -0.106 C  
ATOM     26  H   SER A   1      -5.774   8.620  63.702  1.00  0.00     0.000 HD 
ATOM     27  O   SER A   1      -6.679   8.665  63.417  1.00  0.00    -0.089 OA 
ENDBRANCH  24  25
BRANCH  24  28
ATOM     28  CB  SER A   1      -8.982  10.152  62.586  1.00  0.00    -0.266 C  
ATOM     29  OG  SER A   1      -8.711  11.549  62.682  1.00  0.00    -0.576 OA 
ATOM     30  HG  SER A   1      -8.737  12.009  61.851  1.00  0.00     0.000 HD 
ENDBRANCH  24  28
ENDBRANCH  22  24
ENDBRANCH  19  22
ENDBRANCH  13  19
BRANCH  18  31
HETATM   31  C   UNK A   0      -9.656   9.117  70.667  1.00  0.00    -0.255 C  
HETATM   32  H   UNK A   0      -8.334   8.851  72.077  1.00  0.00     0.000 HD 
HETATM   33  O   UNK A   0      -8.562   9.452  71.378  1.00  0.00    -0.292 OA 
BRANCH  31  34
ATOM     34  N   SER A   1     -10.279   8.016  70.918  1.00  0.00    -0.191 NA 
ATOM     35  H   SER A   1     -10.737   7.860  71.816  1.00  0.00     0.000 HD 
BRANCH  34  36
ATOM     36  CA  SER A   1     -10.301   6.980  69.841  1.00  0.00    -0.210 C  
BRANCH  36  37
ATOM     37  CB  SER A   1      -9.251   5.920  70.185  1.00  0.00    -0.153 C  
ATOM     38  HG  SER A   1      -9.209   4.164  71.079  1.00  0.00     0.000 HD 
ATOM     39  OG  SER A   1      -9.860   4.822  70.865  1.00  0.00    -0.182 OA 
ENDBRANCH  36  37
BRANCH  36  40
ATOM     40  C   SER A   1     -11.703   6.344  69.777  1.00  0.00    -0.191 C  
ATOM     41  H   SER A   1     -13.362   6.382  70.841  1.00  0.00     0.000 HD 
ATOM     42  O   SER A   1     -12.498   6.774  70.881  1.00  0.00    -0.364 OA 
ENDBRANCH  36  40
ENDBRANCH  34  36
ENDBRANCH  31  34
ENDBRANCH  18  31
ENDBRANCH   8  10
ENDBRANCH   5   8
ENDBRANCH   1   5
TORSDOF 13
ENDMDL
MODEL      148
REMARK 921   NORMALIZED FREE ENERGY PREDICTED BY IDOCK:   -3.23 KCAL/MOL
REMARK 922        TOTAL FREE ENERGY PREDICTED BY IDOCK:   -6.62 KCAL/MOL
REMARK 923 INTER-LIGAND FREE ENERGY PREDICTED BY IDOCK:   -6.07 KCAL/MOL
REMARK 924 INTRA-LIGAND FREE ENERGY PREDICTED BY IDOCK:   -0.55 KCAL/MOL
REMARK 927      BINDING AFFINITY PREDICTED BY RF-SCORE:    0.00 PKD
ROOT
HETATM    1  C   UNK A   0      -9.964   9.190  71.195  1.00  0.00    -0.307 C  
HETATM    2  O   UNK A   0     -10.450   8.793  72.489  1.00  0.00    -0.255 OA 
HETATM    3  C   UNK A   0      -8.456   9.083  71.183  1.00  0.00    -0.234 C  
HETATM    4  H   UNK A   0     -11.398   8.860  72.497  1.00  0.00     0.000 HD 
ENDROOT
BRANCH   1   5
HETATM    5  C   UNK A   0     -10.563   8.226  70.185  1.00  0.00    -0.233 C  
HETATM    6  O   UNK A   0     -10.294   6.931  70.469  1.00  0.00    -0.201 OA 
HETATM    7  H   UNK A   0     -10.669   6.327  69.837  1.00  0.00     0.000 HD 
BRANCH   5   8
HETATM    8  N   UNK A   0     -11.298   8.605  69.192  1.00  0.00    -0.244 NA 
HETATM    9  H   UNK A   0     -12.164   8.111  68.976  1.00  0.00     0.000 HD 
BRANCH   8  10
HETATM   10  C   UNK A   0     -10.888   9.719  68.397  1.00  0.00    -0.201 A  
HETATM   11  C   UNK A   0     -11.489  10.993  68.529  1.00  0.00    -0.309 A  
HETATM   12  I   UNK A   0     -13.008  11.249  70.091  1.00  0.00     0.850 I  
HETATM   13  C   UNK A   0     -11.010  12.098  67.792  1.00  0.00    -0.278 A  
HETATM   14  I   UNK A   0      -9.043   7.569  67.198  1.00  0.00    -0.182 I  
HETATM   15  C   UNK A   0      -9.753  11.971  67.132  1.00  0.00    -0.197 A  
HETATM   16  I   UNK A   0      -8.668  13.828  66.747  1.00  0.00     0.209 I  
HETATM   17  C   UNK A   0      -9.738   9.585  67.562  1.00  0.00    -0.155 A  
HETATM   18  C   UNK A   0      -9.098  10.712  66.992  1.00  0.00    -0.155 A  
BRANCH  13  19
HETATM   19  C   UNK A   0     -11.815  13.344  67.586  1.00  0.00    -0.354 C  
HETATM   20  O   UNK A   0     -11.774  14.261  68.562  1.00  0.00    -0.304 OA 
HETATM   21  H   UNK A   0     -12.285  15.051  68.431  1.00  0.00     0.000 HD 
BRANCH  19  22
ATOM     22  N   SER A   1     -12.513  13.557  66.527  1.00  0.00    -0.317 NA 
ATOM     23  H   SER A   1     -13.533  13.568  66.561  1.00  0.00     0.000 HD 
BRANCH  22  24
ATOM     24  CA  SER A   1     -11.785  13.788  65.248  1.00  0.00    -0.338 C  
BRANCH  24  25
ATOM     25  C   SER A   1     -11.925  15.284  64.912  1.00  0.00    -0.108 C  
ATOM     26  H   SER A   1     -12.668  16.372  63.449  1.00  0.00     0.000 HD 
ATOM     27  O   SER A   1     -12.581  15.449  63.657  1.00  0.00    -0.508 OA 
ENDBRANCH  24  25
BRANCH  24  28
ATOM     28  CB  SER A   1     -12.369  12.975  64.074  1.00  0.00    -0.363 C  
ATOM     29  OG  SER A   1     -13.304  11.970  64.466  1.00  0.00    -0.572 OA 
ATOM     30  HG  SER A   1     -13.663  11.470  63.743  1.00  0.00     0.000 HD 
ENDBRANCH  24  28
ENDBRANCH  22  24
ENDBRANCH  19  22
ENDBRANCH  13  19
BRANCH  18  31
HETATM   31  C   UNK A   0      -7.751  10.618  66.319  1.00  0.00    -0.143 C  
HETATM   32  H   UNK A   0      -5.849  10.470  66.730  1.00  0.00     0.000 HD 
HETATM   33  O   UNK A   0      -6.697  10.529  67.153  1.00  0.00    -0.074 OA 
BRANCH  31  34
ATOM     34  N   SER A   1      -7.563  10.676  65.045  1.00  0.00    -0.346 NA 
ATOM     35  H   SER A   1      -6.937  11.367  64.632  1.00  0.00     0.000 HD 
BRANCH  34  36
ATOM     36  CA  SER A   1      -8.300   9.689  64.197  1.00  0.00    -0.170 C  
BRANCH  36  37
ATOM     37  CB  SER A   1      -9.110  10.471  63.159  1.00  0.00    -0.257 C  
ATOM     38  HG  SER A   1      -8.842  12.042  62.001  1.00  0.00     0.000 HD 
ATOM     39  OG  SER A   1      -8.339  11.557  62.645  1.00  0.00    -0.090 OA 
ENDBRANCH  36  37
BRANCH  36  40
ATOM     40  C   SER A   1      -7.288   8.762  63.498  1.00  0.00    -0.100 C  
ATOM     41  H   SER A   1      -7.341   7.216  62.277  1.00  0.00     0.000 HD 
ATOM     42  O   SER A   1      -7.965   7.787  62.708  1.00  0.00    -0.133 OA 
ENDBRANCH  36  40
ENDBRANCH  34  36
ENDBRANCH  31  34
ENDBRANCH  18  31
ENDBRANCH   8  10
ENDBRANCH   5   8
ENDBRANCH   1   5
TORSDOF 13
ENDMDL
MODEL      149
REMARK 921   NORMALIZED FREE ENERGY PREDICTED BY IDOCK:   -3.21 KCAL/MOL
REMARK 922        TOTAL FREE ENERGY PREDICTED BY IDOCK:   -6.58 KCAL/MOL
REMARK 923 INTER-LIGAND FREE ENERGY PREDICTED BY IDOCK:   -5.74 KCAL/MOL
REMARK 924 INTRA-LIGAND FREE ENERGY PREDICTED BY IDOCK:   -0.84 KCAL/MOL
REMARK 927      BINDING AFFINITY PREDICTED BY RF-SCORE:    0.00 PKD
ROOT
HETATM    1  C   UNK A   0      -6.671   9.164  66.549  1.00  0.00    -0.075 C  
HETATM    2  O   UNK A   0      -5.862  10.332  66.774  1.00  0.00    -0.049 OA 
HETATM    3  C   UNK A   0      -6.005   8.299  65.502  1.00  0.00    -0.045 C  
HETATM    4  H   UNK A   0      -6.281  10.875  67.431  1.00  0.00     0.000 HD 
ENDROOT
BRANCH   1   5
HETATM    5  C   UNK A   0      -6.746   8.418  67.870  1.00  0.00    -0.066 C  
HETATM    6  O   UNK A   0      -6.266   9.139  68.910  1.00  0.00    -0.043 OA 
HETATM    7  H   UNK A   0      -6.312   8.673  69.737  1.00  0.00     0.000 HD 
BRANCH   5   8
HETATM    8  N   UNK A   0      -7.264   7.241  67.993  1.00  0.00    -0.088 NA 
HETATM    9  H   UNK A   0      -7.144   6.548  67.254  1.00  0.00     0.000 HD 
BRANCH   8  10
HETATM   10  C   UNK A   0      -8.007   6.917  69.169  1.00  0.00    -0.119 A  
HETATM   11  C   UNK A   0      -7.438   6.179  70.234  1.00  0.00    -0.090 A  
HETATM   12  I   UNK A   0      -5.318   5.637  70.082  1.00  0.00    -0.005 I  
HETATM   13  C   UNK A   0      -8.166   5.943  71.420  1.00  0.00    -0.123 A  
HETATM   14  I   UNK A   0     -10.214   8.365  67.589  1.00  0.00    -0.302 I  
HETATM   15  C   UNK A   0      -9.362   6.688  71.633  1.00  0.00    -0.149 A  
HETATM   16  I   UNK A   0      -9.984   6.954  73.711  1.00  0.00    -0.362 I  
HETATM   17  C   UNK A   0      -9.304   7.487  69.345  1.00  0.00    -0.152 A  
HETATM   18  C   UNK A   0      -9.963   7.464  70.597  1.00  0.00    -0.186 A  
BRANCH  13  19
HETATM   19  C   UNK A   0      -7.794   4.873  72.398  1.00  0.00    -0.093 C  
HETATM   20  O   UNK A   0      -7.032   5.239  73.438  1.00  0.00    -0.076 OA 
HETATM   21  H   UNK A   0      -6.797   4.559  74.059  1.00  0.00     0.000 HD 
BRANCH  19  22
ATOM     22  N   SER A   1      -8.184   3.652  72.280  1.00  0.00    -0.082 NA 
ATOM     23  H   SER A   1      -7.578   2.877  72.549  1.00  0.00     0.000 HD 
BRANCH  22  24
ATOM     24  CA  SER A   1      -9.549   3.406  71.737  1.00  0.00    -0.155 C  
BRANCH  24  25
ATOM     25  C   SER A   1     -10.283   2.507  72.749  1.00  0.00    -0.155 C  
ATOM     26  H   SER A   1     -11.573   2.740  74.217  1.00  0.00     0.000 HD 
ATOM     27  O   SER A   1     -11.121   3.295  73.592  1.00  0.00    -0.219 OA 
ENDBRANCH  24  25
BRANCH  24  28
ATOM     28  CB  SER A   1      -9.527   2.679  70.376  1.00  0.00    -0.115 C  
ATOM     29  OG  SER A   1      -8.424   1.792  70.204  1.00  0.00    -0.044 OA 
ATOM     30  HG  SER A   1      -8.411   1.344  69.366  1.00  0.00     0.000 HD 
ENDBRANCH  24  28
ENDBRANCH  22  24
ENDBRANCH  19  22
ENDBRANCH  13  19
BRANCH  18  31
HETATM   31  C   UNK A   0     -11.210   8.269  70.866  1.00  0.00    -0.265 C  
HETATM   32  H   UNK A   0     -13.155   8.107  70.878  1.00  0.00     0.000 HD 
HETATM   33  O   UNK A   0     -12.369   7.601  70.709  1.00  0.00    -0.185 OA 
BRANCH  31  34
ATOM     34  N   SER A   1     -11.222   9.523  71.165  1.00  0.00    -0.346 NA 
ATOM     35  H   SER A   1     -10.502   9.933  71.759  1.00  0.00     0.000 HD 
BRANCH  34  36
ATOM     36  CA  SER A   1     -12.333  10.351  70.605  1.00  0.00    -0.346 C  
BRANCH  36  37
ATOM     37  CB  SER A   1     -13.083  10.990  71.777  1.00  0.00    -0.449 C  
ATOM     38  HG  SER A   1     -13.569  12.807  72.365  1.00  0.00     0.000 HD 
ATOM     39  OG  SER A   1     -13.104  12.410  71.637  1.00  0.00    -0.404 OA 
ENDBRANCH  36  37
BRANCH  36  40
ATOM     40  C   SER A   1     -11.745  11.442  69.690  1.00  0.00    -0.345 C  
ATOM     41  H   SER A   1     -11.871  11.966  67.793  1.00  0.00     0.000 HD 
ATOM     42  O   SER A   1     -12.234  11.294  68.357  1.00  0.00    -0.604 OA 
ENDBRANCH  36  40
ENDBRANCH  34  36
ENDBRANCH  31  34
ENDBRANCH  18  31
ENDBRANCH   8  10
ENDBRANCH   5   8
ENDBRANCH   1   5
TORSDOF 13
ENDMDL
MODEL      150
REMARK 921   NORMALIZED FREE ENERGY PREDICTED BY IDOCK:   -3.19 KCAL/MOL
REMARK 922        TOTAL FREE ENERGY PREDICTED BY IDOCK:   -6.55 KCAL/MOL
REMARK 923 INTER-LIGAND FREE ENERGY PREDICTED BY IDOCK:   -6.11 KCAL/MOL
REMARK 924 INTRA-LIGAND FREE ENERGY PREDICTED BY IDOCK:   -0.44 KCAL/MOL
REMARK 927      BINDING AFFINITY PREDICTED BY RF-SCORE:    0.00 PKD
ROOT
HETATM    1  C   UNK A   0      -7.655  10.383  62.671  1.00  0.00    -0.140 C  
HETATM    2  O   UNK A   0      -8.311  11.619  62.338  1.00  0.00    -0.636 OA 
HETATM    3  C   UNK A   0      -6.159  10.603  62.659  1.00  0.00    -0.125 C  
HETATM    4  H   UNK A   0      -9.251  11.481  62.345  1.00  0.00     0.000 HD 
ENDROOT
BRANCH   1   5
HETATM    5  C   UNK A   0      -8.115  10.003  64.068  1.00  0.00    -0.153 C  
HETATM    6  O   UNK A   0      -7.267  10.423  65.035  1.00  0.00    -0.211 OA 
HETATM    7  H   UNK A   0      -7.554  10.185  65.909  1.00  0.00     0.000 HD 
BRANCH   5   8
HETATM    8  N   UNK A   0      -9.227   9.390  64.306  1.00  0.00    -0.427 NA 
HETATM    9  H   UNK A   0      -9.824   9.090  63.535  1.00  0.00     0.000 HD 
BRANCH   8  10
HETATM   10  C   UNK A   0      -9.617   9.137  65.657  1.00  0.00    -0.217 A  
HETATM   11  C   UNK A   0      -9.321   7.914  66.304  1.00  0.00    -0.164 A  
HETATM   12  I   UNK A   0      -8.128   6.439  65.203  1.00  0.00    -0.070 I  
HETATM   13  C   UNK A   0      -9.643   7.719  67.665  1.00  0.00    -0.177 A  
HETATM   14  I   UNK A   0     -10.850  11.935  65.318  1.00  0.00    -0.332 I  
HETATM   15  C   UNK A   0     -10.013   8.859  68.437  1.00  0.00    -0.178 A  
HETATM   16  I   UNK A   0      -9.685   8.719  70.593  1.00  0.00    -0.318 I  
HETATM   17  C   UNK A   0     -10.178  10.202  66.425  1.00  0.00    -0.221 A  
HETATM   18  C   UNK A   0     -10.301  10.119  67.833  1.00  0.00    -0.234 A  
BRANCH  13  19
HETATM   19  C   UNK A   0      -9.719   6.362  68.293  1.00  0.00    -0.127 C  
HETATM   20  O   UNK A   0     -10.937   5.919  68.634  1.00  0.00    -0.287 OA 
HETATM   21  H   UNK A   0     -10.985   5.058  69.032  1.00  0.00     0.000 HD 
BRANCH  19  22
ATOM     22  N   SER A   1      -8.683   5.627  68.495  1.00  0.00    -0.110 NA 
ATOM     23  H   SER A   1      -8.210   5.159  67.722  1.00  0.00     0.000 HD 
BRANCH  22  24
ATOM     24  CA  SER A   1      -8.195   5.481  69.895  1.00  0.00    -0.105 C  
BRANCH  24  25
ATOM     25  C   SER A   1      -6.678   5.741  69.874  1.00  0.00    -0.052 C  
ATOM     26  H   SER A   1      -5.350   6.443  68.602  1.00  0.00     0.000 HD 
ATOM     27  O   SER A   1      -6.287   6.283  68.615  1.00  0.00    -0.037 OA 
ENDBRANCH  24  25
BRANCH  24  28
ATOM     28  CB  SER A   1      -8.434   4.067  70.465  1.00  0.00    -0.069 C  
ATOM     29  OG  SER A   1      -9.788   3.625  70.387  1.00  0.00    -0.173 OA 
ATOM     30  HG  SER A   1      -9.934   2.754  70.737  1.00  0.00     0.000 HD 
ENDBRANCH  24  28
ENDBRANCH  22  24
ENDBRANCH  19  22
ENDBRANCH  13  19
BRANCH  18  31
HETATM   31  C   UNK A   0     -10.655  11.315  68.682  1.00  0.00    -0.202 C  
HETATM   32  H   UNK A   0      -9.848  12.881  69.521  1.00  0.00     0.000 HD 
HETATM   33  O   UNK A   0      -9.625  12.128  68.987  1.00  0.00     0.072 OA 
BRANCH  31  34
ATOM     34  N   SER A   1     -11.829  11.553  69.157  1.00  0.00    -0.324 NA 
ATOM     35  H   SER A   1     -12.643  11.633  68.547  1.00  0.00     0.000 HD 
BRANCH  34  36
ATOM     36  CA  SER A   1     -11.951  11.707  70.639  1.00  0.00    -0.257 C  
BRANCH  36  37
ATOM     37  CB  SER A   1     -12.889  12.885  70.916  1.00  0.00    -0.122 C  
ATOM     38  HG  SER A   1     -12.830  14.848  70.755  1.00  0.00     0.000 HD 
ATOM     39  OG  SER A   1     -12.249  14.117  70.583  1.00  0.00    -0.316 OA 
ENDBRANCH  36  37
BRANCH  36  40
ATOM     40  C   SER A   1     -12.528  10.411  71.239  1.00  0.00    -0.415 C  
ATOM     41  H   SER A   1     -13.938   9.108  70.790  1.00  0.00     0.000 HD 
ATOM     42  O   SER A   1     -13.583   9.907  70.421  1.00  0.00     0.016 OA 
ENDBRANCH  36  40
ENDBRANCH  34  36
ENDBRANCH  31  34
ENDBRANCH  18  31
ENDBRANCH   8  10
ENDBRANCH   5   8
ENDBRANCH   1   5
TORSDOF 13
ENDMDL
MODEL      151
REMARK 921   NORMALIZED FREE ENERGY PREDICTED BY IDOCK:   -3.18 KCAL/MOL
REMARK 922        TOTAL FREE ENERGY PREDICTED BY IDOCK:   -6.52 KCAL/MOL
REMARK 923 INTER-LIGAND FREE ENERGY PREDICTED BY IDOCK:   -5.04 KCAL/MOL
REMARK 924 INTRA-LIGAND FREE ENERGY PREDICTED BY IDOCK:   -1.49 KCAL/MOL
REMARK 927      BINDING AFFINITY PREDICTED BY RF-SCORE:    0.00 PKD
ROOT
HETATM    1  C   UNK A   0      -8.972   8.784  70.723  1.00  0.00    -0.192 C  
HETATM    2  O   UNK A   0      -8.627  10.135  70.367  1.00  0.00    -0.344 OA 
HETATM    3  C   UNK A   0      -8.562   8.533  72.156  1.00  0.00    -0.242 C  
HETATM    4  H   UNK A   0      -8.884  10.292  69.466  1.00  0.00     0.000 HD 
ENDROOT
BRANCH   1   5
HETATM    5  C   UNK A   0     -10.480   8.664  70.583  1.00  0.00    -0.204 C  
HETATM    6  O   UNK A   0     -11.150   9.630  71.252  1.00  0.00    -0.346 OA 
HETATM    7  H   UNK A   0     -12.094   9.555  71.165  1.00  0.00     0.000 HD 
BRANCH   5   8
HETATM    8  N   UNK A   0     -11.056   7.764  69.855  1.00  0.00    -0.411 NA 
HETATM    9  H   UNK A   0     -11.996   7.922  69.492  1.00  0.00     0.000 HD 
BRANCH   8  10
HETATM   10  C   UNK A   0     -10.367   6.547  69.564  1.00  0.00    -0.200 A  
HETATM   11  C   UNK A   0     -10.220   5.521  70.527  1.00  0.00    -0.242 A  
HETATM   12  I   UNK A   0     -11.194   5.800  72.472  1.00  0.00    -0.272 I  
HETATM   13  C   UNK A   0      -9.609   4.295  70.189  1.00  0.00    -0.269 A  
HETATM   14  I   UNK A   0      -9.958   7.988  66.876  1.00  0.00    -0.331 I  
HETATM   15  C   UNK A   0      -9.395   4.008  68.808  1.00  0.00    -0.163 A  
HETATM   16  I   UNK A   0      -9.264   1.896  68.264  1.00  0.00    -0.179 I  
HETATM   17  C   UNK A   0      -9.954   6.293  68.220  1.00  0.00    -0.139 A  
HETATM   18  C   UNK A   0      -9.551   5.004  67.798  1.00  0.00    -0.178 A  
BRANCH  13  19
HETATM   19  C   UNK A   0      -9.079   3.344  71.217  1.00  0.00    -0.107 C  
HETATM   20  O   UNK A   0      -9.919   2.398  71.659  1.00  0.00    -0.158 OA 
HETATM   21  H   UNK A   0      -9.583   1.795  72.311  1.00  0.00     0.000 HD 
BRANCH  19  22
ATOM     22  N   SER A   1      -7.873   3.399  71.664  1.00  0.00    -0.056 NA 
ATOM     23  H   SER A   1      -7.137   2.815  71.267  1.00  0.00     0.000 HD 
BRANCH  22  24
ATOM     24  CA  SER A   1      -7.587   4.342  72.781  1.00  0.00    -0.081 C  
BRANCH  24  25
ATOM     25  C   SER A   1      -6.618   5.407  72.235  1.00  0.00    -0.057 C  
ATOM     26  H   SER A   1      -5.388   5.593  70.709  1.00  0.00     0.000 HD 
ATOM     27  O   SER A   1      -5.987   4.937  71.046  1.00  0.00    -0.016 OA 
ENDBRANCH  24  25
BRANCH  24  28
ATOM     28  CB  SER A   1      -6.914   3.652  73.985  1.00  0.00    -0.047 C  
ATOM     29  OG  SER A   1      -5.489   3.642  73.934  1.00  0.00    -0.003 OA 
ATOM     30  HG  SER A   1      -5.075   3.217  74.676  1.00  0.00     0.000 HD 
ENDBRANCH  24  28
ENDBRANCH  22  24
ENDBRANCH  19  22
ENDBRANCH  13  19
BRANCH  18  31
HETATM   31  C   UNK A   0      -9.351   4.659  66.343  1.00  0.00    -0.149 C  
HETATM   32  H   UNK A   0     -10.358   4.221  64.729  1.00  0.00     0.000 HD 
HETATM   33  O   UNK A   0     -10.483   4.439  65.646  1.00  0.00    -0.260 OA 
BRANCH  31  34
ATOM     34  N   SER A   1      -8.203   4.512  65.776  1.00  0.00    -0.109 NA 
ATOM     35  H   SER A   1      -7.918   3.616  65.379  1.00  0.00     0.000 HD 
BRANCH  34  36
ATOM     36  CA  SER A   1      -7.307   5.707  65.722  1.00  0.00    -0.073 C  
BRANCH  36  37
ATOM     37  CB  SER A   1      -6.066   5.403  66.566  1.00  0.00    -0.030 C  
ATOM     38  HG  SER A   1      -5.294   6.014  68.273  1.00  0.00     0.000 HD 
ATOM     39  OG  SER A   1      -6.065   6.201  67.750  1.00  0.00    -0.016 OA 
ENDBRANCH  36  37
BRANCH  36  40
ATOM     40  C   SER A   1      -6.906   5.978  64.260  1.00  0.00    -0.046 C  
ATOM     41  H   SER A   1      -7.771   6.651  62.621  1.00  0.00     0.000 HD 
ATOM     42  O   SER A   1      -8.018   6.484  63.522  1.00  0.00    -0.115 OA 
ENDBRANCH  36  40
ENDBRANCH  34  36
ENDBRANCH  31  34
ENDBRANCH  18  31
ENDBRANCH   8  10
ENDBRANCH   5   8
ENDBRANCH   1   5
TORSDOF 13
ENDMDL
MODEL      152
REMARK 921   NORMALIZED FREE ENERGY PREDICTED BY IDOCK:   -3.17 KCAL/MOL
REMARK 922        TOTAL FREE ENERGY PREDICTED BY IDOCK:   -6.50 KCAL/MOL
REMARK 923 INTER-LIGAND FREE ENERGY PREDICTED BY IDOCK:   -8.02 KCAL/MOL
REMARK 924 INTRA-LIGAND FREE ENERGY PREDICTED BY IDOCK:    1.52 KCAL/MOL
REMARK 927      BINDING AFFINITY PREDICTED BY RF-SCORE:    0.00 PKD
ROOT
HETATM    1  C   UNK A   0      -9.418   9.633  65.307  1.00  0.00    -0.275 C  
HETATM    2  O   UNK A   0     -10.272   8.859  66.167  1.00  0.00    -0.376 OA 
HETATM    3  C   UNK A   0     -10.240  10.714  64.641  1.00  0.00    -0.404 C  
HETATM    4  H   UNK A   0      -9.756   8.180  66.585  1.00  0.00     0.000 HD 
ENDROOT
BRANCH   1   5
HETATM    5  C   UNK A   0      -8.354  10.260  66.192  1.00  0.00    -0.140 C  
HETATM    6  O   UNK A   0      -7.125   9.729  65.995  1.00  0.00    -0.094 OA 
HETATM    7  H   UNK A   0      -6.459  10.120  66.548  1.00  0.00     0.000 HD 
BRANCH   5   8
HETATM    8  N   UNK A   0      -8.592  11.234  67.007  1.00  0.00    -0.143 NA 
HETATM    9  H   UNK A   0      -8.321  12.186  66.762  1.00  0.00     0.000 HD 
BRANCH   8  10
HETATM   10  C   UNK A   0      -9.236  10.967  68.254  1.00  0.00    -0.165 A  
HETATM   11  C   UNK A   0     -10.536  11.447  68.542  1.00  0.00    -0.203 A  
HETATM   12  I   UNK A   0     -11.601  12.525  66.957  1.00  0.00    -0.326 I  
HETATM   13  C   UNK A   0     -11.183  11.100  69.748  1.00  0.00    -0.318 A  
HETATM   14  I   UNK A   0      -6.540   9.590  68.801  1.00  0.00    -0.051 I  
HETATM   15  C   UNK A   0     -10.624  10.049  70.533  1.00  0.00    -0.246 A  
HETATM   16  I   UNK A   0     -12.001   8.988  71.856  1.00  0.00    -0.373 I  
HETATM   17  C   UNK A   0      -8.618  10.063  69.170  1.00  0.00    -0.158 A  
HETATM   18  C   UNK A   0      -9.326   9.518  70.268  1.00  0.00    -0.305 A  
BRANCH  13  19
HETATM   19  C   UNK A   0     -12.356  11.860  70.284  1.00  0.00    -0.207 C  
HETATM   20  O   UNK A   0     -13.267  11.162  70.976  1.00  0.00    -0.204 OA 
HETATM   21  H   UNK A   0     -14.011  11.645  71.316  1.00  0.00     0.000 HD 
BRANCH  19  22
ATOM     22  N   SER A   1     -12.503  13.128  70.116  1.00  0.00    -0.184 NA 
ATOM     23  H   SER A   1     -12.768  13.511  69.209  1.00  0.00     0.000 HD 
BRANCH  22  24
ATOM     24  CA  SER A   1     -12.273  14.017  71.289  1.00  0.00    -0.310 C  
BRANCH  24  25
ATOM     25  C   SER A   1     -13.649  14.550  71.728  1.00  0.00    -0.391 C  
ATOM     26  H   SER A   1     -15.131  13.951  72.878  1.00  0.00     0.000 HD 
ATOM     27  O   SER A   1     -14.281  13.622  72.607  1.00  0.00    -0.735 OA 
ENDBRANCH  24  25
BRANCH  24  28
ATOM     28  CB  SER A   1     -11.374  15.225  70.954  1.00  0.00    -0.342 C  
ATOM     29  OG  SER A   1     -10.317  14.933  70.042  1.00  0.00    -0.450 OA 
ATOM     30  HG  SER A   1      -9.764  15.677  69.835  1.00  0.00     0.000 HD 
ENDBRANCH  24  28
ENDBRANCH  22  24
ENDBRANCH  19  22
ENDBRANCH  13  19
BRANCH  18  31
HETATM   31  C   UNK A   0      -8.778   8.382  71.096  1.00  0.00    -0.159 C  
HETATM   32  H   UNK A   0      -7.813   8.033  72.755  1.00  0.00     0.000 HD 
HETATM   33  O   UNK A   0      -8.158   8.748  72.234  1.00  0.00    -0.356 OA 
BRANCH  31  34
ATOM     34  N   SER A   1      -8.820   7.140  70.753  1.00  0.00    -0.147 NA 
ATOM     35  H   SER A   1      -8.382   6.417  71.324  1.00  0.00     0.000 HD 
BRANCH  34  36
ATOM     36  CA  SER A   1      -9.536   6.802  69.485  1.00  0.00    -0.148 C  
BRANCH  36  37
ATOM     37  CB  SER A   1      -8.520   6.183  68.521  1.00  0.00    -0.114 C  
ATOM     38  HG  SER A   1      -8.070   6.328  66.608  1.00  0.00     0.000 HD 
ATOM     39  OG  SER A   1      -8.699   6.712  67.207  1.00  0.00    -0.118 OA 
ENDBRANCH  36  37
BRANCH  36  40
ATOM     40  C   SER A   1     -10.664   5.799  69.790  1.00  0.00    -0.348 C  
ATOM     41  H   SER A   1     -10.955   4.266  70.995  1.00  0.00     0.000 HD 
ATOM     42  O   SER A   1     -10.259   4.884  70.807  1.00  0.00    -0.232 OA 
ENDBRANCH  36  40
ENDBRANCH  34  36
ENDBRANCH  31  34
ENDBRANCH  18  31
ENDBRANCH   8  10
ENDBRANCH   5   8
ENDBRANCH   1   5
TORSDOF 13
ENDMDL
MODEL      153
REMARK 921   NORMALIZED FREE ENERGY PREDICTED BY IDOCK:   -3.16 KCAL/MOL
REMARK 922        TOTAL FREE ENERGY PREDICTED BY IDOCK:   -6.50 KCAL/MOL
REMARK 923 INTER-LIGAND FREE ENERGY PREDICTED BY IDOCK:   -6.01 KCAL/MOL
REMARK 924 INTRA-LIGAND FREE ENERGY PREDICTED BY IDOCK:   -0.49 KCAL/MOL
REMARK 927      BINDING AFFINITY PREDICTED BY RF-SCORE:    0.00 PKD
ROOT
HETATM    1  C   UNK A   0      -9.611   9.762  64.049  1.00  0.00     0.067 C  
HETATM    2  O   UNK A   0     -10.572  10.794  64.335  1.00  0.00    -0.347 OA 
HETATM    3  C   UNK A   0      -9.318   9.762  62.565  1.00  0.00    -0.198 C  
HETATM    4  H   UNK A   0     -10.756  10.794  65.267  1.00  0.00     0.000 HD 
ENDROOT
BRANCH   1   5
HETATM    5  C   UNK A   0      -8.353  10.104  64.829  1.00  0.00    -0.165 C  
HETATM    6  O   UNK A   0      -7.480  10.856  64.119  1.00  0.00    -0.319 OA 
HETATM    7  H   UNK A   0      -6.693  11.070  64.607  1.00  0.00     0.000 HD 
BRANCH   5   8
HETATM    8  N   UNK A   0      -8.165   9.757  66.059  1.00  0.00    -0.115 NA 
HETATM    9  H   UNK A   0      -7.650  10.368  66.692  1.00  0.00     0.000 HD 
BRANCH   8  10
HETATM   10  C   UNK A   0      -8.682   8.510  66.527  1.00  0.00    -0.132 A  
HETATM   11  C   UNK A   0      -8.197   7.271  66.045  1.00  0.00    -0.138 A  
HETATM   12  I   UNK A   0      -6.523   7.311  64.629  1.00  0.00    -0.036 I  
HETATM   13  C   UNK A   0      -8.666   6.053  66.583  1.00  0.00    -0.123 A  
HETATM   14  I   UNK A   0     -10.500  10.413  68.120  1.00  0.00    -0.293 I  
HETATM   15  C   UNK A   0      -9.420   6.098  67.792  1.00  0.00    -0.115 A  
HETATM   16  I   UNK A   0      -9.402   4.288  69.016  1.00  0.00    -0.224 I  
HETATM   17  C   UNK A   0      -9.600   8.510  67.621  1.00  0.00    -0.153 A  
HETATM   18  C   UNK A   0      -9.913   7.325  68.329  1.00  0.00    -0.177 A  
BRANCH  13  19
HETATM   19  C   UNK A   0      -8.501   4.741  65.880  1.00  0.00    -0.117 C  
HETATM   20  O   UNK A   0      -7.518   3.940  66.314  1.00  0.00    -0.081 OA 
HETATM   21  H   UNK A   0      -7.414   3.107  65.868  1.00  0.00     0.000 HD 
BRANCH  19  22
ATOM     22  N   SER A   1      -9.260   4.367  64.911  1.00  0.00    -0.153 NA 
ATOM     23  H   SER A   1     -10.160   4.817  64.743  1.00  0.00     0.000 HD 
BRANCH  22  24
ATOM     24  CA  SER A   1      -8.783   3.256  64.041  1.00  0.00    -0.089 C  
BRANCH  24  25
ATOM     25  C   SER A   1      -8.188   3.898  62.774  1.00  0.00    -0.080 C  
ATOM     26  H   SER A   1      -8.556   5.464  61.640  1.00  0.00     0.000 HD 
ATOM     27  O   SER A   1      -8.922   5.068  62.422  1.00  0.00    -0.122 OA 
ENDBRANCH  24  25
BRANCH  24  28
ATOM     28  CB  SER A   1      -9.920   2.307  63.610  1.00  0.00    -0.138 C  
ATOM     29  OG  SER A   1     -11.228   2.773  63.937  1.00  0.00    -0.603 OA 
ATOM     30  HG  SER A   1     -11.928   2.188  63.672  1.00  0.00     0.000 HD 
ENDBRANCH  24  28
ENDBRANCH  22  24
ENDBRANCH  19  22
ENDBRANCH  13  19
BRANCH  18  31
HETATM   31  C   UNK A   0     -10.677   7.342  69.630  1.00  0.00    -0.235 C  
HETATM   32  H   UNK A   0     -12.311   6.657  70.445  1.00  0.00     0.000 HD 
HETATM   33  O   UNK A   0     -11.830   6.647  69.626  1.00  0.00    -0.255 OA 
BRANCH  31  34
ATOM     34  N   SER A   1     -10.326   8.009  70.676  1.00  0.00    -0.200 NA 
ATOM     35  H   SER A   1      -9.592   8.715  70.633  1.00  0.00     0.000 HD 
BRANCH  34  36
ATOM     36  CA  SER A   1     -11.040   7.705  71.954  1.00  0.00    -0.249 C  
BRANCH  36  37
ATOM     37  CB  SER A   1      -9.988   7.554  73.057  1.00  0.00    -0.268 C  
ATOM     38  HG  SER A   1      -8.305   8.436  73.579  1.00  0.00     0.000 HD 
ATOM     39  OG  SER A   1      -8.958   8.529  72.895  1.00  0.00    -0.300 OA 
ENDBRANCH  36  37
BRANCH  36  40
ATOM     40  C   SER A   1     -12.002   8.860  72.287  1.00  0.00    -0.310 C  
ATOM     41  H   SER A   1     -13.923   9.254  72.075  1.00  0.00     0.000 HD 
ATOM     42  O   SER A   1     -13.329   8.541  71.870  1.00  0.00    -0.340 OA 
ENDBRANCH  36  40
ENDBRANCH  34  36
ENDBRANCH  31  34
ENDBRANCH  18  31
ENDBRANCH   8  10
ENDBRANCH   5   8
ENDBRANCH   1   5
TORSDOF 13
ENDMDL
MODEL      154
REMARK 921   NORMALIZED FREE ENERGY PREDICTED BY IDOCK:   -3.14 KCAL/MOL
REMARK 922        TOTAL FREE ENERGY PREDICTED BY IDOCK:   -6.46 KCAL/MOL
REMARK 923 INTER-LIGAND FREE ENERGY PREDICTED BY IDOCK:   -6.09 KCAL/MOL
REMARK 924 INTRA-LIGAND FREE ENERGY PREDICTED BY IDOCK:   -0.37 KCAL/MOL
REMARK 927      BINDING AFFINITY PREDICTED BY RF-SCORE:    0.00 PKD
ROOT
HETATM    1  C   UNK A   0      -6.545  15.457  67.971  1.00  0.00    -0.147 C  
HETATM    2  O   UNK A   0      -6.962  16.819  68.174  1.00  0.00    -0.150 OA 
HETATM    3  C   UNK A   0      -5.130  15.451  67.438  1.00  0.00     0.168 C  
HETATM    4  H   UNK A   0      -7.851  16.822  68.509  1.00  0.00     0.000 HD 
ENDROOT
BRANCH   1   5
HETATM    5  C   UNK A   0      -6.594  14.775  69.328  1.00  0.00    -0.128 C  
HETATM    6  O   UNK A   0      -5.597  15.170  70.153  1.00  0.00    -0.117 OA 
HETATM    7  H   UNK A   0      -5.627  14.744  71.002  1.00  0.00     0.000 HD 
BRANCH   5   8
HETATM    8  N   UNK A   0      -7.523  13.946  69.672  1.00  0.00    -0.307 NA 
HETATM    9  H   UNK A   0      -7.868  13.931  70.632  1.00  0.00     0.000 HD 
BRANCH   8  10
HETATM   10  C   UNK A   0      -8.064  13.049  68.700  1.00  0.00    -0.011 A  
HETATM   11  C   UNK A   0      -9.323  13.273  68.094  1.00  0.00    -0.220 A  
HETATM   12  I   UNK A   0     -10.388  15.121  68.606  1.00  0.00    -0.256 I  
HETATM   13  C   UNK A   0      -9.797  12.418  67.076  1.00  0.00    -0.214 A  
HETATM   14  I   UNK A   0      -5.465  11.539  69.356  1.00  0.00    -0.065 I  
HETATM   15  C   UNK A   0      -8.877  11.503  66.485  1.00  0.00    -0.190 A  
HETATM   16  I   UNK A   0      -9.340  10.838  64.455  1.00  0.00    -0.288 I  
HETATM   17  C   UNK A   0      -7.244  11.987  68.210  1.00  0.00    -0.090 A  
HETATM   18  C   UNK A   0      -7.588  11.260  67.046  1.00  0.00    -0.143 A  
BRANCH  13  19
HETATM   19  C   UNK A   0     -11.238  12.357  66.677  1.00  0.00    -0.315 C  
HETATM   20  O   UNK A   0     -12.096  11.852  67.574  1.00  0.00    -0.573 OA 
HETATM   21  H   UNK A   0     -13.011  11.813  67.320  1.00  0.00     0.000 HD 
BRANCH  19  22
ATOM     22  N   SER A   1     -11.666  12.775  65.537  1.00  0.00    -0.372 NA 
ATOM     23  H   SER A   1     -11.783  12.136  64.752  1.00  0.00     0.000 HD 
BRANCH  22  24
ATOM     24  CA  SER A   1     -11.984  14.224  65.402  1.00  0.00    -0.383 C  
BRANCH  24  25
ATOM     25  C   SER A   1     -13.143  14.340  64.393  1.00  0.00     0.779 C  
ATOM     26  H   SER A   1     -13.437  13.965  62.484  1.00  0.00     0.000 HD 
ATOM     27  O   SER A   1     -12.722  13.894  63.106  1.00  0.00    -0.718 OA 
ENDBRANCH  24  25
BRANCH  24  28
ATOM     28  CB  SER A   1     -10.795  15.048  64.865  1.00  0.00    -0.411 C  
ATOM     29  OG  SER A   1     -11.171  16.157  64.051  1.00  0.00    -1.164 OA 
ATOM     30  HG  SER A   1     -10.439  16.664  63.721  1.00  0.00     0.000 HD 
ENDBRANCH  24  28
ENDBRANCH  22  24
ENDBRANCH  19  22
ENDBRANCH  13  19
BRANCH  18  31
HETATM   31  C   UNK A   0      -6.625  10.312  66.375  1.00  0.00    -0.092 C  
HETATM   32  H   UNK A   0      -4.991  10.301  65.310  1.00  0.00     0.000 HD 
HETATM   33  O   UNK A   0      -5.597  10.898  65.732  1.00  0.00    -0.134 OA 
BRANCH  31  34
ATOM     34  N   SER A   1      -6.765   9.031  66.338  1.00  0.00    -0.074 NA 
ATOM     35  H   SER A   1      -6.632   8.508  65.472  1.00  0.00     0.000 HD 
BRANCH  34  36
ATOM     36  CA  SER A   1      -7.129   8.343  67.614  1.00  0.00    -0.083 C  
BRANCH  36  37
ATOM     37  CB  SER A   1      -8.656   8.240  67.675  1.00  0.00    -0.130 C  
ATOM     38  HG  SER A   1     -10.022   7.799  69.025  1.00  0.00     0.000 HD 
ATOM     39  OG  SER A   1      -9.075   7.863  68.987  1.00  0.00    -0.145 OA 
ENDBRANCH  36  37
BRANCH  36  40
ATOM     40  C   SER A   1      -6.498   6.938  67.634  1.00  0.00    -0.050 C  
ATOM     41  H   SER A   1      -6.855   5.176  66.824  1.00  0.00     0.000 HD 
ATOM     42  O   SER A   1      -7.245   6.042  66.812  1.00  0.00    -0.068 OA 
ENDBRANCH  36  40
ENDBRANCH  34  36
ENDBRANCH  31  34
ENDBRANCH  18  31
ENDBRANCH   8  10
ENDBRANCH   5   8
ENDBRANCH   1   5
TORSDOF 13
ENDMDL
MODEL      155
REMARK 921   NORMALIZED FREE ENERGY PREDICTED BY IDOCK:   -3.12 KCAL/MOL
REMARK 922        TOTAL FREE ENERGY PREDICTED BY IDOCK:   -6.43 KCAL/MOL
REMARK 923 INTER-LIGAND FREE ENERGY PREDICTED BY IDOCK:   -5.98 KCAL/MOL
REMARK 924 INTRA-LIGAND FREE ENERGY PREDICTED BY IDOCK:   -0.45 KCAL/MOL
REMARK 927      BINDING AFFINITY PREDICTED BY RF-SCORE:    0.00 PKD
ROOT
HETATM    1  C   UNK A   0      -6.550  17.515  68.101  1.00  0.00    -0.186 C  
HETATM    2  O   UNK A   0      -6.228  17.681  66.709  1.00  0.00    -0.140 OA 
HETATM    3  C   UNK A   0      -7.631  18.504  68.476  1.00  0.00    -0.328 C  
HETATM    4  H   UNK A   0      -5.548  17.060  66.474  1.00  0.00     0.000 HD 
ENDROOT
BRANCH   1   5
HETATM    5  C   UNK A   0      -7.063  16.094  68.268  1.00  0.00    -0.128 C  
HETATM    6  O   UNK A   0      -7.286  15.763  69.561  1.00  0.00    -0.213 OA 
HETATM    7  H   UNK A   0      -7.607  14.874  69.665  1.00  0.00     0.000 HD 
BRANCH   5   8
HETATM    8  N   UNK A   0      -7.309  15.307  67.273  1.00  0.00    -0.208 NA 
HETATM    9  H   UNK A   0      -6.961  15.534  66.342  1.00  0.00     0.000 HD 
BRANCH   8  10
HETATM   10  C   UNK A   0      -8.073  14.119  67.487  1.00  0.00    -0.187 A  
HETATM   11  C   UNK A   0      -7.458  12.862  67.696  1.00  0.00    -0.148 A  
HETATM   12  I   UNK A   0      -5.268  12.801  67.803  1.00  0.00    -0.034 I  
HETATM   13  C   UNK A   0      -8.233  11.719  67.987  1.00  0.00    -0.152 A  
HETATM   14  I   UNK A   0     -10.382  16.106  67.054  1.00  0.00    -0.251 I  
HETATM   15  C   UNK A   0      -9.602  11.906  68.336  1.00  0.00    -0.196 A  
HETATM   16  I   UNK A   0     -10.516  10.339  69.555  1.00  0.00    -0.284 I  
HETATM   17  C   UNK A   0      -9.487  14.229  67.651  1.00  0.00    -0.211 A  
HETATM   18  C   UNK A   0     -10.261  13.160  68.164  1.00  0.00    -0.239 A  
BRANCH  13  19
HETATM   19  C   UNK A   0      -7.707  10.325  67.835  1.00  0.00    -0.089 C  
HETATM   20  O   UNK A   0      -7.650   9.830  66.591  1.00  0.00    -0.097 OA 
HETATM   21  H   UNK A   0      -7.317   8.945  66.496  1.00  0.00     0.000 HD 
BRANCH  19  22
ATOM     22  N   SER A   1      -7.309   9.616  68.833  1.00  0.00    -0.072 NA 
ATOM     23  H   SER A   1      -7.917   9.447  69.635  1.00  0.00     0.000 HD 
BRANCH  22  24
ATOM     24  CA  SER A   1      -5.932   9.050  68.780  1.00  0.00    -0.044 C  
BRANCH  24  25
ATOM     25  C   SER A   1      -6.060   7.597  68.287  1.00  0.00    -0.036 C  
ATOM     26  H   SER A   1      -7.476   6.437  67.564  1.00  0.00     0.000 HD 
ATOM     27  O   SER A   1      -7.397   7.334  67.868  1.00  0.00    -0.091 OA 
ENDBRANCH  24  25
BRANCH  24  28
ATOM     28  CB  SER A   1      -5.242   9.031  70.160  1.00  0.00    -0.028 C  
ATOM     29  OG  SER A   1      -5.263  10.283  70.842  1.00  0.00    -0.058 OA 
ATOM     30  HG  SER A   1      -4.838  10.271  71.692  1.00  0.00     0.000 HD 
ENDBRANCH  24  28
ENDBRANCH  22  24
ENDBRANCH  19  22
ENDBRANCH  13  19
BRANCH  18  31
HETATM   31  C   UNK A   0     -11.702  13.334  68.576  1.00  0.00    -0.352 C  
HETATM   32  H   UNK A   0     -13.495  13.485  67.822  1.00  0.00     0.000 HD 
HETATM   33  O   UNK A   0     -12.587  13.376  67.562  1.00  0.00     0.027 OA 
BRANCH  31  34
ATOM     34  N   SER A   1     -12.101  13.498  69.791  1.00  0.00    -0.328 NA 
ATOM     35  H   SER A   1     -12.201  12.707  70.427  1.00  0.00     0.000 HD 
BRANCH  34  36
ATOM     36  CA  SER A   1     -12.410  14.893  70.229  1.00  0.00    -0.341 C  
BRANCH  36  37
ATOM     37  CB  SER A   1     -13.607  14.834  71.182  1.00  0.00    -0.371 C  
ATOM     38  HG  SER A   1     -14.455  13.498  72.356  1.00  0.00     0.000 HD 
ATOM     39  OG  SER A   1     -13.712  13.535  71.765  1.00  0.00    -0.368 OA 
ENDBRANCH  36  37
BRANCH  36  40
ATOM     40  C   SER A   1     -11.183  15.485  70.948  1.00  0.00    -0.371 C  
ATOM     41  H   SER A   1     -10.835  16.684  72.474  1.00  0.00     0.000 HD 
ATOM     42  O   SER A   1     -11.592  16.320  72.030  1.00  0.00    -0.457 OA 
ENDBRANCH  36  40
ENDBRANCH  34  36
ENDBRANCH  31  34
ENDBRANCH  18  31
ENDBRANCH   8  10
ENDBRANCH   5   8
ENDBRANCH   1   5
TORSDOF 13
ENDMDL
MODEL      156
REMARK 921   NORMALIZED FREE ENERGY PREDICTED BY IDOCK:   -3.08 KCAL/MOL
REMARK 922        TOTAL FREE ENERGY PREDICTED BY IDOCK:   -6.35 KCAL/MOL
REMARK 923 INTER-LIGAND FREE ENERGY PREDICTED BY IDOCK:   -5.33 KCAL/MOL
REMARK 924 INTRA-LIGAND FREE ENERGY PREDICTED BY IDOCK:   -1.02 KCAL/MOL
REMARK 927      BINDING AFFINITY PREDICTED BY RF-SCORE:    0.00 PKD
ROOT
HETATM    1  C   UNK A   0     -12.303  11.201  69.372  1.00  0.00    -0.155 C  
HETATM    2  O   UNK A   0     -13.427  10.419  69.811  1.00  0.00    -0.377 OA 
HETATM    3  C   UNK A   0     -12.050  12.305  70.374  1.00  0.00    -0.385 C  
HETATM    4  H   UNK A   0     -13.586   9.726  69.181  1.00  0.00     0.000 HD 
ENDROOT
BRANCH   1   5
HETATM    5  C   UNK A   0     -11.109  10.263  69.318  1.00  0.00    -0.245 C  
HETATM    6  O   UNK A   0      -9.930  10.899  69.508  1.00  0.00    -0.418 OA 
HETATM    7  H   UNK A   0      -9.183  10.312  69.473  1.00  0.00     0.000 HD 
BRANCH   5   8
HETATM    8  N   UNK A   0     -11.217   8.985  69.161  1.00  0.00    -0.430 NA 
HETATM    9  H   UNK A   0     -12.048   8.591  68.719  1.00  0.00     0.000 HD 
BRANCH   8  10
HETATM   10  C   UNK A   0     -10.167   8.128  69.611  1.00  0.00    -0.205 A  
HETATM   11  C   UNK A   0      -9.165   7.648  68.734  1.00  0.00    -0.142 A  
HETATM   12  I   UNK A   0      -9.199   8.358  66.659  1.00  0.00    -0.288 I  
HETATM   13  C   UNK A   0      -8.092   6.871  69.220  1.00  0.00    -0.120 A  
HETATM   14  I   UNK A   0     -11.728   8.403  72.248  1.00  0.00    -0.350 I  
HETATM   15  C   UNK A   0      -7.888   6.813  70.629  1.00  0.00    -0.105 A  
HETATM   16  I   UNK A   0      -5.857   6.364  71.299  1.00  0.00    -0.029 I  
HETATM   17  C   UNK A   0     -10.033   7.878  71.010  1.00  0.00    -0.181 A  
HETATM   18  C   UNK A   0      -8.859   7.303  71.553  1.00  0.00    -0.125 A  
BRANCH  13  19
HETATM   19  C   UNK A   0      -7.238   6.024  68.328  1.00  0.00    -0.084 C  
HETATM   20  O   UNK A   0      -6.106   6.575  67.869  1.00  0.00    -0.025 OA 
HETATM   21  H   UNK A   0      -5.564   6.037  67.304  1.00  0.00     0.000 HD 
BRANCH  19  22
ATOM     22  N   SER A   1      -7.544   4.815  68.011  1.00  0.00    -0.081 NA 
ATOM     23  H   SER A   1      -7.365   4.455  67.073  1.00  0.00     0.000 HD 
BRANCH  22  24
ATOM     24  CA  SER A   1      -8.167   3.956  69.056  1.00  0.00    -0.068 C  
BRANCH  24  25
ATOM     25  C   SER A   1      -7.039   3.118  69.685  1.00  0.00    -0.041 C  
ATOM     26  H   SER A   1      -5.431   2.166  69.066  1.00  0.00     0.000 HD 
ATOM     27  O   SER A   1      -6.128   2.683  68.678  1.00  0.00    -0.024 OA 
ENDBRANCH  24  25
BRANCH  24  28
ATOM     28  CB  SER A   1      -9.222   2.988  68.481  1.00  0.00    -0.174 C  
ATOM     29  OG  SER A   1      -8.754   1.653  68.298  1.00  0.00    -0.065 OA 
ATOM     30  HG  SER A   1      -9.403   1.058  67.943  1.00  0.00     0.000 HD 
ENDBRANCH  24  28
ENDBRANCH  22  24
ENDBRANCH  19  22
ENDBRANCH  13  19
BRANCH  18  31
HETATM   31  C   UNK A   0      -8.596   7.260  73.038  1.00  0.00    -0.124 C  
HETATM   32  H   UNK A   0      -7.827   8.324  74.481  1.00  0.00     0.000 HD 
HETATM   33  O   UNK A   0      -7.992   8.351  73.546  1.00  0.00    -0.305 OA 
BRANCH  31  34
ATOM     34  N   SER A   1      -8.855   6.251  73.798  1.00  0.00    -0.123 NA 
ATOM     35  H   SER A   1      -8.813   6.328  74.815  1.00  0.00     0.000 HD 
BRANCH  34  36
ATOM     36  CA  SER A   1      -9.219   4.965  73.130  1.00  0.00    -0.118 C  
BRANCH  36  37
ATOM     37  CB  SER A   1      -8.399   3.847  73.780  1.00  0.00    -0.088 C  
ATOM     38  HG  SER A   1      -7.093   2.489  73.202  1.00  0.00     0.000 HD 
ATOM     39  OG  SER A   1      -7.602   3.183  72.799  1.00  0.00    -0.049 OA 
ENDBRANCH  36  37
BRANCH  36  40
ATOM     40  C   SER A   1     -10.725   4.702  73.319  1.00  0.00    -0.244 C  
ATOM     41  H   SER A   1     -11.953   3.163  73.211  1.00  0.00     0.000 HD 
ATOM     42  O   SER A   1     -11.025   3.325  73.095  1.00  0.00    -0.164 OA 
ENDBRANCH  36  40
ENDBRANCH  34  36
ENDBRANCH  31  34
ENDBRANCH  18  31
ENDBRANCH   8  10
ENDBRANCH   5   8
ENDBRANCH   1   5
TORSDOF 13
ENDMDL
MODEL      157
REMARK 921   NORMALIZED FREE ENERGY PREDICTED BY IDOCK:   -3.06 KCAL/MOL
REMARK 922        TOTAL FREE ENERGY PREDICTED BY IDOCK:   -6.31 KCAL/MOL
REMARK 923 INTER-LIGAND FREE ENERGY PREDICTED BY IDOCK:   -5.90 KCAL/MOL
REMARK 924 INTRA-LIGAND FREE ENERGY PREDICTED BY IDOCK:   -0.41 KCAL/MOL
REMARK 927      BINDING AFFINITY PREDICTED BY RF-SCORE:    0.00 PKD
ROOT
HETATM    1  C   UNK A   0     -12.430  12.818  64.859  1.00  0.00    -0.497 C  
HETATM    2  O   UNK A   0     -13.224  13.997  65.080  1.00  0.00    -0.768 OA 
HETATM    3  C   UNK A   0     -13.311  11.735  64.277  1.00  0.00     0.931 C  
HETATM    4  H   UNK A   0     -12.671  14.677  65.446  1.00  0.00     0.000 HD 
ENDROOT
BRANCH   1   5
HETATM    5  C   UNK A   0     -11.346  13.198  63.865  1.00  0.00    -0.374 C  
HETATM    6  O   UNK A   0     -11.672  12.895  62.587  1.00  0.00    -0.548 OA 
HETATM    7  H   UNK A   0     -10.994  13.133  61.965  1.00  0.00     0.000 HD 
BRANCH   5   8
HETATM    8  N   UNK A   0     -10.252  13.798  64.203  1.00  0.00    -0.680 NA 
HETATM    9  H   UNK A   0      -9.701  14.293  63.502  1.00  0.00     0.000 HD 
BRANCH   8  10
HETATM   10  C   UNK A   0      -9.820  13.761  65.564  1.00  0.00    -0.163 A  
HETATM   11  C   UNK A   0      -9.310  12.582  66.156  1.00  0.00    -0.134 A  
HETATM   12  I   UNK A   0      -9.083  10.814  64.878  1.00  0.00    -0.162 I  
HETATM   13  C   UNK A   0      -8.812  12.593  67.477  1.00  0.00    -0.186 A  
HETATM   14  I   UNK A   0     -10.794  16.678  65.445  1.00  0.00     0.265 I  
HETATM   15  C   UNK A   0      -8.581  13.856  68.097  1.00  0.00    -0.180 A  
HETATM   16  I   UNK A   0      -7.094  13.893  69.698  1.00  0.00     0.485 I  
HETATM   17  C   UNK A   0      -9.754  14.983  66.299  1.00  0.00    -0.291 A  
HETATM   18  C   UNK A   0      -9.058  15.075  67.528  1.00  0.00    -0.189 A  
BRANCH  13  19
HETATM   19  C   UNK A   0      -8.627  11.345  68.282  1.00  0.00    -0.156 C  
HETATM   20  O   UNK A   0      -9.524  11.109  69.250  1.00  0.00    -0.406 OA 
HETATM   21  H   UNK A   0      -9.406  10.316  69.761  1.00  0.00     0.000 HD 
BRANCH  19  22
ATOM     22  N   SER A   1      -7.669  10.512  68.070  1.00  0.00    -0.092 NA 
ATOM     23  H   SER A   1      -7.788   9.724  67.434  1.00  0.00     0.000 HD 
BRANCH  22  24
ATOM     24  CA  SER A   1      -6.381  10.736  68.784  1.00  0.00    -0.044 C  
BRANCH  24  25
ATOM     25  C   SER A   1      -5.259  10.622  67.735  1.00  0.00    -0.040 C  
ATOM     26  H   SER A   1      -5.058   9.927  65.905  1.00  0.00     0.000 HD 
ATOM     27  O   SER A   1      -5.751   9.998  66.552  1.00  0.00    -0.051 OA 
ENDBRANCH  24  25
BRANCH  24  28
ATOM     28  CB  SER A   1      -6.119   9.687  69.885  1.00  0.00    -0.043 C  
ATOM     29  OG  SER A   1      -6.359  10.157  71.210  1.00  0.00    -0.322 OA 
ATOM     30  HG  SER A   1      -6.198   9.511  71.887  1.00  0.00     0.000 HD 
ENDBRANCH  24  28
ENDBRANCH  22  24
ENDBRANCH  19  22
ENDBRANCH  13  19
BRANCH  18  31
HETATM   31  C   UNK A   0      -8.765  16.398  68.192  1.00  0.00    -0.191 C  
HETATM   32  H   UNK A   0      -9.463  17.604  69.557  1.00  0.00     0.000 HD 
HETATM   33  O   UNK A   0      -9.647  16.771  69.139  1.00  0.00    -0.253 OA 
BRANCH  31  34
ATOM     34  N   SER A   1      -7.792  17.180  67.869  1.00  0.00    -0.189 NA 
ATOM     35  H   SER A   1      -6.839  16.829  67.778  1.00  0.00     0.000 HD 
BRANCH  34  36
ATOM     36  CA  SER A   1      -8.118  18.619  67.634  1.00  0.00    -0.247 C  
BRANCH  36  37
ATOM     37  CB  SER A   1      -7.531  19.431  68.791  1.00  0.00    -0.358 C  
ATOM     38  HG  SER A   1      -6.042  20.694  69.061  1.00  0.00     0.000 HD 
ATOM     39  OG  SER A   1      -6.407  20.191  68.343  1.00  0.00    -0.264 OA 
ENDBRANCH  36  37
BRANCH  36  40
ATOM     40  C   SER A   1      -7.499  19.069  66.297  1.00  0.00    -0.269 C  
ATOM     41  H   SER A   1      -7.047  18.251  64.561  1.00  0.00     0.000 HD 
ATOM     42  O   SER A   1      -7.428  17.973  65.385  1.00  0.00    -0.482 OA 
ENDBRANCH  36  40
ENDBRANCH  34  36
ENDBRANCH  31  34
ENDBRANCH  18  31
ENDBRANCH   8  10
ENDBRANCH   5   8
ENDBRANCH   1   5
TORSDOF 13
ENDMDL
MODEL      158
REMARK 921   NORMALIZED FREE ENERGY PREDICTED BY IDOCK:   -3.03 KCAL/MOL
REMARK 922        TOTAL FREE ENERGY PREDICTED BY IDOCK:   -6.27 KCAL/MOL
REMARK 923 INTER-LIGAND FREE ENERGY PREDICTED BY IDOCK:   -5.61 KCAL/MOL
REMARK 924 INTRA-LIGAND FREE ENERGY PREDICTED BY IDOCK:   -0.67 KCAL/MOL
REMARK 927      BINDING AFFINITY PREDICTED BY RF-SCORE:    0.00 PKD
ROOT
HETATM    1  C   UNK A   0      -9.806   2.854  71.187  1.00  0.00    -0.028 C  
HETATM    2  O   UNK A   0     -10.099   1.487  70.849  1.00  0.00    -0.022 OA 
HETATM    3  C   UNK A   0     -10.139   3.083  72.645  1.00  0.00    -0.231 C  
HETATM    4  H   UNK A   0      -9.890   1.344  69.934  1.00  0.00     0.000 HD 
ENDROOT
BRANCH   1   5
HETATM    5  C   UNK A   0      -8.318   3.055  70.955  1.00  0.00    -0.061 C  
HETATM    6  O   UNK A   0      -7.554   2.169  71.635  1.00  0.00    -0.039 OA 
HETATM    7  H   UNK A   0      -6.623   2.295  71.490  1.00  0.00     0.000 HD 
BRANCH   5   8
HETATM    8  N   UNK A   0      -7.840   3.945  70.149  1.00  0.00    -0.048 NA 
HETATM    9  H   UNK A   0      -7.009   3.741  69.594  1.00  0.00     0.000 HD 
BRANCH   8  10
HETATM   10  C   UNK A   0      -8.482   5.217  70.042  1.00  0.00    -0.096 A  
HETATM   11  C   UNK A   0      -8.513   6.132  71.120  1.00  0.00    -0.125 A  
HETATM   12  I   UNK A   0      -7.433   5.592  72.951  1.00  0.00    -0.098 I  
HETATM   13  C   UNK A   0      -9.081   7.415  70.962  1.00  0.00    -0.152 A  
HETATM   14  I   UNK A   0      -9.136   4.109  67.247  1.00  0.00    -0.215 I  
HETATM   15  C   UNK A   0      -9.368   7.865  69.641  1.00  0.00    -0.153 A  
HETATM   16  I   UNK A   0      -9.424  10.029  69.343  1.00  0.00    -0.215 I  
HETATM   17  C   UNK A   0      -8.966   5.639  68.767  1.00  0.00    -0.115 A  
HETATM   18  C   UNK A   0      -9.328   6.985  68.518  1.00  0.00    -0.135 A  
BRANCH  13  19
HETATM   19  C   UNK A   0      -9.494   8.265  72.123  1.00  0.00    -0.258 C  
HETATM   20  O   UNK A   0      -8.559   9.067  72.651  1.00  0.00    -0.293 OA 
HETATM   21  H   UNK A   0      -8.822   9.607  73.388  1.00  0.00     0.000 HD 
BRANCH  19  22
ATOM     22  N   SER A   1     -10.688   8.258  72.605  1.00  0.00    -0.346 NA 
ATOM     23  H   SER A   1     -10.851   8.343  73.609  1.00  0.00     0.000 HD 
BRANCH  22  24
ATOM     24  CA  SER A   1     -11.823   8.121  71.651  1.00  0.00    -0.292 C  
BRANCH  24  25
ATOM     25  C   SER A   1     -12.928   9.085  72.123  1.00  0.00    -0.424 C  
ATOM     26  H   SER A   1     -13.874  10.657  71.411  1.00  0.00     0.000 HD 
ATOM     27  O   SER A   1     -13.193  10.062  71.120  1.00  0.00    -0.384 OA 
ENDBRANCH  24  25
BRANCH  24  28
ATOM     28  CB  SER A   1     -12.409   6.694  71.624  1.00  0.00    -0.332 C  
ATOM     29  OG  SER A   1     -12.104   5.913  72.778  1.00  0.00    -0.537 OA 
ATOM     30  HG  SER A   1     -12.465   5.035  72.760  1.00  0.00     0.000 HD 
ENDBRANCH  24  28
ENDBRANCH  22  24
ENDBRANCH  19  22
ENDBRANCH  13  19
BRANCH  18  31
HETATM   31  C   UNK A   0      -9.602   7.501  67.127  1.00  0.00    -0.161 C  
HETATM   32  H   UNK A   0     -11.072   8.049  65.968  1.00  0.00     0.000 HD 
HETATM   33  O   UNK A   0     -10.900   7.724  66.843  1.00  0.00    -0.311 OA 
BRANCH  31  34
ATOM     34  N   SER A   1      -8.703   7.674  66.220  1.00  0.00    -0.146 NA 
ATOM     35  H   SER A   1      -8.941   7.662  65.228  1.00  0.00     0.000 HD 
BRANCH  34  36
ATOM     36  CA  SER A   1      -7.297   7.892  66.680  1.00  0.00    -0.088 C  
BRANCH  36  37
ATOM     37  CB  SER A   1      -6.374   7.057  65.789  1.00  0.00    -0.046 C  
ATOM     38  HG  SER A   1      -6.560   5.865  64.230  1.00  0.00     0.000 HD 
ATOM     39  OG  SER A   1      -7.132   6.384  64.783  1.00  0.00    -0.053 OA 
ENDBRANCH  36  37
BRANCH  36  40
ATOM     40  C   SER A   1      -6.949   9.387  66.559  1.00  0.00    -0.084 C  
ATOM     41  H   SER A   1      -7.269  10.852  65.279  1.00  0.00     0.000 HD 
ATOM     42  O   SER A   1      -7.484   9.930  65.353  1.00  0.00    -0.119 OA 
ENDBRANCH  36  40
ENDBRANCH  34  36
ENDBRANCH  31  34
ENDBRANCH  18  31
ENDBRANCH   8  10
ENDBRANCH   5   8
ENDBRANCH   1   5
TORSDOF 13
ENDMDL
MODEL      159
REMARK 921   NORMALIZED FREE ENERGY PREDICTED BY IDOCK:   -3.03 KCAL/MOL
REMARK 922        TOTAL FREE ENERGY PREDICTED BY IDOCK:   -6.26 KCAL/MOL
REMARK 923 INTER-LIGAND FREE ENERGY PREDICTED BY IDOCK:   -6.51 KCAL/MOL
REMARK 924 INTRA-LIGAND FREE ENERGY PREDICTED BY IDOCK:    0.25 KCAL/MOL
REMARK 927      BINDING AFFINITY PREDICTED BY RF-SCORE:    0.00 PKD
ROOT
HETATM    1  C   UNK A   0      -7.538   9.860  64.655  1.00  0.00    -0.139 C  
HETATM    2  O   UNK A   0      -8.120  11.127  64.300  1.00  0.00    -0.266 OA 
HETATM    3  C   UNK A   0      -7.027   9.934  66.077  1.00  0.00    -0.104 C  
HETATM    4  H   UNK A   0      -8.440  11.080  63.407  1.00  0.00     0.000 HD 
ENDROOT
BRANCH   1   5
HETATM    5  C   UNK A   0      -8.644   8.823  64.552  1.00  0.00    -0.099 C  
HETATM    6  O   UNK A   0      -8.224   7.656  64.013  1.00  0.00    -0.316 OA 
HETATM    7  H   UNK A   0      -8.915   7.007  63.948  1.00  0.00     0.000 HD 
BRANCH   5   8
HETATM    8  N   UNK A   0      -9.845   9.022  64.986  1.00  0.00    -0.163 NA 
HETATM    9  H   UNK A   0     -10.639   8.945  64.351  1.00  0.00     0.000 HD 
BRANCH   8  10
HETATM   10  C   UNK A   0     -10.052   9.350  66.361  1.00  0.00    -0.262 A  
HETATM   11  C   UNK A   0     -10.507  10.627  66.765  1.00  0.00    -0.247 A  
HETATM   12  I   UNK A   0     -11.005  12.077  65.196  1.00  0.00    -0.351 I  
HETATM   13  C   UNK A   0     -10.783  10.900  68.122  1.00  0.00    -0.256 A  
HETATM   14  I   UNK A   0      -8.998   6.480  66.704  1.00  0.00    -0.169 I  
HETATM   15  C   UNK A   0     -10.862   9.800  69.026  1.00  0.00    -0.199 A  
HETATM   16  I   UNK A   0     -12.068  10.104  70.822  1.00  0.00    -0.458 I  
HETATM   17  C   UNK A   0      -9.951   8.315  67.340  1.00  0.00    -0.209 A  
HETATM   18  C   UNK A   0     -10.436   8.489  68.658  1.00  0.00    -0.200 A  
BRANCH  13  19
HETATM   19  C   UNK A   0     -10.885  12.292  68.663  1.00  0.00    -0.236 C  
HETATM   20  O   UNK A   0     -12.110  12.830  68.729  1.00  0.00    -0.276 OA 
HETATM   21  H   UNK A   0     -12.174  13.714  69.073  1.00  0.00     0.000 HD 
BRANCH  19  22
ATOM     22  N   SER A   1      -9.862  12.961  69.067  1.00  0.00    -0.387 NA 
ATOM     23  H   SER A   1      -9.546  12.906  70.036  1.00  0.00     0.000 HD 
BRANCH  22  24
ATOM     24  CA  SER A   1      -9.154  13.817  68.075  1.00  0.00    -0.191 C  
BRANCH  24  25
ATOM     25  C   SER A   1      -7.686  13.353  68.044  1.00  0.00    -0.147 C  
ATOM     26  H   SER A   1      -5.983  13.892  68.870  1.00  0.00     0.000 HD 
ATOM     27  O   SER A   1      -6.889  14.179  68.890  1.00  0.00    -0.095 OA 
ENDBRANCH  24  25
BRANCH  24  28
ATOM     28  CB  SER A   1      -9.177  15.312  68.455  1.00  0.00    -0.200 C  
ATOM     29  OG  SER A   1      -8.298  16.127  67.682  1.00  0.00    -0.148 OA 
ATOM     30  HG  SER A   1      -8.313  17.048  67.916  1.00  0.00     0.000 HD 
ENDBRANCH  24  28
ENDBRANCH  22  24
ENDBRANCH  19  22
ENDBRANCH  13  19
BRANCH  18  31
HETATM   31  C   UNK A   0     -10.566   7.339  69.627  1.00  0.00    -0.235 C  
HETATM   32  H   UNK A   0     -11.751   5.859  70.084  1.00  0.00     0.000 HD 
HETATM   33  O   UNK A   0     -11.669   6.583  69.474  1.00  0.00    -0.329 OA 
BRANCH  31  34
ATOM     34  N   SER A   1      -9.741   7.094  70.586  1.00  0.00    -0.176 NA 
ATOM     35  H   SER A   1     -10.064   6.733  71.484  1.00  0.00     0.000 HD 
BRANCH  34  36
ATOM     36  CA  SER A   1      -8.292   7.360  70.331  1.00  0.00    -0.129 C  
BRANCH  36  37
ATOM     37  CB  SER A   1      -7.789   8.314  71.417  1.00  0.00    -0.106 C  
ATOM     38  HG  SER A   1      -7.733  10.261  71.718  1.00  0.00     0.000 HD 
ATOM     39  OG  SER A   1      -8.046   9.669  71.045  1.00  0.00    -0.287 OA 
ENDBRANCH  36  37
BRANCH  36  40
ATOM     40  C   SER A   1      -7.514   6.032  70.384  1.00  0.00    -0.090 C  
ATOM     41  H   SER A   1      -5.807   5.380  71.123  1.00  0.00     0.000 HD 
ATOM     42  O   SER A   1      -6.286   6.199  71.090  1.00  0.00    -0.041 OA 
ENDBRANCH  36  40
ENDBRANCH  34  36
ENDBRANCH  31  34
ENDBRANCH  18  31
ENDBRANCH   8  10
ENDBRANCH   5   8
ENDBRANCH   1   5
TORSDOF 13
ENDMDL
MODEL      160
REMARK 921   NORMALIZED FREE ENERGY PREDICTED BY IDOCK:   -3.01 KCAL/MOL
REMARK 922        TOTAL FREE ENERGY PREDICTED BY IDOCK:   -6.22 KCAL/MOL
REMARK 923 INTER-LIGAND FREE ENERGY PREDICTED BY IDOCK:   -6.58 KCAL/MOL
REMARK 924 INTRA-LIGAND FREE ENERGY PREDICTED BY IDOCK:    0.36 KCAL/MOL
REMARK 927      BINDING AFFINITY PREDICTED BY RF-SCORE:    0.00 PKD
ROOT
HETATM    1  C   UNK A   0     -12.448  12.186  64.488  1.00  0.00    -0.283 C  
HETATM    2  O   UNK A   0     -13.196  13.017  65.393  1.00  0.00    -0.538 OA 
HETATM    3  C   UNK A   0     -13.414  11.420  63.611  1.00  0.00     1.275 C  
HETATM    4  H   UNK A   0     -12.590  13.497  65.944  1.00  0.00     0.000 HD 
ENDROOT
BRANCH   1   5
HETATM    5  C   UNK A   0     -11.597  13.115  63.639  1.00  0.00    -0.390 C  
HETATM    6  O   UNK A   0     -12.287  13.676  62.619  1.00  0.00    -0.775 OA 
HETATM    7  H   UNK A   0     -11.755  14.257  62.087  1.00  0.00     0.000 HD 
BRANCH   5   8
HETATM    8  N   UNK A   0     -10.360  13.380  63.900  1.00  0.00    -0.668 NA 
HETATM    9  H   UNK A   0      -9.670  13.400  63.150  1.00  0.00     0.000 HD 
BRANCH   8  10
HETATM   10  C   UNK A   0      -9.965  13.646  65.247  1.00  0.00    -0.204 A  
HETATM   11  C   UNK A   0      -9.294  12.680  66.034  1.00  0.00    -0.067 A  
HETATM   12  I   UNK A   0      -8.759  10.778  65.080  1.00  0.00    -0.016 I  
HETATM   13  C   UNK A   0      -8.841  12.995  67.333  1.00  0.00    -0.203 A  
HETATM   14  I   UNK A   0     -11.377  16.308  64.626  1.00  0.00     0.659 I  
HETATM   15  C   UNK A   0      -8.826  14.365  67.726  1.00  0.00    -0.186 A  
HETATM   16  I   UNK A   0      -7.408  14.910  69.296  1.00  0.00    -0.130 I  
HETATM   17  C   UNK A   0     -10.110  14.970  65.761  1.00  0.00    -0.340 A  
HETATM   18  C   UNK A   0      -9.471  15.379  66.955  1.00  0.00    -0.232 A  
BRANCH  13  19
HETATM   19  C   UNK A   0      -8.485  11.948  68.342  1.00  0.00    -0.155 C  
HETATM   20  O   UNK A   0      -7.258  11.416  68.259  1.00  0.00    -0.073 OA 
HETATM   21  H   UNK A   0      -7.033  10.752  68.900  1.00  0.00     0.000 HD 
BRANCH  19  22
ATOM     22  N   SER A   1      -9.295  11.565  69.266  1.00  0.00    -0.339 NA 
ATOM     23  H   SER A   1      -9.591  12.204  70.004  1.00  0.00     0.000 HD 
BRANCH  22  24
ATOM     24  CA  SER A   1      -9.786  10.159  69.224  1.00  0.00    -0.224 C  
BRANCH  24  25
ATOM     25  C   SER A   1     -11.235  10.171  69.746  1.00  0.00    -0.272 C  
ATOM     26  H   SER A   1     -12.679  11.490  69.968  1.00  0.00     0.000 HD 
ATOM     27  O   SER A   1     -11.785  11.482  69.646  1.00  0.00    -0.294 OA 
ENDBRANCH  24  25
BRANCH  24  28
ATOM     28  CB  SER A   1      -8.960   9.213  70.119  1.00  0.00    -0.198 C  
ATOM     29  OG  SER A   1      -7.863   9.840  70.780  1.00  0.00    -0.327 OA 
ATOM     30  HG  SER A   1      -7.354   9.257  71.331  1.00  0.00     0.000 HD 
ENDBRANCH  24  28
ENDBRANCH  22  24
ENDBRANCH  19  22
ENDBRANCH  13  19
BRANCH  18  31
HETATM   31  C   UNK A   0      -9.406  16.825  67.380  1.00  0.00    -0.233 C  
HETATM   32  H   UNK A   0     -10.249  18.093  68.601  1.00  0.00     0.000 HD 
HETATM   33  O   UNK A   0     -10.289  17.182  68.333  1.00  0.00    -0.318 OA 
BRANCH  31  34
ATOM     34  N   SER A   1      -8.625  17.707  66.858  1.00  0.00    -0.234 NA 
ATOM     35  H   SER A   1      -7.962  17.460  66.124  1.00  0.00     0.000 HD 
BRANCH  34  36
ATOM     36  CA  SER A   1      -8.731  19.107  67.372  1.00  0.00    -0.290 C  
BRANCH  36  37
ATOM     37  CB  SER A   1     -10.163  19.592  67.127  1.00  0.00    -0.435 C  
ATOM     38  HG  SER A   1     -11.242  20.197  65.594  1.00  0.00     0.000 HD 
ATOM     39  OG  SER A   1     -10.354  19.896  65.745  1.00  0.00    -0.489 OA 
ENDBRANCH  36  37
BRANCH  36  40
ATOM     40  C   SER A   1      -8.411  19.122  68.878  1.00  0.00    -0.283 C  
ATOM     41  H   SER A   1      -6.804  19.082  70.020  1.00  0.00     0.000 HD 
ATOM     42  O   SER A   1      -7.001  19.072  69.091  1.00  0.00    -0.316 OA 
ENDBRANCH  36  40
ENDBRANCH  34  36
ENDBRANCH  31  34
ENDBRANCH  18  31
ENDBRANCH   8  10
ENDBRANCH   5   8
ENDBRANCH   1   5
TORSDOF 13
ENDMDL
MODEL      161
REMARK 921   NORMALIZED FREE ENERGY PREDICTED BY IDOCK:   -3.00 KCAL/MOL
REMARK 922        TOTAL FREE ENERGY PREDICTED BY IDOCK:   -6.21 KCAL/MOL
REMARK 923 INTER-LIGAND FREE ENERGY PREDICTED BY IDOCK:   -7.39 KCAL/MOL
REMARK 924 INTRA-LIGAND FREE ENERGY PREDICTED BY IDOCK:    1.17 KCAL/MOL
REMARK 927      BINDING AFFINITY PREDICTED BY RF-SCORE:    0.00 PKD
ROOT
HETATM    1  C   UNK A   0     -11.103   7.169  70.690  1.00  0.00    -0.267 C  
HETATM    2  O   UNK A   0     -12.512   7.458  70.644  1.00  0.00    -0.552 OA 
HETATM    3  C   UNK A   0     -10.898   5.687  70.470  1.00  0.00    -0.315 C  
HETATM    4  H   UNK A   0     -12.640   8.389  70.783  1.00  0.00     0.000 HD 
ENDROOT
BRANCH   1   5
HETATM    5  C   UNK A   0     -10.456   7.957  69.564  1.00  0.00    -0.226 C  
HETATM    6  O   UNK A   0      -9.280   8.522  69.924  1.00  0.00    -0.151 OA 
HETATM    7  H   UNK A   0      -8.875   9.016  69.221  1.00  0.00     0.000 HD 
BRANCH   5   8
HETATM    8  N   UNK A   0     -10.952   8.033  68.374  1.00  0.00    -0.422 NA 
HETATM    9  H   UNK A   0     -11.950   7.886  68.224  1.00  0.00     0.000 HD 
BRANCH   8  10
HETATM   10  C   UNK A   0     -10.094   8.322  67.269  1.00  0.00    -0.247 A  
HETATM   11  C   UNK A   0      -9.304   7.322  66.653  1.00  0.00    -0.171 A  
HETATM   12  I   UNK A   0      -9.524   5.261  67.371  1.00  0.00    -0.182 I  
HETATM   13  C   UNK A   0      -8.528   7.615  65.511  1.00  0.00    -0.132 A  
HETATM   14  I   UNK A   0     -11.155  11.159  67.810  1.00  0.00    -0.360 I  
HETATM   15  C   UNK A   0      -8.767   8.848  64.835  1.00  0.00    -0.149 A  
HETATM   16  I   UNK A   0      -8.228   8.914  62.719  1.00  0.00    -0.158 I  
HETATM   17  C   UNK A   0     -10.153   9.617  66.670  1.00  0.00    -0.239 A  
HETATM   18  C   UNK A   0      -9.572   9.878  65.406  1.00  0.00    -0.350 A  
BRANCH  13  19
HETATM   19  C   UNK A   0      -7.400   6.744  65.054  1.00  0.00    -0.082 C  
HETATM   20  O   UNK A   0      -6.194   6.982  65.589  1.00  0.00    -0.035 OA 
HETATM   21  H   UNK A   0      -5.479   6.429  65.298  1.00  0.00     0.000 HD 
BRANCH  19  22
ATOM     22  N   SER A   1      -7.553   5.795  64.198  1.00  0.00    -0.076 NA 
ATOM     23  H   SER A   1      -8.383   5.747  63.608  1.00  0.00     0.000 HD 
BRANCH  22  24
ATOM     24  CA  SER A   1      -6.478   4.768  64.099  1.00  0.00    -0.038 C  
BRANCH  24  25
ATOM     25  C   SER A   1      -6.462   4.272  62.641  1.00  0.00    -0.022 C  
ATOM     26  H   SER A   1      -7.323   2.849  61.590  1.00  0.00     0.000 HD 
ATOM     27  O   SER A   1      -7.334   3.155  62.489  1.00  0.00    -0.045 OA 
ENDBRANCH  24  25
BRANCH  24  28
ATOM     28  CB  SER A   1      -6.729   3.553  65.017  1.00  0.00    -0.044 C  
ATOM     29  OG  SER A   1      -5.755   2.517  64.896  1.00  0.00    -0.012 OA 
ATOM     30  HG  SER A   1      -5.910   1.770  65.461  1.00  0.00     0.000 HD 
ENDBRANCH  24  28
ENDBRANCH  22  24
ENDBRANCH  19  22
ENDBRANCH  13  19
BRANCH  18  31
HETATM   31  C   UNK A   0      -9.834  11.157  64.649  1.00  0.00    -0.280 C  
HETATM   32  H   UNK A   0     -10.480  11.801  62.924  1.00  0.00     0.000 HD 
HETATM   33  O   UNK A   0     -10.315  10.996  63.401  1.00  0.00    -0.355 OA 
BRANCH  31  34
ATOM     34  N   SER A   1      -9.574  12.338  65.095  1.00  0.00    -0.454 NA 
ATOM     35  H   SER A   1      -8.834  12.495  65.779  1.00  0.00     0.000 HD 
BRANCH  34  36
ATOM     36  CA  SER A   1     -10.401  13.467  64.568  1.00  0.00    -0.373 C  
BRANCH  36  37
ATOM     37  CB  SER A   1     -11.868  13.028  64.590  1.00  0.00    -0.372 C  
ATOM     38  HG  SER A   1     -13.275  12.623  63.272  1.00  0.00     0.000 HD 
ATOM     39  OG  SER A   1     -12.365  12.894  63.259  1.00  0.00    -0.652 OA 
ENDBRANCH  36  37
BRANCH  36  40
ATOM     40  C   SER A   1     -10.199  14.705  65.462  1.00  0.00    -0.370 C  
ATOM     41  H   SER A   1      -9.005  15.252  66.933  1.00  0.00     0.000 HD 
ATOM     42  O   SER A   1      -9.130  14.489  66.382  1.00  0.00    -0.255 OA 
ENDBRANCH  36  40
ENDBRANCH  34  36
ENDBRANCH  31  34
ENDBRANCH  18  31
ENDBRANCH   8  10
ENDBRANCH   5   8
ENDBRANCH   1   5
TORSDOF 13
ENDMDL
MODEL      162
REMARK 921   NORMALIZED FREE ENERGY PREDICTED BY IDOCK:   -2.99 KCAL/MOL
REMARK 922        TOTAL FREE ENERGY PREDICTED BY IDOCK:   -6.19 KCAL/MOL
REMARK 923 INTER-LIGAND FREE ENERGY PREDICTED BY IDOCK:   -6.18 KCAL/MOL
REMARK 924 INTRA-LIGAND FREE ENERGY PREDICTED BY IDOCK:   -0.01 KCAL/MOL
REMARK 927      BINDING AFFINITY PREDICTED BY RF-SCORE:    0.00 PKD
ROOT
HETATM    1  C   UNK A   0      -8.570   3.887  67.611  1.00  0.00    -0.101 C  
HETATM    2  O   UNK A   0      -7.252   3.824  68.184  1.00  0.00    -0.054 OA 
HETATM    3  C   UNK A   0      -9.499   3.009  68.419  1.00  0.00    -0.211 C  
HETATM    4  H   UNK A   0      -6.668   4.375  67.676  1.00  0.00     0.000 HD 
ENDROOT
BRANCH   1   5
HETATM    5  C   UNK A   0      -9.018   5.336  67.696  1.00  0.00    -0.109 C  
HETATM    6  O   UNK A   0     -10.262   5.534  67.203  1.00  0.00    -0.172 OA 
HETATM    7  H   UNK A   0     -10.542   6.440  67.256  1.00  0.00     0.000 HD 
BRANCH   5   8
HETATM    8  N   UNK A   0      -8.303   6.269  68.234  1.00  0.00    -0.115 NA 
HETATM    9  H   UNK A   0      -7.603   6.038  68.938  1.00  0.00     0.000 HD 
BRANCH   8  10
HETATM   10  C   UNK A   0      -8.502   7.627  67.835  1.00  0.00    -0.123 A  
HETATM   11  C   UNK A   0      -9.351   8.501  68.553  1.00  0.00    -0.138 A  
HETATM   12  I   UNK A   0     -10.280   7.742  70.390  1.00  0.00    -0.214 I  
HETATM   13  C   UNK A   0      -9.466   9.860  68.188  1.00  0.00    -0.149 A  
HETATM   14  I   UNK A   0      -6.638   6.724  65.560  1.00  0.00    -0.053 I  
HETATM   15  C   UNK A   0      -8.513  10.391  67.271  1.00  0.00    -0.122 A  
HETATM   16  I   UNK A   0      -8.169  12.547  67.368  1.00  0.00    -0.159 I  
HETATM   17  C   UNK A   0      -7.701   8.160  66.780  1.00  0.00    -0.095 A  
HETATM   18  C   UNK A   0      -7.620   9.552  66.539  1.00  0.00    -0.094 A  
BRANCH  13  19
HETATM   19  C   UNK A   0     -10.603  10.725  68.634  1.00  0.00    -0.199 C  
HETATM   20  O   UNK A   0     -10.554  11.192  69.889  1.00  0.00    -0.449 OA 
HETATM   21  H   UNK A   0     -11.276  11.742  70.172  1.00  0.00     0.000 HD 
BRANCH  19  22
ATOM     22  N   SER A   1     -11.589  11.033  67.867  1.00  0.00    -0.545 NA 
ATOM     23  H   SER A   1     -11.974  10.358  67.206  1.00  0.00     0.000 HD 
BRANCH  22  24
ATOM     24  CA  SER A   1     -12.151  12.408  67.974  1.00  0.00    -0.028 C  
BRANCH  24  25
ATOM     25  C   SER A   1     -11.872  13.116  66.635  1.00  0.00    -0.391 C  
ATOM     26  H   SER A   1     -12.361  12.872  64.744  1.00  0.00     0.000 HD 
ATOM     27  O   SER A   1     -12.534  12.436  65.570  1.00  0.00    -0.643 OA 
ENDBRANCH  24  25
BRANCH  24  28
ATOM     28  CB  SER A   1     -11.495  13.234  69.100  1.00  0.00    -0.305 C  
ATOM     29  OG  SER A   1     -12.396  13.650  70.124  1.00  0.00    -0.331 OA 
ATOM     30  HG  SER A   1     -11.992  14.158  70.817  1.00  0.00     0.000 HD 
ENDBRANCH  24  28
ENDBRANCH  22  24
ENDBRANCH  19  22
ENDBRANCH  13  19
BRANCH  18  31
HETATM   31  C   UNK A   0      -6.599  10.149  65.602  1.00  0.00    -0.112 C  
HETATM   32  H   UNK A   0      -4.753  10.781  65.563  1.00  0.00     0.000 HD 
HETATM   33  O   UNK A   0      -5.396  10.405  66.152  1.00  0.00    -0.050 OA 
BRANCH  31  34
ATOM     34  N   SER A   1      -6.829  10.467  64.374  1.00  0.00    -0.349 NA 
ATOM     35  H   SER A   1      -6.291  11.196  63.905  1.00  0.00     0.000 HD 
BRANCH  34  36
ATOM     36  CA  SER A   1      -7.917   9.726  63.666  1.00  0.00    -0.144 C  
BRANCH  36  37
ATOM     37  CB  SER A   1      -8.994  10.738  63.265  1.00  0.00    -0.220 C  
ATOM     38  HG  SER A   1     -10.720  11.369  63.974  1.00  0.00     0.000 HD 
ATOM     39  OG  SER A   1     -10.052  10.742  64.224  1.00  0.00    -0.318 OA 
ENDBRANCH  36  37
BRANCH  36  40
ATOM     40  C   SER A   1      -7.335   9.040  62.416  1.00  0.00    -0.097 C  
ATOM     41  H   SER A   1      -5.562   8.468  61.769  1.00  0.00     0.000 HD 
ATOM     42  O   SER A   1      -5.921   8.891  62.540  1.00  0.00    -0.093 OA 
ENDBRANCH  36  40
ENDBRANCH  34  36
ENDBRANCH  31  34
ENDBRANCH  18  31
ENDBRANCH   8  10
ENDBRANCH   5   8
ENDBRANCH   1   5
TORSDOF 13
ENDMDL
MODEL      163
REMARK 921   NORMALIZED FREE ENERGY PREDICTED BY IDOCK:   -2.87 KCAL/MOL
REMARK 922        TOTAL FREE ENERGY PREDICTED BY IDOCK:   -5.99 KCAL/MOL
REMARK 923 INTER-LIGAND FREE ENERGY PREDICTED BY IDOCK:   -7.38 KCAL/MOL
REMARK 924 INTRA-LIGAND FREE ENERGY PREDICTED BY IDOCK:    1.39 KCAL/MOL
REMARK 927      BINDING AFFINITY PREDICTED BY RF-SCORE:    0.00 PKD
ROOT
HETATM    1  C   UNK A   0      -7.852   8.008  64.081  1.00  0.00    -0.141 C  
HETATM    2  O   UNK A   0      -9.021   8.003  64.919  1.00  0.00    -0.381 OA 
HETATM    3  C   UNK A   0      -8.233   8.518  62.709  1.00  0.00    -0.179 C  
HETATM    4  H   UNK A   0      -8.781   7.682  65.781  1.00  0.00     0.000 HD 
ENDROOT
BRANCH   1   5
HETATM    5  C   UNK A   0      -6.850   8.949  64.727  1.00  0.00    -0.073 C  
HETATM    6  O   UNK A   0      -5.702   8.331  65.087  1.00  0.00    -0.043 OA 
HETATM    7  H   UNK A   0      -5.075   8.919  65.492  1.00  0.00     0.000 HD 
BRANCH   5   8
HETATM    8  N   UNK A   0      -7.056  10.217  64.867  1.00  0.00    -0.223 NA 
HETATM    9  H   UNK A   0      -6.617  10.882  64.230  1.00  0.00     0.000 HD 
BRANCH   8  10
HETATM   10  C   UNK A   0      -7.902  10.682  65.921  1.00  0.00    -0.150 A  
HETATM   11  C   UNK A   0      -9.137  11.321  65.662  1.00  0.00    -0.189 A  
HETATM   12  I   UNK A   0      -9.787  11.478  63.572  1.00  0.00    -0.381 I  
HETATM   13  C   UNK A   0      -9.993  11.696  66.720  1.00  0.00    -0.229 A  
HETATM   14  I   UNK A   0      -5.559   9.627  67.614  1.00  0.00    -0.035 I  
HETATM   15  C   UNK A   0      -9.721  11.177  68.019  1.00  0.00    -0.176 A  
HETATM   16  I   UNK A   0     -11.420  11.050  69.388  1.00  0.00    -0.459 I  
HETATM   17  C   UNK A   0      -7.568  10.352  67.269  1.00  0.00    -0.095 A  
HETATM   18  C   UNK A   0      -8.499  10.506  68.324  1.00  0.00    -0.123 A  
BRANCH  13  19
HETATM   19  C   UNK A   0     -11.094  12.696  66.554  1.00  0.00    -0.280 C  
HETATM   20  O   UNK A   0     -12.300  12.220  66.213  1.00  0.00    -0.556 OA 
HETATM   21  H   UNK A   0     -12.999  12.855  66.108  1.00  0.00     0.000 HD 
BRANCH  19  22
ATOM     22  N   SER A   1     -10.925  13.959  66.737  1.00  0.00    -0.296 NA 
ATOM     23  H   SER A   1     -11.010  14.619  65.964  1.00  0.00     0.000 HD 
BRANCH  22  24
ATOM     24  CA  SER A   1     -10.602  14.426  68.114  1.00  0.00    -0.236 C  
BRANCH  24  25
ATOM     25  C   SER A   1     -11.562  15.586  68.434  1.00  0.00    -0.357 C  
ATOM     26  H   SER A   1     -11.528  17.553  68.354  1.00  0.00     0.000 HD 
ATOM     27  O   SER A   1     -10.936  16.837  68.156  1.00  0.00    -0.356 OA 
ENDBRANCH  24  25
BRANCH  24  28
ATOM     28  CB  SER A   1      -9.156  14.950  68.241  1.00  0.00    -0.179 C  
ATOM     29  OG  SER A   1      -8.294  14.111  69.008  1.00  0.00    -0.326 OA 
ATOM     30  HG  SER A   1      -7.404  14.434  69.086  1.00  0.00     0.000 HD 
ENDBRANCH  24  28
ENDBRANCH  22  24
ENDBRANCH  19  22
ENDBRANCH  13  19
BRANCH  18  31
HETATM   31  C   UNK A   0      -8.258   9.937  69.701  1.00  0.00    -0.171 C  
HETATM   32  H   UNK A   0      -7.152  10.201  71.286  1.00  0.00     0.000 HD 
HETATM   33  O   UNK A   0      -7.304  10.559  70.419  1.00  0.00    -0.205 OA 
BRANCH  31  34
ATOM     34  N   SER A   1      -8.851   8.896  70.177  1.00  0.00    -0.150 NA 
ATOM     35  H   SER A   1      -9.098   8.107  69.579  1.00  0.00     0.000 HD 
BRANCH  34  36
ATOM     36  CA  SER A   1      -9.162   8.892  71.639  1.00  0.00    -0.231 C  
BRANCH  36  37
ATOM     37  CB  SER A   1     -10.585   8.356  71.817  1.00  0.00    -0.282 C  
ATOM     38  HG  SER A   1     -11.650   7.533  73.257  1.00  0.00     0.000 HD 
ATOM     39  OG  SER A   1     -10.767   7.866  73.146  1.00  0.00    -0.368 OA 
ENDBRANCH  36  37
BRANCH  36  40
ATOM     40  C   SER A   1      -8.153   7.986  72.371  1.00  0.00    -0.131 C  
ATOM     41  H   SER A   1      -6.804   8.175  73.797  1.00  0.00     0.000 HD 
ATOM     42  O   SER A   1      -7.426   8.733  73.345  1.00  0.00    -0.376 OA 
ENDBRANCH  36  40
ENDBRANCH  34  36
ENDBRANCH  31  34
ENDBRANCH  18  31
ENDBRANCH   8  10
ENDBRANCH   5   8
ENDBRANCH   1   5
TORSDOF 13
ENDMDL
MODEL      164
REMARK 921   NORMALIZED FREE ENERGY PREDICTED BY IDOCK:   -2.86 KCAL/MOL
REMARK 922        TOTAL FREE ENERGY PREDICTED BY IDOCK:   -5.97 KCAL/MOL
REMARK 923 INTER-LIGAND FREE ENERGY PREDICTED BY IDOCK:   -5.73 KCAL/MOL
REMARK 924 INTRA-LIGAND FREE ENERGY PREDICTED BY IDOCK:   -0.23 KCAL/MOL
REMARK 927      BINDING AFFINITY PREDICTED BY RF-SCORE:    0.00 PKD
ROOT
HETATM    1  C   UNK A   0     -13.438  13.943  72.253  1.00  0.00    -0.526 C  
HETATM    2  O   UNK A   0     -14.369  15.022  72.061  1.00  0.00    -0.488 OA 
HETATM    3  C   UNK A   0     -14.210  12.658  72.455  1.00  0.00     0.284 C  
HETATM    4  H   UNK A   0     -13.884  15.829  71.935  1.00  0.00     0.000 HD 
ENDROOT
BRANCH   1   5
HETATM    5  C   UNK A   0     -12.600  13.854  70.990  1.00  0.00    -0.371 C  
HETATM    6  O   UNK A   0     -13.181  14.458  69.928  1.00  0.00    -0.353 OA 
HETATM    7  H   UNK A   0     -12.657  14.403  69.137  1.00  0.00     0.000 HD 
BRANCH   5   8
HETATM    8  N   UNK A   0     -11.430  13.306  70.951  1.00  0.00     0.118 NA 
HETATM    9  H   UNK A   0     -10.883  13.203  71.806  1.00  0.00     0.000 HD 
BRANCH   8  10
HETATM   10  C   UNK A   0     -10.908  12.846  69.703  1.00  0.00     0.339 A  
HETATM   11  C   UNK A   0     -11.032  11.498  69.292  1.00  0.00    -0.208 A  
HETATM   12  I   UNK A   0     -12.167  10.136  70.584  1.00  0.00    -0.345 I  
HETATM   13  C   UNK A   0     -10.582  11.087  68.019  1.00  0.00    -0.241 A  
HETATM   14  I   UNK A   0      -9.978  15.776  69.564  1.00  0.00    -0.179 I  
HETATM   15  C   UNK A   0     -10.259  12.094  67.063  1.00  0.00    -0.207 A  
HETATM   16  I   UNK A   0     -10.393  11.515  64.960  1.00  0.00    -0.372 I  
HETATM   17  C   UNK A   0     -10.389  13.802  68.778  1.00  0.00    -0.192 A  
HETATM   18  C   UNK A   0     -10.143  13.469  67.425  1.00  0.00    -0.237 A  
BRANCH  13  19
HETATM   19  C   UNK A   0     -10.326   9.652  67.676  1.00  0.00    -0.237 C  
HETATM   20  O   UNK A   0     -11.384   8.919  67.304  1.00  0.00    -0.106 OA 
HETATM   21  H   UNK A   0     -11.221   8.009  67.086  1.00  0.00     0.000 HD 
BRANCH  19  22
ATOM     22  N   SER A   1      -9.153   9.124  67.713  1.00  0.00    -0.127 NA 
ATOM     23  H   SER A   1      -8.408   9.452  67.099  1.00  0.00     0.000 HD 
BRANCH  22  24
ATOM     24  CA  SER A   1      -8.919   8.016  68.682  1.00  0.00    -0.134 C  
BRANCH  24  25
ATOM     25  C   SER A   1      -7.662   8.383  69.491  1.00  0.00    -0.096 C  
ATOM     26  H   SER A   1      -6.630   7.617  70.982  1.00  0.00     0.000 HD 
ATOM     27  O   SER A   1      -7.406   7.391  70.482  1.00  0.00    -0.073 OA 
ENDBRANCH  24  25
BRANCH  24  28
ATOM     28  CB  SER A   1      -8.666   6.662  67.988  1.00  0.00    -0.117 C  
ATOM     29  OG  SER A   1      -7.288   6.316  67.864  1.00  0.00    -0.084 OA 
ATOM     30  HG  SER A   1      -7.132   5.481  67.437  1.00  0.00     0.000 HD 
ENDBRANCH  24  28
ENDBRANCH  22  24
ENDBRANCH  19  22
ENDBRANCH  13  19
BRANCH  18  31
HETATM   31  C   UNK A   0      -9.835  14.515  66.382  1.00  0.00    -0.290 C  
HETATM   32  H   UNK A   0     -10.711  15.665  65.072  1.00  0.00     0.000 HD 
HETATM   33  O   UNK A   0     -10.905  15.006  65.729  1.00  0.00    -0.325 OA 
BRANCH  31  34
ATOM     34  N   SER A   1      -8.647  14.898  66.058  1.00  0.00    -0.243 NA 
ATOM     35  H   SER A   1      -8.206  14.585  65.194  1.00  0.00     0.000 HD 
BRANCH  34  36
ATOM     36  CA  SER A   1      -7.944  15.821  67.000  1.00  0.00    -0.237 C  
BRANCH  36  37
ATOM     37  CB  SER A   1      -6.639  15.147  67.435  1.00  0.00    -0.056 C  
ATOM     38  HG  SER A   1      -5.494  15.114  69.038  1.00  0.00     0.000 HD 
ATOM     39  OG  SER A   1      -6.304  15.531  68.768  1.00  0.00    -0.100 OA 
ENDBRANCH  36  37
BRANCH  36  40
ATOM     40  C   SER A   1      -7.645  17.151  66.283  1.00  0.00    -0.317 C  
ATOM     41  H   SER A   1      -7.604  19.068  66.741  1.00  0.00     0.000 HD 
ATOM     42  O   SER A   1      -7.788  18.248  67.184  1.00  0.00    -0.213 OA 
ENDBRANCH  36  40
ENDBRANCH  34  36
ENDBRANCH  31  34
ENDBRANCH  18  31
ENDBRANCH   8  10
ENDBRANCH   5   8
ENDBRANCH   1   5
TORSDOF 13
ENDMDL
MODEL      165
REMARK 921   NORMALIZED FREE ENERGY PREDICTED BY IDOCK:   -2.86 KCAL/MOL
REMARK 922        TOTAL FREE ENERGY PREDICTED BY IDOCK:   -5.96 KCAL/MOL
REMARK 923 INTER-LIGAND FREE ENERGY PREDICTED BY IDOCK:   -7.78 KCAL/MOL
REMARK 924 INTRA-LIGAND FREE ENERGY PREDICTED BY IDOCK:    1.82 KCAL/MOL
REMARK 927      BINDING AFFINITY PREDICTED BY RF-SCORE:    0.00 PKD
ROOT
HETATM    1  C   UNK A   0     -12.255  15.144  64.614  1.00  0.00    -0.211 C  
HETATM    2  O   UNK A   0     -11.657  16.234  63.891  1.00  0.00    -1.489 OA 
HETATM    3  C   UNK A   0     -12.475  13.987  63.664  1.00  0.00     0.028 C  
HETATM    4  H   UNK A   0     -11.519  16.961  64.487  1.00  0.00     0.000 HD 
ENDROOT
BRANCH   1   5
HETATM    5  C   UNK A   0     -11.273  14.745  65.702  1.00  0.00    -0.343 C  
HETATM    6  O   UNK A   0     -11.874  14.489  66.887  1.00  0.00    -0.392 OA 
HETATM    7  H   UNK A   0     -11.260  14.240  67.568  1.00  0.00     0.000 HD 
BRANCH   5   8
HETATM    8  N   UNK A   0     -10.004  14.614  65.499  1.00  0.00    -0.413 NA 
HETATM    9  H   UNK A   0      -9.621  14.715  64.559  1.00  0.00     0.000 HD 
BRANCH   8  10
HETATM   10  C   UNK A   0      -9.140  14.324  66.599  1.00  0.00    -0.226 A  
HETATM   11  C   UNK A   0      -8.982  13.011  67.101  1.00  0.00    -0.223 A  
HETATM   12  I   UNK A   0     -10.021  11.386  66.056  1.00  0.00    -0.313 I  
HETATM   13  C   UNK A   0      -8.060  12.739  68.134  1.00  0.00    -0.158 A  
HETATM   14  I   UNK A   0      -8.775  17.378  66.490  1.00  0.00    -0.231 I  
HETATM   15  C   UNK A   0      -7.106  13.745  68.467  1.00  0.00    -0.106 A  
HETATM   16  I   UNK A   0      -5.250  13.056  69.391  1.00  0.00    -0.084 I  
HETATM   17  C   UNK A   0      -8.295  15.359  67.103  1.00  0.00    -0.219 A  
HETATM   18  C   UNK A   0      -7.211  15.078  67.968  1.00  0.00    -0.140 A  
BRANCH  13  19
HETATM   19  C   UNK A   0      -8.117  11.492  68.962  1.00  0.00     0.042 C  
HETATM   20  O   UNK A   0      -7.318  11.440  70.037  1.00  0.00    -0.359 OA 
HETATM   21  H   UNK A   0      -7.354  10.649  70.562  1.00  0.00     0.000 HD 
BRANCH  19  22
ATOM     22  N   SER A   1      -8.895  10.505  68.686  1.00  0.00    -0.139 NA 
ATOM     23  H   SER A   1      -9.141  10.282  67.722  1.00  0.00     0.000 HD 
BRANCH  22  24
ATOM     24  CA  SER A   1      -9.428   9.701  69.821  1.00  0.00    -0.220 C  
BRANCH  24  25
ATOM     25  C   SER A   1      -9.019   8.238  69.568  1.00  0.00    -0.150 C  
ATOM     26  H   SER A   1      -9.793   6.451  69.858  1.00  0.00     0.000 HD 
ATOM     27  O   SER A   1     -10.045   7.354  70.014  1.00  0.00    -0.187 OA 
ENDBRANCH  24  25
BRANCH  24  28
ATOM     28  CB  SER A   1     -10.966   9.759  69.922  1.00  0.00    -0.264 C  
ATOM     29  OG  SER A   1     -11.465   9.798  71.258  1.00  0.00    -0.353 OA 
ATOM     30  HG  SER A   1     -12.412   9.834  71.320  1.00  0.00     0.000 HD 
ENDBRANCH  24  28
ENDBRANCH  22  24
ENDBRANCH  19  22
ENDBRANCH  13  19
BRANCH  18  31
HETATM   31  C   UNK A   0      -6.164  16.110  68.311  1.00  0.00    -0.118 C  
HETATM   32  H   UNK A   0      -4.530  16.913  67.610  1.00  0.00     0.000 HD 
HETATM   33  O   UNK A   0      -5.189  16.263  67.395  1.00  0.00    -0.147 OA 
BRANCH  31  34
ATOM     34  N   SER A   1      -6.127  16.777  69.413  1.00  0.00    -0.198 NA 
ATOM     35  H   SER A   1      -6.076  16.307  70.316  1.00  0.00     0.000 HD 
BRANCH  34  36
ATOM     36  CA  SER A   1      -6.163  18.268  69.314  1.00  0.00    -0.252 C  
BRANCH  36  37
ATOM     37  CB  SER A   1      -5.392  18.839  70.507  1.00  0.00    -0.234 C  
ATOM     38  HG  SER A   1      -5.496  20.428  71.669  1.00  0.00     0.000 HD 
ATOM     39  OG  SER A   1      -5.974  20.073  70.928  1.00  0.00    -0.317 OA 
ENDBRANCH  36  37
BRANCH  36  40
ATOM     40  C   SER A   1      -5.503  18.706  67.992  1.00  0.00    -0.177 C  
ATOM     41  H   SER A   1      -5.501  20.299  66.831  1.00  0.00     0.000 HD 
ATOM     42  O   SER A   1      -5.908  20.029  67.645  1.00  0.00    -0.188 OA 
ENDBRANCH  36  40
ENDBRANCH  34  36
ENDBRANCH  31  34
ENDBRANCH  18  31
ENDBRANCH   8  10
ENDBRANCH   5   8
ENDBRANCH   1   5
TORSDOF 13
ENDMDL
MODEL      166
REMARK 921   NORMALIZED FREE ENERGY PREDICTED BY IDOCK:   -2.86 KCAL/MOL
REMARK 922        TOTAL FREE ENERGY PREDICTED BY IDOCK:   -5.96 KCAL/MOL
REMARK 923 INTER-LIGAND FREE ENERGY PREDICTED BY IDOCK:   -8.67 KCAL/MOL
REMARK 924 INTRA-LIGAND FREE ENERGY PREDICTED BY IDOCK:    2.71 KCAL/MOL
REMARK 927      BINDING AFFINITY PREDICTED BY RF-SCORE:    0.00 PKD
ROOT
HETATM    1  C   UNK A   0      -9.715  10.275  64.767  1.00  0.00    -0.332 C  
HETATM    2  O   UNK A   0     -10.507   9.866  65.896  1.00  0.00    -0.158 OA 
HETATM    3  C   UNK A   0     -10.481  11.316  63.981  1.00  0.00    -0.440 C  
HETATM    4  H   UNK A   0     -10.026   9.212  66.389  1.00  0.00     0.000 HD 
ENDROOT
BRANCH   1   5
HETATM    5  C   UNK A   0      -8.436  10.879  65.323  1.00  0.00    -0.060 C  
HETATM    6  O   UNK A   0      -7.320  10.352  64.768  1.00  0.00    -0.250 OA 
HETATM    7  H   UNK A   0      -6.520  10.729  65.115  1.00  0.00     0.000 HD 
BRANCH   5   8
HETATM    8  N   UNK A   0      -8.422  11.833  66.194  1.00  0.00    -0.385 NA 
HETATM    9  H   UNK A   0      -7.924  12.701  65.997  1.00  0.00     0.000 HD 
BRANCH   8  10
HETATM   10  C   UNK A   0      -9.109  11.664  67.435  1.00  0.00    -0.169 A  
HETATM   11  C   UNK A   0     -10.226  12.458  67.786  1.00  0.00    -0.211 A  
HETATM   12  I   UNK A   0     -10.962  13.898  66.304  1.00  0.00    -0.323 I  
HETATM   13  C   UNK A   0     -10.938  12.216  68.981  1.00  0.00    -0.255 A  
HETATM   14  I   UNK A   0      -6.891   9.567  67.822  1.00  0.00    -0.080 I  
HETATM   15  C   UNK A   0     -10.685  10.999  69.679  1.00  0.00    -0.139 A  
HETATM   16  I   UNK A   0     -12.294  10.261  70.960  1.00  0.00    -0.538 I  
HETATM   17  C   UNK A   0      -8.759  10.562  68.273  1.00  0.00    -0.135 A  
HETATM   18  C   UNK A   0      -9.583  10.154  69.348  1.00  0.00    -0.249 A  
BRANCH  13  19
HETATM   19  C   UNK A   0     -11.855  13.227  69.596  1.00  0.00    -0.327 C  
HETATM   20  O   UNK A   0     -12.054  13.141  70.918  1.00  0.00    -0.464 OA 
HETATM   21  H   UNK A   0     -12.636  13.783  71.308  1.00  0.00     0.000 HD 
BRANCH  19  22
ATOM     22  N   SER A   1     -12.430  14.155  68.914  1.00  0.00    -0.490 NA 
ATOM     23  H   SER A   1     -12.885  13.949  68.025  1.00  0.00     0.000 HD 
BRANCH  22  24
ATOM     24  CA  SER A   1     -12.408  15.538  69.465  1.00  0.00    -0.153 C  
BRANCH  24  25
ATOM     25  C   SER A   1     -10.931  15.913  69.686  1.00  0.00    -0.319 C  
ATOM     26  H   SER A   1      -9.677  17.284  69.037  1.00  0.00     0.000 HD 
ATOM     27  O   SER A   1     -10.588  17.053  68.901  1.00  0.00    -0.325 OA 
ENDBRANCH  24  25
BRANCH  24  28
ATOM     28  CB  SER A   1     -13.141  15.652  70.818  1.00  0.00    -0.292 C  
ATOM     29  OG  SER A   1     -12.316  16.086  71.897  1.00  0.00    -0.447 OA 
ATOM     30  HG  SER A   1     -12.767  16.156  72.730  1.00  0.00     0.000 HD 
ENDBRANCH  24  28
ENDBRANCH  22  24
ENDBRANCH  19  22
ENDBRANCH  13  19
BRANCH  18  31
HETATM   31  C   UNK A   0      -9.364   8.854  70.083  1.00  0.00    -0.180 C  
HETATM   32  H   UNK A   0      -8.868   8.162  71.839  1.00  0.00     0.000 HD 
HETATM   33  O   UNK A   0      -9.006   8.980  71.376  1.00  0.00    -0.227 OA 
BRANCH  31  34
ATOM     34  N   SER A   1      -9.440   7.686  69.544  1.00  0.00    -0.153 NA 
ATOM     35  H   SER A   1      -8.607   7.199  69.215  1.00  0.00     0.000 HD 
BRANCH  34  36
ATOM     36  CA  SER A   1     -10.798   7.074  69.421  1.00  0.00    -0.227 C  
BRANCH  36  37
ATOM     37  CB  SER A   1     -10.844   6.287  68.108  1.00  0.00    -0.320 C  
ATOM     38  HG  SER A   1     -11.035   6.687  66.188  1.00  0.00     0.000 HD 
ATOM     39  OG  SER A   1     -11.006   7.176  67.003  1.00  0.00    -0.369 OA 
ENDBRANCH  36  37
BRANCH  36  40
ATOM     40  C   SER A   1     -11.044   6.135  70.617  1.00  0.00    -0.317 C  
ATOM     41  H   SER A   1     -12.333   5.985  72.102  1.00  0.00     0.000 HD 
ATOM     42  O   SER A   1     -12.181   6.564  71.364  1.00  0.00    -0.338 OA 
ENDBRANCH  36  40
ENDBRANCH  34  36
ENDBRANCH  31  34
ENDBRANCH  18  31
ENDBRANCH   8  10
ENDBRANCH   5   8
ENDBRANCH   1   5
TORSDOF 13
ENDMDL
MODEL      167
REMARK 921   NORMALIZED FREE ENERGY PREDICTED BY IDOCK:   -2.85 KCAL/MOL
REMARK 922        TOTAL FREE ENERGY PREDICTED BY IDOCK:   -5.95 KCAL/MOL
REMARK 923 INTER-LIGAND FREE ENERGY PREDICTED BY IDOCK:   -5.16 KCAL/MOL
REMARK 924 INTRA-LIGAND FREE ENERGY PREDICTED BY IDOCK:   -0.79 KCAL/MOL
REMARK 927      BINDING AFFINITY PREDICTED BY RF-SCORE:    0.00 PKD
ROOT
HETATM    1  C   UNK A   0     -11.098   6.238  72.629  1.00  0.00    -0.263 C  
HETATM    2  O   UNK A   0     -12.466   6.682  72.629  1.00  0.00    -0.456 OA 
HETATM    3  C   UNK A   0     -11.033   4.845  73.215  1.00  0.00    -0.390 C  
HETATM    4  H   UNK A   0     -12.507   7.557  72.261  1.00  0.00     0.000 HD 
ENDROOT
BRANCH   1   5
HETATM    5  C   UNK A   0     -10.644   6.214  71.179  1.00  0.00    -0.246 C  
HETATM    6  O   UNK A   0     -11.603   6.628  70.319  1.00  0.00    -0.370 OA 
HETATM    7  H   UNK A   0     -11.319   6.613  69.412  1.00  0.00     0.000 HD 
BRANCH   5   8
HETATM    8  N   UNK A   0      -9.448   5.885  70.816  1.00  0.00    -0.163 NA 
HETATM    9  H   UNK A   0      -8.921   5.195  71.350  1.00  0.00     0.000 HD 
BRANCH   8  10
HETATM   10  C   UNK A   0      -8.870   6.495  69.660  1.00  0.00    -0.138 A  
HETATM   11  C   UNK A   0      -8.903   5.873  68.390  1.00  0.00    -0.111 A  
HETATM   12  I   UNK A   0      -9.986   3.973  68.211  1.00  0.00     0.629 I  
HETATM   13  C   UNK A   0      -8.399   6.532  67.249  1.00  0.00    -0.113 A  
HETATM   14  I   UNK A   0      -8.112   8.617  71.755  1.00  0.00     0.026 I  
HETATM   15  C   UNK A   0      -8.114   7.925  67.349  1.00  0.00    -0.123 A  
HETATM   16  I   UNK A   0      -8.163   9.063  65.484  1.00  0.00    -0.164 I  
HETATM   17  C   UNK A   0      -8.386   7.835  69.757  1.00  0.00    -0.131 A  
HETATM   18  C   UNK A   0      -8.089   8.602  68.605  1.00  0.00    -0.117 A  
BRANCH  13  19
HETATM   19  C   UNK A   0      -8.050   5.810  65.985  1.00  0.00    -0.110 C  
HETATM   20  O   UNK A   0      -6.760   5.495  65.802  1.00  0.00    -0.052 OA 
HETATM   21  H   UNK A   0      -6.539   5.036  65.000  1.00  0.00     0.000 HD 
BRANCH  19  22
ATOM     22  N   SER A   1      -8.927   5.482  65.102  1.00  0.00    -0.324 NA 
ATOM     23  H   SER A   1      -9.762   6.049  64.953  1.00  0.00     0.000 HD 
BRANCH  22  24
ATOM     24  CA  SER A   1      -8.685   4.248  64.304  1.00  0.00    -0.136 C  
BRANCH  24  25
ATOM     25  C   SER A   1      -8.349   4.696  62.870  1.00  0.00    -0.101 C  
ATOM     26  H   SER A   1      -6.755   5.287  61.877  1.00  0.00     0.000 HD 
ATOM     27  O   SER A   1      -6.962   5.010  62.762  1.00  0.00    -0.033 OA 
ENDBRANCH  24  25
BRANCH  24  28
ATOM     28  CB  SER A   1      -9.921   3.326  64.243  1.00  0.00    -0.166 C  
ATOM     29  OG  SER A   1      -9.613   1.946  64.056  1.00  0.00    -0.128 OA 
ATOM     30  HG  SER A   1     -10.374   1.379  64.018  1.00  0.00     0.000 HD 
ENDBRANCH  24  28
ENDBRANCH  22  24
ENDBRANCH  19  22
ENDBRANCH  13  19
BRANCH  18  31
HETATM   31  C   UNK A   0      -7.818  10.085  68.673  1.00  0.00    -0.091 C  
HETATM   32  H   UNK A   0      -6.382  11.384  68.436  1.00  0.00     0.000 HD 
HETATM   33  O   UNK A   0      -6.553  10.450  68.393  1.00  0.00    -0.059 OA 
BRANCH  31  34
ATOM     34  N   SER A   1      -8.684  10.972  69.029  1.00  0.00    -0.337 NA 
ATOM     35  H   SER A   1      -8.765  11.274  70.000  1.00  0.00     0.000 HD 
BRANCH  34  36
ATOM     36  CA  SER A   1      -9.563  11.539  67.962  1.00  0.00    -0.180 C  
BRANCH  36  37
ATOM     37  CB  SER A   1     -11.003  11.530  68.482  1.00  0.00    -0.223 C  
ATOM     38  HG  SER A   1     -12.816  11.645  67.719  1.00  0.00     0.000 HD 
ATOM     39  OG  SER A   1     -11.922  11.650  67.397  1.00  0.00    -0.621 OA 
ENDBRANCH  36  37
BRANCH  36  40
ATOM     40  C   SER A   1      -9.117  12.980  67.647  1.00  0.00    -0.198 C  
ATOM     41  H   SER A   1      -9.264  14.248  66.145  1.00  0.00     0.000 HD 
ATOM     42  O   SER A   1      -9.539  13.360  66.339  1.00  0.00    -0.269 OA 
ENDBRANCH  36  40
ENDBRANCH  34  36
ENDBRANCH  31  34
ENDBRANCH  18  31
ENDBRANCH   8  10
ENDBRANCH   5   8
ENDBRANCH   1   5
TORSDOF 13
ENDMDL
MODEL      168
REMARK 921   NORMALIZED FREE ENERGY PREDICTED BY IDOCK:   -2.84 KCAL/MOL
REMARK 922        TOTAL FREE ENERGY PREDICTED BY IDOCK:   -5.93 KCAL/MOL
REMARK 923 INTER-LIGAND FREE ENERGY PREDICTED BY IDOCK:   -8.31 KCAL/MOL
REMARK 924 INTRA-LIGAND FREE ENERGY PREDICTED BY IDOCK:    2.38 KCAL/MOL
REMARK 927      BINDING AFFINITY PREDICTED BY RF-SCORE:    0.00 PKD
ROOT
HETATM    1  C   UNK A   0     -13.007  14.036  72.287  1.00  0.00    -0.373 C  
HETATM    2  O   UNK A   0     -13.393  15.362  72.690  1.00  0.00    -0.413 OA 
HETATM    3  C   UNK A   0     -14.232  13.149  72.275  1.00  0.00    -0.237 C  
HETATM    4  H   UNK A   0     -12.624  15.918  72.698  1.00  0.00     0.000 HD 
ENDROOT
BRANCH   1   5
HETATM    5  C   UNK A   0     -12.433  14.151  70.885  1.00  0.00    -0.365 C  
HETATM    6  O   UNK A   0     -13.327  14.624  69.987  1.00  0.00    -0.416 OA 
HETATM    7  H   UNK A   0     -12.968  14.696  69.110  1.00  0.00     0.000 HD 
BRANCH   5   8
HETATM    8  N   UNK A   0     -11.203  13.877  70.597  1.00  0.00    -0.287 NA 
HETATM    9  H   UNK A   0     -10.504  13.816  71.337  1.00  0.00     0.000 HD 
BRANCH   8  10
HETATM   10  C   UNK A   0     -10.829  13.662  69.235  1.00  0.00    -0.082 A  
HETATM   11  C   UNK A   0     -10.841  12.374  68.651  1.00  0.00    -0.240 A  
HETATM   12  I   UNK A   0     -11.572  10.705  69.872  1.00  0.00    -0.438 I  
HETATM   13  C   UNK A   0     -10.548  12.199  67.281  1.00  0.00    -0.255 A  
HETATM   14  I   UNK A   0     -10.320  16.692  69.402  1.00  0.00    -0.114 I  
HETATM   15  C   UNK A   0     -10.513  13.356  66.448  1.00  0.00    -0.286 A  
HETATM   16  I   UNK A   0     -10.901  13.034  64.322  1.00  0.00    -0.364 I  
HETATM   17  C   UNK A   0     -10.591  14.795  68.398  1.00  0.00    -0.242 A  
HETATM   18  C   UNK A   0     -10.521  14.676  66.990  1.00  0.00    -0.269 A  
BRANCH  13  19
HETATM   19  C   UNK A   0     -10.165  10.874  66.698  1.00  0.00    -0.234 C  
HETATM   20  O   UNK A   0      -9.149  10.866  65.824  1.00  0.00    -0.183 OA 
HETATM   21  H   UNK A   0      -8.907  10.026  65.454  1.00  0.00     0.000 HD 
BRANCH  19  22
ATOM     22  N   SER A   1     -10.758   9.776  67.011  1.00  0.00    -0.207 NA 
ATOM     23  H   SER A   1     -11.749   9.762  67.251  1.00  0.00     0.000 HD 
BRANCH  22  24
ATOM     24  CA  SER A   1      -9.949   8.525  67.013  1.00  0.00    -0.250 C  
BRANCH  24  25
ATOM     25  C   SER A   1     -10.908   7.368  67.350  1.00  0.00    -0.229 C  
ATOM     26  H   SER A   1     -11.370   6.290  68.931  1.00  0.00     0.000 HD 
ATOM     27  O   SER A   1     -10.779   7.004  68.723  1.00  0.00    -0.215 OA 
ENDBRANCH  24  25
BRANCH  24  28
ATOM     28  CB  SER A   1      -8.826   8.542  68.071  1.00  0.00    -0.142 C  
ATOM     29  OG  SER A   1      -7.510   8.457  67.529  1.00  0.00    -0.091 OA 
ATOM     30  HG  SER A   1      -6.819   8.468  68.180  1.00  0.00     0.000 HD 
ENDBRANCH  24  28
ENDBRANCH  22  24
ENDBRANCH  19  22
ENDBRANCH  13  19
BRANCH  18  31
HETATM   31  C   UNK A   0     -10.519  15.880  66.080  1.00  0.00    -0.345 C  
HETATM   32  H   UNK A   0     -10.421  16.361  64.192  1.00  0.00     0.000 HD 
HETATM   33  O   UNK A   0     -10.422  15.604  64.765  1.00  0.00    -0.446 OA 
BRANCH  31  34
ATOM     34  N   SER A   1     -10.543  17.103  66.484  1.00  0.00    -0.230 NA 
ATOM     35  H   SER A   1     -11.116  17.388  67.278  1.00  0.00     0.000 HD 
BRANCH  34  36
ATOM     36  CA  SER A   1      -9.698  18.088  65.742  1.00  0.00     0.200 C  
BRANCH  36  37
ATOM     37  CB  SER A   1     -10.340  19.470  65.893  1.00  0.00    -0.470 C  
ATOM     38  HG  SER A   1     -10.410  20.889  67.258  1.00  0.00     0.000 HD 
ATOM     39  OG  SER A   1     -10.011  20.032  67.164  1.00  0.00    -0.386 OA 
ENDBRANCH  36  37
BRANCH  36  40
ATOM     40  C   SER A   1      -8.277  18.090  66.338  1.00  0.00    -0.255 C  
ATOM     41  H   SER A   1      -6.428  18.263  65.676  1.00  0.00     0.000 HD 
ATOM     42  O   SER A   1      -7.304  18.261  65.309  1.00  0.00    -0.447 OA 
ENDBRANCH  36  40
ENDBRANCH  34  36
ENDBRANCH  31  34
ENDBRANCH  18  31
ENDBRANCH   8  10
ENDBRANCH   5   8
ENDBRANCH   1   5
TORSDOF 13
ENDMDL
MODEL      169
REMARK 921   NORMALIZED FREE ENERGY PREDICTED BY IDOCK:   -2.84 KCAL/MOL
REMARK 922        TOTAL FREE ENERGY PREDICTED BY IDOCK:   -5.93 KCAL/MOL
REMARK 923 INTER-LIGAND FREE ENERGY PREDICTED BY IDOCK:   -6.96 KCAL/MOL
REMARK 924 INTRA-LIGAND FREE ENERGY PREDICTED BY IDOCK:    1.03 KCAL/MOL
REMARK 927      BINDING AFFINITY PREDICTED BY RF-SCORE:    0.00 PKD
ROOT
HETATM    1  C   UNK A   0     -11.785  14.500  66.064  1.00  0.00    -0.345 C  
HETATM    2  O   UNK A   0     -12.205  14.508  67.440  1.00  0.00    -0.589 OA 
HETATM    3  C   UNK A   0     -10.275  14.576  66.011  1.00  0.00    -0.329 C  
HETATM    4  H   UNK A   0     -13.153  14.461  67.473  1.00  0.00     0.000 HD 
ENDROOT
BRANCH   1   5
HETATM    5  C   UNK A   0     -12.262  13.188  65.466  1.00  0.00    -0.461 C  
HETATM    6  O   UNK A   0     -12.762  13.328  64.217  1.00  0.00    -0.642 OA 
HETATM    7  H   UNK A   0     -13.061  12.508  63.842  1.00  0.00     0.000 HD 
BRANCH   5   8
HETATM    8  N   UNK A   0     -12.150  12.051  66.069  1.00  0.00    -0.502 NA 
HETATM    9  H   UNK A   0     -12.983  11.522  66.328  1.00  0.00     0.000 HD 
BRANCH   8  10
HETATM   10  C   UNK A   0     -10.851  11.539  66.373  1.00  0.00    -0.285 A  
HETATM   11  C   UNK A   0     -10.412  11.353  67.705  1.00  0.00    -0.194 A  
HETATM   12  I   UNK A   0     -11.841  11.764  69.317  1.00  0.00    -0.312 I  
HETATM   13  C   UNK A   0      -9.157  10.768  67.977  1.00  0.00    -0.150 A  
HETATM   14  I   UNK A   0     -10.636  11.613  63.304  1.00  0.00    -0.130 I  
HETATM   15  C   UNK A   0      -8.469  10.124  66.907  1.00  0.00    -0.126 A  
HETATM   16  I   UNK A   0      -7.043   8.566  67.467  1.00  0.00    -0.081 I  
HETATM   17  C   UNK A   0     -10.034  11.054  65.306  1.00  0.00    -0.266 A  
HETATM   18  C   UNK A   0      -8.886  10.264  65.549  1.00  0.00    -0.191 A  
BRANCH  13  19
HETATM   19  C   UNK A   0      -8.475  10.894  69.304  1.00  0.00     0.007 C  
HETATM   20  O   UNK A   0      -8.870  10.055  70.271  1.00  0.00    -0.342 OA 
HETATM   21  H   UNK A   0      -8.437  10.136  71.113  1.00  0.00     0.000 HD 
BRANCH  19  22
ATOM     22  N   SER A   1      -7.542  11.751  69.531  1.00  0.00    -0.309 NA 
ATOM     23  H   SER A   1      -6.867  11.607  70.283  1.00  0.00     0.000 HD 
BRANCH  22  24
ATOM     24  CA  SER A   1      -7.478  12.959  68.662  1.00  0.00    -0.092 C  
BRANCH  24  25
ATOM     25  C   SER A   1      -6.064  13.003  68.054  1.00  0.00    -0.112 C  
ATOM     26  H   SER A   1      -5.025  14.214  66.901  1.00  0.00     0.000 HD 
ATOM     27  O   SER A   1      -5.898  14.187  67.276  1.00  0.00    -0.299 OA 
ENDBRANCH  24  25
BRANCH  24  28
ATOM     28  CB  SER A   1      -7.707  14.269  69.445  1.00  0.00     0.126 C  
ATOM     29  OG  SER A   1      -9.045  14.759  69.389  1.00  0.00    -0.388 OA 
ATOM     30  HG  SER A   1      -9.185  15.565  69.871  1.00  0.00     0.000 HD 
ENDBRANCH  24  28
ENDBRANCH  22  24
ENDBRANCH  19  22
ENDBRANCH  13  19
BRANCH  18  31
HETATM   31  C   UNK A   0      -8.157   9.540  64.444  1.00  0.00    -0.141 C  
HETATM   32  H   UNK A   0      -6.710   9.784  63.158  1.00  0.00     0.000 HD 
HETATM   33  O   UNK A   0      -7.169  10.240  63.854  1.00  0.00    -0.127 OA 
BRANCH  31  34
ATOM     34  N   SER A   1      -8.461   8.363  64.015  1.00  0.00    -0.384 NA 
ATOM     35  H   SER A   1      -9.362   7.936  64.230  1.00  0.00     0.000 HD 
BRANCH  34  36
ATOM     36  CA  SER A   1      -7.439   7.648  63.191  1.00  0.00    -0.112 C  
BRANCH  36  37
ATOM     37  CB  SER A   1      -6.237   7.342  64.090  1.00  0.00    -0.044 C  
ATOM     38  HG  SER A   1      -4.738   6.064  64.114  1.00  0.00     0.000 HD 
ATOM     39  OG  SER A   1      -5.484   6.254  63.556  1.00  0.00    -0.018 OA 
ENDBRANCH  36  37
BRANCH  36  40
ATOM     40  C   SER A   1      -8.046   6.341  62.648  1.00  0.00    -0.081 C  
ATOM     41  H   SER A   1      -9.028   4.790  63.367  1.00  0.00     0.000 HD 
ATOM     42  O   SER A   1      -8.653   5.595  63.702  1.00  0.00    -0.042 OA 
ENDBRANCH  36  40
ENDBRANCH  34  36
ENDBRANCH  31  34
ENDBRANCH  18  31
ENDBRANCH   8  10
ENDBRANCH   5   8
ENDBRANCH   1   5
TORSDOF 13
ENDMDL
MODEL      170
REMARK 921   NORMALIZED FREE ENERGY PREDICTED BY IDOCK:   -2.84 KCAL/MOL
REMARK 922        TOTAL FREE ENERGY PREDICTED BY IDOCK:   -5.92 KCAL/MOL
REMARK 923 INTER-LIGAND FREE ENERGY PREDICTED BY IDOCK:   -6.84 KCAL/MOL
REMARK 924 INTRA-LIGAND FREE ENERGY PREDICTED BY IDOCK:    0.92 KCAL/MOL
REMARK 927      BINDING AFFINITY PREDICTED BY RF-SCORE:    0.00 PKD
ROOT
HETATM    1  C   UNK A   0      -8.784   5.817  64.817  1.00  0.00     0.036 C  
HETATM    2  O   UNK A   0      -8.627   5.859  63.387  1.00  0.00    -0.331 OA 
HETATM    3  C   UNK A   0      -9.127   4.404  65.233  1.00  0.00    -0.146 C  
HETATM    4  H   UNK A   0      -8.412   6.746  63.126  1.00  0.00     0.000 HD 
ENDROOT
BRANCH   1   5
HETATM    5  C   UNK A   0      -7.450   6.229  65.417  1.00  0.00    -0.083 C  
HETATM    6  O   UNK A   0      -6.427   5.438  65.020  1.00  0.00    -0.037 OA 
HETATM    7  H   UNK A   0      -5.593   5.695  65.396  1.00  0.00     0.000 HD 
BRANCH   5   8
HETATM    8  N   UNK A   0      -7.305   7.259  66.183  1.00  0.00    -0.074 NA 
HETATM    9  H   UNK A   0      -6.414   7.755  66.213  1.00  0.00     0.000 HD 
BRANCH   8  10
HETATM   10  C   UNK A   0      -8.400   7.699  66.988  1.00  0.00    -0.124 A  
HETATM   11  C   UNK A   0      -8.815   6.990  68.140  1.00  0.00    -0.129 A  
HETATM   12  I   UNK A   0      -7.641   5.235  68.736  1.00  0.00    -0.084 I  
HETATM   13  C   UNK A   0      -9.845   7.490  68.964  1.00  0.00    -0.170 A  
HETATM   14  I   UNK A   0      -8.506   9.864  64.804  1.00  0.00    -0.243 I  
HETATM   15  C   UNK A   0     -10.264   8.839  68.773  1.00  0.00    -0.206 A  
HETATM   16  I   UNK A   0     -11.176   9.826  70.496  1.00  0.00    -0.439 I  
HETATM   17  C   UNK A   0      -8.990   8.971  66.715  1.00  0.00    -0.135 A  
HETATM   18  C   UNK A   0      -9.856   9.603  67.639  1.00  0.00    -0.202 A  
BRANCH  13  19
HETATM   19  C   UNK A   0     -10.585   6.634  69.945  1.00  0.00    -0.226 C  
HETATM   20  O   UNK A   0     -11.876   6.387  69.683  1.00  0.00    -0.594 OA 
HETATM   21  H   UNK A   0     -12.345   5.843  70.305  1.00  0.00     0.000 HD 
BRANCH  19  22
ATOM     22  N   SER A   1     -10.030   6.133  70.993  1.00  0.00    -0.182 NA 
ATOM     23  H   SER A   1      -9.104   5.708  70.946  1.00  0.00     0.000 HD 
BRANCH  22  24
ATOM     24  CA  SER A   1     -10.784   6.192  72.276  1.00  0.00    -0.229 C  
BRANCH  24  25
ATOM     25  C   SER A   1     -10.135   7.296  73.130  1.00  0.00    -0.273 C  
ATOM     26  H   SER A   1      -8.329   7.758  73.762  1.00  0.00     0.000 HD 
ATOM     27  O   SER A   1      -8.730   7.077  73.235  1.00  0.00    -0.122 OA 
ENDBRANCH  24  25
BRANCH  24  28
ATOM     28  CB  SER A   1     -10.718   4.870  73.068  1.00  0.00    -0.244 C  
ATOM     29  OG  SER A   1     -11.990   4.280  73.331  1.00  0.00    -0.093 OA 
ATOM     30  HG  SER A   1     -11.948   3.466  73.819  1.00  0.00     0.000 HD 
ENDBRANCH  24  28
ENDBRANCH  22  24
ENDBRANCH  19  22
ENDBRANCH  13  19
BRANCH  18  31
HETATM   31  C   UNK A   0     -10.288  11.040  67.484  1.00  0.00    -0.198 C  
HETATM   32  H   UNK A   0      -9.583  12.858  67.548  1.00  0.00     0.000 HD 
HETATM   33  O   UNK A   0      -9.311  11.953  67.645  1.00  0.00    -0.175 OA 
BRANCH  31  34
ATOM     34  N   SER A   1     -11.502  11.421  67.275  1.00  0.00    -0.504 NA 
ATOM     35  H   SER A   1     -12.161  10.834  66.764  1.00  0.00     0.000 HD 
BRANCH  34  36
ATOM     36  CA  SER A   1     -11.904  12.757  67.811  1.00  0.00    -0.332 C  
BRANCH  36  37
ATOM     37  CB  SER A   1     -11.071  13.031  69.067  1.00  0.00    -0.231 C  
ATOM     38  HG  SER A   1     -10.261  14.595  69.950  1.00  0.00     0.000 HD 
ATOM     39  OG  SER A   1     -10.778  14.425  69.172  1.00  0.00    -0.248 OA 
ENDBRANCH  36  37
BRANCH  36  40
ATOM     40  C   SER A   1     -11.635  13.835  66.745  1.00  0.00    -0.370 C  
ATOM     41  H   SER A   1     -12.257  14.259  64.922  1.00  0.00     0.000 HD 
ATOM     42  O   SER A   1     -12.422  13.594  65.580  1.00  0.00    -0.450 OA 
ENDBRANCH  36  40
ENDBRANCH  34  36
ENDBRANCH  31  34
ENDBRANCH  18  31
ENDBRANCH   8  10
ENDBRANCH   5   8
ENDBRANCH   1   5
TORSDOF 13
ENDMDL
MODEL      171
REMARK 921   NORMALIZED FREE ENERGY PREDICTED BY IDOCK:   -2.81 KCAL/MOL
REMARK 922        TOTAL FREE ENERGY PREDICTED BY IDOCK:   -5.87 KCAL/MOL
REMARK 923 INTER-LIGAND FREE ENERGY PREDICTED BY IDOCK:   -6.33 KCAL/MOL
REMARK 924 INTRA-LIGAND FREE ENERGY PREDICTED BY IDOCK:    0.46 KCAL/MOL
REMARK 927      BINDING AFFINITY PREDICTED BY RF-SCORE:    0.00 PKD
ROOT
HETATM    1  C   UNK A   0     -10.315  17.037  67.698  1.00  0.00    -0.332 C  
HETATM    2  O   UNK A   0     -11.349  17.891  67.178  1.00  0.00     0.243 OA 
HETATM    3  C   UNK A   0      -9.579  17.770  68.798  1.00  0.00    -0.290 C  
HETATM    4  H   UNK A   0     -11.810  17.431  66.487  1.00  0.00     0.000 HD 
ENDROOT
BRANCH   1   5
HETATM    5  C   UNK A   0     -11.004  15.806  68.262  1.00  0.00    -0.325 C  
HETATM    6  O   UNK A   0     -12.132  15.479  67.591  1.00  0.00    -0.201 OA 
HETATM    7  H   UNK A   0     -12.563  14.710  67.943  1.00  0.00     0.000 HD 
BRANCH   5   8
HETATM    8  N   UNK A   0     -10.529  15.115  69.245  1.00  0.00    -0.250 NA 
HETATM    9  H   UNK A   0     -10.285  15.572  70.124  1.00  0.00     0.000 HD 
BRANCH   8  10
HETATM   10  C   UNK A   0     -10.346  13.706  69.093  1.00  0.00     0.063 A  
HETATM   11  C   UNK A   0     -11.151  12.769  69.783  1.00  0.00     0.196 A  
HETATM   12  I   UNK A   0     -12.789  13.543  71.019  1.00  0.00    -0.146 I  
HETATM   13  C   UNK A   0     -11.006  11.384  69.552  1.00  0.00    -0.226 A  
HETATM   14  I   UNK A   0      -8.055  14.687  67.289  1.00  0.00    -0.084 I  
HETATM   15  C   UNK A   0     -10.239  10.967  68.425  1.00  0.00    -0.185 A  
HETATM   16  I   UNK A   0     -10.702   8.993  67.611  1.00  0.00     0.152 I  
HETATM   17  C   UNK A   0      -9.435  13.232  68.101  1.00  0.00    -0.222 A  
HETATM   18  C   UNK A   0      -9.428  11.879  67.685  1.00  0.00    -0.182 A  
BRANCH  13  19
HETATM   19  C   UNK A   0     -11.527  10.347  70.498  1.00  0.00    -0.345 C  
HETATM   20  O   UNK A   0     -12.754   9.866  70.256  1.00  0.00    -0.524 OA 
HETATM   21  H   UNK A   0     -13.084   9.208  70.856  1.00  0.00     0.000 HD 
BRANCH  19  22
ATOM     22  N   SER A   1     -10.846   9.908  71.498  1.00  0.00    -0.057 NA 
ATOM     23  H   SER A   1     -10.246  10.531  72.039  1.00  0.00     0.000 HD 
BRANCH  22  24
ATOM     24  CA  SER A   1     -10.962   8.463  71.839  1.00  0.00    -0.305 C  
BRANCH  24  25
ATOM     25  C   SER A   1     -12.345   8.261  72.484  1.00  0.00    -0.276 C  
ATOM     26  H   SER A   1     -13.826   6.971  72.352  1.00  0.00     0.000 HD 
ATOM     27  O   SER A   1     -12.972   7.095  71.954  1.00  0.00    -0.312 OA 
ENDBRANCH  24  25
BRANCH  24  28
ATOM     28  CB  SER A   1      -9.889   8.002  72.848  1.00  0.00    -0.287 C  
ATOM     29  OG  SER A   1     -10.230   6.816  73.564  1.00  0.00    -0.230 OA 
ATOM     30  HG  SER A   1      -9.569   6.533  74.185  1.00  0.00     0.000 HD 
ENDBRANCH  24  28
ENDBRANCH  22  24
ENDBRANCH  19  22
ENDBRANCH  13  19
BRANCH  18  31
HETATM   31  C   UNK A   0      -8.656  11.413  66.476  1.00  0.00    -0.175 C  
HETATM   32  H   UNK A   0      -6.858  10.893  65.924  1.00  0.00     0.000 HD 
HETATM   33  O   UNK A   0      -7.345  11.187  66.685  1.00  0.00    -0.138 OA 
BRANCH  31  34
ATOM     34  N   SER A   1      -9.153  11.285  65.293  1.00  0.00    -0.344 NA 
ATOM     35  H   SER A   1      -8.866  10.525  64.676  1.00  0.00     0.000 HD 
BRANCH  34  36
ATOM     36  CA  SER A   1     -10.169  12.294  64.864  1.00  0.00    -0.281 C  
BRANCH  36  37
ATOM     37  CB  SER A   1     -10.183  12.327  63.333  1.00  0.00    -0.323 C  
ATOM     38  HG  SER A   1      -9.038  11.685  61.863  1.00  0.00     0.000 HD 
ATOM     39  OG  SER A   1      -9.030  11.664  62.813  1.00  0.00    -0.283 OA 
ENDBRANCH  36  37
BRANCH  36  40
ATOM     40  C   SER A   1     -11.552  11.886  65.403  1.00  0.00    -0.223 C  
ATOM     41  H   SER A   1     -13.095  12.770  66.255  1.00  0.00     0.000 HD 
ATOM     42  O   SER A   1     -12.242  13.021  65.923  1.00  0.00    -0.439 OA 
ENDBRANCH  36  40
ENDBRANCH  34  36
ENDBRANCH  31  34
ENDBRANCH  18  31
ENDBRANCH   8  10
ENDBRANCH   5   8
ENDBRANCH   1   5
TORSDOF 13
ENDMDL
MODEL      172
REMARK 921   NORMALIZED FREE ENERGY PREDICTED BY IDOCK:   -2.78 KCAL/MOL
REMARK 922        TOTAL FREE ENERGY PREDICTED BY IDOCK:   -5.83 KCAL/MOL
REMARK 923 INTER-LIGAND FREE ENERGY PREDICTED BY IDOCK:   -6.09 KCAL/MOL
REMARK 924 INTRA-LIGAND FREE ENERGY PREDICTED BY IDOCK:    0.26 KCAL/MOL
REMARK 927      BINDING AFFINITY PREDICTED BY RF-SCORE:    0.00 PKD
ROOT
HETATM    1  C   UNK A   0      -8.453   3.071  69.548  1.00  0.00    -0.061 C  
HETATM    2  O   UNK A   0      -7.563   4.159  69.851  1.00  0.00    -0.052 OA 
HETATM    3  C   UNK A   0      -9.113   2.606  70.827  1.00  0.00    -0.189 C  
HETATM    4  H   UNK A   0      -7.148   4.451  69.048  1.00  0.00     0.000 HD 
ENDROOT
BRANCH   1   5
HETATM    5  C   UNK A   0      -9.499   3.612  68.589  1.00  0.00    -0.140 C  
HETATM    6  O   UNK A   0      -9.627   2.862  67.470  1.00  0.00    -0.351 OA 
HETATM    7  H   UNK A   0     -10.281   3.201  66.870  1.00  0.00     0.000 HD 
BRANCH   5   8
HETATM    8  N   UNK A   0     -10.227   4.649  68.844  1.00  0.00    -0.038 NA 
HETATM    9  H   UNK A   0     -11.229   4.546  69.007  1.00  0.00     0.000 HD 
BRANCH   8  10
HETATM   10  C   UNK A   0      -9.619   5.941  68.896  1.00  0.00    -0.132 A  
HETATM   11  C   UNK A   0      -9.568   6.696  70.091  1.00  0.00    -0.161 A  
HETATM   12  I   UNK A   0     -10.351   5.770  71.919  1.00  0.00    -0.292 I  
HETATM   13  C   UNK A   0      -8.889   7.933  70.136  1.00  0.00    -0.144 A  
HETATM   14  I   UNK A   0      -9.253   5.356  65.898  1.00  0.00    -0.062 I  
HETATM   15  C   UNK A   0      -8.033   8.269  69.047  1.00  0.00    -0.112 A  
HETATM   16  I   UNK A   0      -6.417   9.674  69.480  1.00  0.00    -0.059 I  
HETATM   17  C   UNK A   0      -8.907   6.414  67.753  1.00  0.00    -0.112 A  
HETATM   18  C   UNK A   0      -8.033   7.526  67.829  1.00  0.00    -0.118 A  
BRANCH  13  19
HETATM   19  C   UNK A   0      -9.117   8.943  71.217  1.00  0.00    -0.253 C  
HETATM   20  O   UNK A   0      -8.442   8.770  72.362  1.00  0.00    -0.393 OA 
HETATM   21  H   UNK A   0      -8.587   9.411  73.048  1.00  0.00     0.000 HD 
BRANCH  19  22
ATOM     22  N   SER A   1      -9.909   9.948  71.079  1.00  0.00    -0.218 NA 
ATOM     23  H   SER A   1      -9.684  10.856  71.485  1.00  0.00     0.000 HD 
BRANCH  22  24
ATOM     24  CA  SER A   1     -11.166   9.743  70.305  1.00  0.00    -0.288 C  
BRANCH  24  25
ATOM     25  C   SER A   1     -11.529  11.096  69.667  1.00  0.00    -0.310 C  
ATOM     26  H   SER A   1     -12.350  11.729  67.994  1.00  0.00     0.000 HD 
ATOM     27  O   SER A   1     -12.126  10.894  68.388  1.00  0.00    -0.559 OA 
ENDBRANCH  24  25
BRANCH  24  28
ATOM     28  CB  SER A   1     -12.346   9.299  71.194  1.00  0.00    -0.293 C  
ATOM     29  OG  SER A   1     -13.626   9.708  70.716  1.00  0.00    -0.596 OA 
ATOM     30  HG  SER A   1     -14.353   9.434  71.263  1.00  0.00     0.000 HD 
ENDBRANCH  24  28
ENDBRANCH  22  24
ENDBRANCH  19  22
ENDBRANCH  13  19
BRANCH  18  31
HETATM   31  C   UNK A   0      -7.090   7.887  66.708  1.00  0.00    -0.077 C  
HETATM   32  H   UNK A   0      -5.426   7.306  65.871  1.00  0.00     0.000 HD 
HETATM   33  O   UNK A   0      -6.020   7.079  66.577  1.00  0.00    -0.032 OA 
BRANCH  31  34
ATOM     34  N   SER A   1      -7.220   8.917  65.945  1.00  0.00    -0.087 NA 
ATOM     35  H   SER A   1      -6.518   9.657  65.929  1.00  0.00     0.000 HD 
BRANCH  34  36
ATOM     36  CA  SER A   1      -8.440   8.984  65.084  1.00  0.00    -0.167 C  
BRANCH  36  37
ATOM     37  CB  SER A   1      -9.248  10.215  65.505  1.00  0.00    -0.191 C  
ATOM     38  HG  SER A   1     -10.765  11.257  64.803  1.00  0.00     0.000 HD 
ATOM     39  OG  SER A   1     -10.264  10.493  64.542  1.00  0.00    -0.348 OA 
ENDBRANCH  36  37
BRANCH  36  40
ATOM     40  C   SER A   1      -8.016   9.102  63.608  1.00  0.00    -0.146 C  
ATOM     41  H   SER A   1      -8.115   7.996  61.979  1.00  0.00     0.000 HD 
ATOM     42  O   SER A   1      -8.376   7.923  62.889  1.00  0.00    -0.112 OA 
ENDBRANCH  36  40
ENDBRANCH  34  36
ENDBRANCH  31  34
ENDBRANCH  18  31
ENDBRANCH   8  10
ENDBRANCH   5   8
ENDBRANCH   1   5
TORSDOF 13
ENDMDL
MODEL      173
REMARK 921   NORMALIZED FREE ENERGY PREDICTED BY IDOCK:   -2.78 KCAL/MOL
REMARK 922        TOTAL FREE ENERGY PREDICTED BY IDOCK:   -5.82 KCAL/MOL
REMARK 923 INTER-LIGAND FREE ENERGY PREDICTED BY IDOCK:   -5.16 KCAL/MOL
REMARK 924 INTRA-LIGAND FREE ENERGY PREDICTED BY IDOCK:   -0.66 KCAL/MOL
REMARK 927      BINDING AFFINITY PREDICTED BY RF-SCORE:    0.00 PKD
ROOT
HETATM    1  C   UNK A   0     -12.275  11.488  69.369  1.00  0.00    -0.207 C  
HETATM    2  O   UNK A   0     -13.253  10.588  69.921  1.00  0.00    -0.470 OA 
HETATM    3  C   UNK A   0     -11.937  12.540  70.401  1.00  0.00    -0.335 C  
HETATM    4  H   UNK A   0     -13.465   9.928  69.272  1.00  0.00     0.000 HD 
ENDROOT
BRANCH   1   5
HETATM    5  C   UNK A   0     -11.044  10.657  69.049  1.00  0.00    -0.254 C  
HETATM    6  O   UNK A   0      -9.890  11.265  69.408  1.00  0.00    -0.420 OA 
HETATM    7  H   UNK A   0      -9.120  10.745  69.208  1.00  0.00     0.000 HD 
BRANCH   5   8
HETATM    8  N   UNK A   0     -11.101   9.471  68.538  1.00  0.00    -0.473 NA 
HETATM    9  H   UNK A   0     -11.955   9.150  68.082  1.00  0.00     0.000 HD 
BRANCH   8  10
HETATM   10  C   UNK A   0      -9.961   8.614  68.617  1.00  0.00    -0.183 A  
HETATM   11  C   UNK A   0      -9.047   8.483  67.545  1.00  0.00    -0.134 A  
HETATM   12  I   UNK A   0      -9.363   9.740  65.775  1.00  0.00    -0.344 I  
HETATM   13  C   UNK A   0      -7.885   7.694  67.679  1.00  0.00    -0.123 A  
HETATM   14  I   UNK A   0     -11.211   8.009  71.363  1.00  0.00    -0.354 I  
HETATM   15  C   UNK A   0      -7.512   7.262  68.985  1.00  0.00    -0.097 A  
HETATM   16  I   UNK A   0      -5.396   6.816  69.294  1.00  0.00    -0.015 I  
HETATM   17  C   UNK A   0      -9.649   7.995  69.865  1.00  0.00    -0.171 A  
HETATM   18  C   UNK A   0      -8.391   7.392  70.102  1.00  0.00    -0.136 A  
BRANCH  13  19
HETATM   19  C   UNK A   0      -7.099   7.204  66.502  1.00  0.00    -0.078 C  
HETATM   20  O   UNK A   0      -5.930   7.811  66.258  1.00  0.00    -0.036 OA 
HETATM   21  H   UNK A   0      -5.432   7.500  65.511  1.00  0.00     0.000 HD 
BRANCH  19  22
ATOM     22  N   SER A   1      -7.497   6.239  65.750  1.00  0.00    -0.080 NA 
ATOM     23  H   SER A   1      -8.313   6.342  65.147  1.00  0.00     0.000 HD 
BRANCH  22  24
ATOM     24  CA  SER A   1      -6.727   4.964  65.788  1.00  0.00    -0.056 C  
BRANCH  24  25
ATOM     25  C   SER A   1      -6.524   4.516  64.329  1.00  0.00    -0.038 C  
ATOM     26  H   SER A   1      -5.057   4.490  63.017  1.00  0.00     0.000 HD 
ATOM     27  O   SER A   1      -5.182   4.766  63.917  1.00  0.00    -0.009 OA 
ENDBRANCH  24  25
BRANCH  24  28
ATOM     28  CB  SER A   1      -7.472   3.840  66.537  1.00  0.00    -0.080 C  
ATOM     29  OG  SER A   1      -8.754   4.218  67.036  1.00  0.00    -0.107 OA 
ATOM     30  HG  SER A   1      -9.212   3.526  67.497  1.00  0.00     0.000 HD 
ENDBRANCH  24  28
ENDBRANCH  22  24
ENDBRANCH  19  22
ENDBRANCH  13  19
BRANCH  18  31
HETATM   31  C   UNK A   0      -7.952   6.957  71.479  1.00  0.00    -0.104 C  
HETATM   32  H   UNK A   0      -7.488   7.683  73.230  1.00  0.00     0.000 HD 
HETATM   33  O   UNK A   0      -7.764   7.956  72.363  1.00  0.00    -0.093 OA 
BRANCH  31  34
ATOM     34  N   SER A   1      -7.703   5.739  71.817  1.00  0.00    -0.100 NA 
ATOM     35  H   SER A   1      -6.921   5.225  71.411  1.00  0.00     0.000 HD 
BRANCH  34  36
ATOM     36  CA  SER A   1      -8.606   5.109  72.828  1.00  0.00    -0.120 C  
BRANCH  36  37
ATOM     37  CB  SER A   1      -9.832   4.564  72.091  1.00  0.00    -0.177 C  
ATOM     38  HG  SER A   1     -11.728   4.215  72.501  1.00  0.00     0.000 HD 
ATOM     39  OG  SER A   1     -10.967   4.554  72.958  1.00  0.00    -0.225 OA 
ENDBRANCH  36  37
BRANCH  36  40
ATOM     40  C   SER A   1      -7.856   3.966  73.538  1.00  0.00    -0.083 C  
ATOM     41  H   SER A   1      -6.326   3.778  74.767  1.00  0.00     0.000 HD 
ATOM     42  O   SER A   1      -6.788   4.483  74.329  1.00  0.00    -0.062 OA 
ENDBRANCH  36  40
ENDBRANCH  34  36
ENDBRANCH  31  34
ENDBRANCH  18  31
ENDBRANCH   8  10
ENDBRANCH   5   8
ENDBRANCH   1   5
TORSDOF 13
ENDMDL
MODEL      174
REMARK 921   NORMALIZED FREE ENERGY PREDICTED BY IDOCK:   -2.76 KCAL/MOL
REMARK 922        TOTAL FREE ENERGY PREDICTED BY IDOCK:   -5.79 KCAL/MOL
REMARK 923 INTER-LIGAND FREE ENERGY PREDICTED BY IDOCK:   -7.07 KCAL/MOL
REMARK 924 INTRA-LIGAND FREE ENERGY PREDICTED BY IDOCK:    1.28 KCAL/MOL
REMARK 927      BINDING AFFINITY PREDICTED BY RF-SCORE:    0.00 PKD
ROOT
HETATM    1  C   UNK A   0      -6.960  17.022  66.985  1.00  0.00    -0.193 C  
HETATM    2  O   UNK A   0      -5.783  16.665  66.239  1.00  0.00    -0.228 OA 
HETATM    3  C   UNK A   0      -7.653  18.172  66.289  1.00  0.00    -0.299 C  
HETATM    4  H   UNK A   0      -5.348  15.943  66.677  1.00  0.00     0.000 HD 
ENDROOT
BRANCH   1   5
HETATM    5  C   UNK A   0      -7.862  15.799  66.996  1.00  0.00    -0.236 C  
HETATM    6  O   UNK A   0      -8.613  15.688  65.877  1.00  0.00    -0.332 OA 
HETATM    7  H   UNK A   0      -9.178  14.924  65.883  1.00  0.00     0.000 HD 
BRANCH   5   8
HETATM    8  N   UNK A   0      -7.867  14.930  67.952  1.00  0.00    -0.126 NA 
HETATM    9  H   UNK A   0      -7.031  14.784  68.518  1.00  0.00     0.000 HD 
BRANCH   8  10
HETATM   10  C   UNK A   0      -9.051  14.174  68.211  1.00  0.00    -0.190 A  
HETATM   11  C   UNK A   0      -9.178  12.822  67.813  1.00  0.00    -0.199 A  
HETATM   12  I   UNK A   0      -7.439  11.866  66.878  1.00  0.00     0.134 I  
HETATM   13  C   UNK A   0     -10.324  12.073  68.153  1.00  0.00    -0.207 A  
HETATM   14  I   UNK A   0      -9.943  16.880  69.372  1.00  0.00     0.190 I  
HETATM   15  C   UNK A   0     -11.213  12.611  69.129  1.00  0.00    -0.243 A  
HETATM   16  I   UNK A   0     -12.435  11.172  70.229  1.00  0.00    -0.212 I  
HETATM   17  C   UNK A   0     -10.070  14.747  69.031  1.00  0.00    -0.232 A  
HETATM   18  C   UNK A   0     -11.113  13.962  69.578  1.00  0.00    -0.178 A  
BRANCH  13  19
HETATM   19  C   UNK A   0     -10.697  10.802  67.456  1.00  0.00    -0.264 C  
HETATM   20  O   UNK A   0     -11.338  10.918  66.284  1.00  0.00    -0.080 OA 
HETATM   21  H   UNK A   0     -11.574  10.111  65.841  1.00  0.00     0.000 HD 
BRANCH  19  22
ATOM     22  N   SER A   1     -10.418   9.638  67.928  1.00  0.00    -0.231 NA 
ATOM     23  H   SER A   1     -11.119   8.898  67.954  1.00  0.00     0.000 HD 
BRANCH  22  24
ATOM     24  CA  SER A   1      -9.036   9.405  68.434  1.00  0.00    -0.128 C  
BRANCH  24  25
ATOM     25  C   SER A   1      -8.448   8.237  67.622  1.00  0.00    -0.130 C  
ATOM     26  H   SER A   1      -9.059   7.008  66.211  1.00  0.00     0.000 HD 
ATOM     27  O   SER A   1      -9.421   7.729  66.712  1.00  0.00    -0.172 OA 
ENDBRANCH  24  25
BRANCH  24  28
ATOM     28  CB  SER A   1      -9.008   9.015  69.927  1.00  0.00    -0.164 C  
ATOM     29  OG  SER A   1      -9.006  10.125  70.823  1.00  0.00    -0.220 OA 
ATOM     30  HG  SER A   1      -8.988   9.884  71.742  1.00  0.00     0.000 HD 
ENDBRANCH  24  28
ENDBRANCH  22  24
ENDBRANCH  19  22
ENDBRANCH  13  19
BRANCH  18  31
HETATM   31  C   UNK A   0     -12.047  14.490  70.638  1.00  0.00    -0.322 C  
HETATM   32  H   UNK A   0     -13.811  15.298  70.849  1.00  0.00     0.000 HD 
HETATM   33  O   UNK A   0     -13.222  14.965  70.182  1.00  0.00    -0.086 OA 
BRANCH  31  34
ATOM     34  N   SER A   1     -11.765  14.562  71.894  1.00  0.00    -0.345 NA 
ATOM     35  H   SER A   1     -10.799  14.602  72.219  1.00  0.00     0.000 HD 
BRANCH  34  36
ATOM     36  CA  SER A   1     -12.910  14.583  72.855  1.00  0.00    -0.441 C  
BRANCH  36  37
ATOM     37  CB  SER A   1     -13.204  16.044  73.206  1.00  0.00    -0.553 C  
ATOM     38  HG  SER A   1     -12.788  17.288  74.677  1.00  0.00     0.000 HD 
ATOM     39  OG  SER A   1     -12.606  16.382  74.458  1.00  0.00    -0.754 OA 
ENDBRANCH  36  37
BRANCH  36  40
ATOM     40  C   SER A   1     -14.141  13.934  72.194  1.00  0.00    -0.536 C  
ATOM     41  H   SER A   1     -15.047  12.183  72.222  1.00  0.00     0.000 HD 
ATOM     42  O   SER A   1     -14.288  12.583  72.629  1.00  0.00    -0.096 OA 
ENDBRANCH  36  40
ENDBRANCH  34  36
ENDBRANCH  31  34
ENDBRANCH  18  31
ENDBRANCH   8  10
ENDBRANCH   5   8
ENDBRANCH   1   5
TORSDOF 13
ENDMDL
MODEL      175
REMARK 921   NORMALIZED FREE ENERGY PREDICTED BY IDOCK:   -2.70 KCAL/MOL
REMARK 922        TOTAL FREE ENERGY PREDICTED BY IDOCK:   -5.68 KCAL/MOL
REMARK 923 INTER-LIGAND FREE ENERGY PREDICTED BY IDOCK:   -7.33 KCAL/MOL
REMARK 924 INTRA-LIGAND FREE ENERGY PREDICTED BY IDOCK:    1.65 KCAL/MOL
REMARK 927      BINDING AFFINITY PREDICTED BY RF-SCORE:    0.00 PKD
ROOT
HETATM    1  C   UNK A   0      -6.210  12.870  70.421  1.00  0.00     0.078 C  
HETATM    2  O   UNK A   0      -5.586  11.873  71.249  1.00  0.00    -0.367 OA 
HETATM    3  C   UNK A   0      -5.804  14.241  70.913  1.00  0.00    -0.210 C  
HETATM    4  H   UNK A   0      -5.842  11.011  70.941  1.00  0.00     0.000 HD 
ENDROOT
BRANCH   1   5
HETATM    5  C   UNK A   0      -5.700  12.650  69.007  1.00  0.00    -0.072 C  
HETATM    6  O   UNK A   0      -5.270  11.386  68.792  1.00  0.00    -0.044 OA 
HETATM    7  H   UNK A   0      -4.951  11.248  67.908  1.00  0.00     0.000 HD 
BRANCH   5   8
HETATM    8  N   UNK A   0      -5.726  13.564  68.094  1.00  0.00    -0.103 NA 
HETATM    9  H   UNK A   0      -4.890  13.766  67.546  1.00  0.00     0.000 HD 
BRANCH   8  10
HETATM   10  C   UNK A   0      -6.934  14.289  67.857  1.00  0.00    -0.164 A  
HETATM   11  C   UNK A   0      -7.018  15.688  68.050  1.00  0.00    -0.129 A  
HETATM   12  I   UNK A   0      -5.185  16.751  68.618  1.00  0.00    -0.127 I  
HETATM   13  C   UNK A   0      -8.198  16.392  67.729  1.00  0.00    -0.162 A  
HETATM   14  I   UNK A   0      -7.948  11.449  67.244  1.00  0.00    -0.169 I  
HETATM   15  C   UNK A   0      -9.192  15.722  66.958  1.00  0.00    -0.216 A  
HETATM   16  I   UNK A   0     -10.537  16.991  65.793  1.00  0.00     0.183 I  
HETATM   17  C   UNK A   0      -8.040  13.610  67.258  1.00  0.00    -0.139 A  
HETATM   18  C   UNK A   0      -9.141  14.316  66.718  1.00  0.00    -0.269 A  
BRANCH  13  19
HETATM   19  C   UNK A   0      -8.491  17.763  68.257  1.00  0.00    -0.277 C  
HETATM   20  O   UNK A   0      -9.686  17.948  68.834  1.00  0.00    -0.313 OA 
HETATM   21  H   UNK A   0      -9.872  18.817  69.169  1.00  0.00     0.000 HD 
BRANCH  19  22
ATOM     22  N   SER A   1      -7.650  18.734  68.185  1.00  0.00    -0.264 NA 
ATOM     23  H   SER A   1      -6.705  18.640  68.557  1.00  0.00     0.000 HD 
BRANCH  22  24
ATOM     24  CA  SER A   1      -8.100  19.999  67.541  1.00  0.00    -0.316 C  
BRANCH  24  25
ATOM     25  C   SER A   1      -8.402  19.673  66.066  1.00  0.00    -0.280 C  
ATOM     26  H   SER A   1      -7.434  18.918  64.528  1.00  0.00     0.000 HD 
ATOM     27  O   SER A   1      -7.248  19.119  65.437  1.00  0.00    -0.466 OA 
ENDBRANCH  24  25
BRANCH  24  28
ATOM     28  CB  SER A   1      -7.023  21.103  67.578  1.00  0.00    -0.268 C  
ATOM     29  OG  SER A   1      -5.719  20.637  67.920  1.00  0.00    -0.217 OA 
ATOM     30  HG  SER A   1      -5.056  21.317  67.943  1.00  0.00     0.000 HD 
ENDBRANCH  24  28
ENDBRANCH  22  24
ENDBRANCH  19  22
ENDBRANCH  13  19
BRANCH  18  31
HETATM   31  C   UNK A   0     -10.190  13.643  65.868  1.00  0.00    -0.311 C  
HETATM   32  H   UNK A   0     -11.858  12.643  66.016  1.00  0.00     0.000 HD 
HETATM   33  O   UNK A   0     -11.197  13.066  66.551  1.00  0.00    -0.285 OA 
BRANCH  31  34
ATOM     34  N   SER A   1     -10.141  13.546  64.583  1.00  0.00    -0.630 NA 
ATOM     35  H   SER A   1      -9.666  14.249  64.017  1.00  0.00     0.000 HD 
BRANCH  34  36
ATOM     36  CA  SER A   1     -10.806  12.363  63.959  1.00  0.00    -0.397 C  
BRANCH  36  37
ATOM     37  CB  SER A   1     -12.044  12.859  63.207  1.00  0.00    -0.440 C  
ATOM     38  HG  SER A   1     -13.991  12.564  63.274  1.00  0.00     0.000 HD 
ATOM     39  OG  SER A   1     -13.222  12.256  63.740  1.00  0.00    -0.771 OA 
ENDBRANCH  36  37
BRANCH  36  40
ATOM     40  C   SER A   1      -9.825  11.683  62.984  1.00  0.00    -0.305 C  
ATOM     41  H   SER A   1      -8.031  10.870  63.065  1.00  0.00     0.000 HD 
ATOM     42  O   SER A   1      -8.635  11.289  63.666  1.00  0.00     0.115 OA 
ENDBRANCH  36  40
ENDBRANCH  34  36
ENDBRANCH  31  34
ENDBRANCH  18  31
ENDBRANCH   8  10
ENDBRANCH   5   8
ENDBRANCH   1   5
TORSDOF 13
ENDMDL
MODEL      176
REMARK 921   NORMALIZED FREE ENERGY PREDICTED BY IDOCK:   -2.70 KCAL/MOL
REMARK 922        TOTAL FREE ENERGY PREDICTED BY IDOCK:   -5.68 KCAL/MOL
REMARK 923 INTER-LIGAND FREE ENERGY PREDICTED BY IDOCK:   -6.98 KCAL/MOL
REMARK 924 INTRA-LIGAND FREE ENERGY PREDICTED BY IDOCK:    1.31 KCAL/MOL
REMARK 927      BINDING AFFINITY PREDICTED BY RF-SCORE:    0.00 PKD
ROOT
HETATM    1  C   UNK A   0     -10.582   7.335  72.164  1.00  0.00    -0.211 C  
HETATM    2  O   UNK A   0     -10.093   6.398  71.189  1.00  0.00    -0.183 OA 
HETATM    3  C   UNK A   0      -9.597   8.476  72.286  1.00  0.00    -0.377 C  
HETATM    4  H   UNK A   0     -10.712   5.681  71.112  1.00  0.00     0.000 HD 
ENDROOT
BRANCH   1   5
HETATM    5  C   UNK A   0     -11.915   7.851  71.649  1.00  0.00    -0.294 C  
HETATM    6  O   UNK A   0     -12.798   8.113  72.640  1.00  0.00    -0.578 OA 
HETATM    7  H   UNK A   0     -13.632   8.435  72.318  1.00  0.00     0.000 HD 
BRANCH   5   8
HETATM    8  N   UNK A   0     -12.157   8.066  70.397  1.00  0.00    -0.446 NA 
HETATM    9  H   UNK A   0     -12.933   7.592  69.936  1.00  0.00     0.000 HD 
BRANCH   8  10
HETATM   10  C   UNK A   0     -11.329   8.971  69.665  1.00  0.00     0.121 A  
HETATM   11  C   UNK A   0     -10.431   8.523  68.668  1.00  0.00    -0.169 A  
HETATM   12  I   UNK A   0     -10.425   6.384  68.184  1.00  0.00    -0.394 I  
HETATM   13  C   UNK A   0      -9.685   9.444  67.901  1.00  0.00    -0.177 A  
HETATM   14  I   UNK A   0     -12.701  10.985  71.544  1.00  0.00    -0.256 I  
HETATM   15  C   UNK A   0     -10.054  10.820  67.958  1.00  0.00    -0.176 A  
HETATM   16  I   UNK A   0      -9.513  12.042  66.229  1.00  0.00    -0.169 I  
HETATM   17  C   UNK A   0     -11.527  10.375  69.831  1.00  0.00    -0.297 A  
HETATM   18  C   UNK A   0     -10.972  11.316  68.931  1.00  0.00    -0.274 A  
BRANCH  13  19
HETATM   19  C   UNK A   0      -8.464   9.052  67.128  1.00  0.00    -0.113 C  
HETATM   20  O   UNK A   0      -8.658   8.351  66.002  1.00  0.00    -0.129 OA 
HETATM   21  H   UNK A   0      -7.884   8.103  65.512  1.00  0.00     0.000 HD 
BRANCH  19  22
ATOM     22  N   SER A   1      -7.273   9.370  67.495  1.00  0.00    -0.079 NA 
ATOM     23  H   SER A   1      -6.978  10.346  67.539  1.00  0.00     0.000 HD 
BRANCH  22  24
ATOM     24  CA  SER A   1      -6.337   8.268  67.853  1.00  0.00    -0.053 C  
BRANCH  24  25
ATOM     25  C   SER A   1      -5.965   7.549  66.543  1.00  0.00    -0.040 C  
ATOM     26  H   SER A   1      -5.337   8.052  64.747  1.00  0.00     0.000 HD 
ATOM     27  O   SER A   1      -5.566   8.496  65.555  1.00  0.00    -0.042 OA 
ENDBRANCH  24  25
BRANCH  24  28
ATOM     28  CB  SER A   1      -6.971   7.234  68.806  1.00  0.00    -0.079 C  
ATOM     29  OG  SER A   1      -7.137   7.697  70.145  1.00  0.00    -0.057 OA 
ATOM     30  HG  SER A   1      -7.528   7.060  70.732  1.00  0.00     0.000 HD 
ENDBRANCH  24  28
ENDBRANCH  22  24
ENDBRANCH  19  22
ENDBRANCH  13  19
BRANCH  18  31
HETATM   31  C   UNK A   0     -11.369  12.772  68.941  1.00  0.00    -0.296 C  
HETATM   32  H   UNK A   0     -12.579  14.027  68.066  1.00  0.00     0.000 HD 
HETATM   33  O   UNK A   0     -12.329  13.110  68.060  1.00  0.00    -0.140 OA 
BRANCH  31  34
ATOM     34  N   SER A   1     -10.817  13.676  69.676  1.00  0.00    -0.446 NA 
ATOM     35  H   SER A   1      -9.878  13.550  70.056  1.00  0.00     0.000 HD 
BRANCH  34  36
ATOM     36  CA  SER A   1     -11.607  14.915  69.948  1.00  0.00    -0.289 C  
BRANCH  36  37
ATOM     37  CB  SER A   1     -12.004  14.907  71.426  1.00  0.00    -0.345 C  
ATOM     38  HG  SER A   1     -11.994  16.176  72.933  1.00  0.00     0.000 HD 
ATOM     39  OG  SER A   1     -11.748  16.182  72.016  1.00  0.00    -0.477 OA 
ENDBRANCH  36  37
BRANCH  36  40
ATOM     40  C   SER A   1     -10.740  16.150  69.634  1.00  0.00    -0.325 C  
ATOM     41  H   SER A   1      -9.139  16.562  68.560  1.00  0.00     0.000 HD 
ATOM     42  O   SER A   1      -9.673  15.801  68.754  1.00  0.00    -0.196 OA 
ENDBRANCH  36  40
ENDBRANCH  34  36
ENDBRANCH  31  34
ENDBRANCH  18  31
ENDBRANCH   8  10
ENDBRANCH   5   8
ENDBRANCH   1   5
TORSDOF 13
ENDMDL
MODEL      177
REMARK 921   NORMALIZED FREE ENERGY PREDICTED BY IDOCK:   -2.66 KCAL/MOL
REMARK 922        TOTAL FREE ENERGY PREDICTED BY IDOCK:   -5.62 KCAL/MOL
REMARK 923 INTER-LIGAND FREE ENERGY PREDICTED BY IDOCK:   -6.24 KCAL/MOL
REMARK 924 INTRA-LIGAND FREE ENERGY PREDICTED BY IDOCK:    0.62 KCAL/MOL
REMARK 927      BINDING AFFINITY PREDICTED BY RF-SCORE:    0.00 PKD
ROOT
HETATM    1  C   UNK A   0     -11.269  11.803  64.037  1.00  0.00    -0.385 C  
HETATM    2  O   UNK A   0     -11.038  10.999  62.867  1.00  0.00    -0.775 OA 
HETATM    3  C   UNK A   0     -11.526  10.893  65.217  1.00  0.00     0.568 C  
HETATM    4  H   UNK A   0     -10.877  11.571  62.126  1.00  0.00     0.000 HD 
ENDROOT
BRANCH   1   5
HETATM    5  C   UNK A   0     -10.005  12.614  64.270  1.00  0.00    -0.176 C  
HETATM    6  O   UNK A   0     -10.231  13.948  64.293  1.00  0.00    -0.694 OA 
HETATM    7  H   UNK A   0      -9.441  14.455  64.438  1.00  0.00     0.000 HD 
BRANCH   5   8
HETATM    8  N   UNK A   0      -8.847  12.079  64.478  1.00  0.00     0.171 NA 
HETATM    9  H   UNK A   0      -8.026  12.423  63.981  1.00  0.00     0.000 HD 
BRANCH   8  10
HETATM   10  C   UNK A   0      -8.726  11.002  65.409  1.00  0.00    -0.116 A  
HETATM   11  C   UNK A   0      -8.432   9.683  64.993  1.00  0.00    -0.150 A  
HETATM   12  I   UNK A   0      -8.045   9.347  62.860  1.00  0.00    -0.192 I  
HETATM   13  C   UNK A   0      -8.235   8.654  65.939  1.00  0.00    -0.123 A  
HETATM   14  I   UNK A   0      -9.463  13.255  67.371  1.00  0.00    -0.248 I  
HETATM   15  C   UNK A   0      -8.065   9.021  67.306  1.00  0.00    -0.103 A  
HETATM   16  I   UNK A   0      -6.963   7.611  68.560  1.00  0.00    -0.076 I  
HETATM   17  C   UNK A   0      -8.744  11.294  66.807  1.00  0.00    -0.166 A  
HETATM   18  C   UNK A   0      -8.328  10.344  67.770  1.00  0.00    -0.114 A  
BRANCH  13  19
HETATM   19  C   UNK A   0      -8.309   7.201  65.582  1.00  0.00    -0.136 C  
HETATM   20  O   UNK A   0      -7.152   6.585  65.303  1.00  0.00    -0.057 OA 
HETATM   21  H   UNK A   0      -7.199   5.664  65.077  1.00  0.00     0.000 HD 
BRANCH  19  22
ATOM     22  N   SER A   1      -9.416   6.546  65.549  1.00  0.00    -0.246 NA 
ATOM     23  H   SER A   1      -9.976   6.500  64.698  1.00  0.00     0.000 HD 
BRANCH  22  24
ATOM     24  CA  SER A   1      -9.853   5.855  66.795  1.00  0.00    -0.160 C  
BRANCH  24  25
ATOM     25  C   SER A   1      -9.878   4.346  66.489  1.00  0.00    -0.229 C  
ATOM     26  H   SER A   1      -8.564   2.904  66.226  1.00  0.00     0.000 HD 
ATOM     27  O   SER A   1      -8.549   3.835  66.415  1.00  0.00    -0.108 OA 
ENDBRANCH  24  25
BRANCH  24  28
ATOM     28  CB  SER A   1     -11.267   6.278  67.245  1.00  0.00    -0.158 C  
ATOM     29  OG  SER A   1     -11.411   6.432  68.655  1.00  0.00    -0.560 OA 
ATOM     30  HG  SER A   1     -12.282   6.693  68.932  1.00  0.00     0.000 HD 
ENDBRANCH  24  28
ENDBRANCH  22  24
ENDBRANCH  19  22
ENDBRANCH  13  19
BRANCH  18  31
HETATM   31  C   UNK A   0      -8.104  10.709  69.217  1.00  0.00    -0.127 C  
HETATM   32  H   UNK A   0      -6.764  11.489  70.401  1.00  0.00     0.000 HD 
HETATM   33  O   UNK A   0      -6.906  11.259  69.491  1.00  0.00    -0.118 OA 
BRANCH  31  34
ATOM     34  N   SER A   1      -8.941  10.475  70.169  1.00  0.00    -0.135 NA 
ATOM     35  H   SER A   1      -8.721  10.708  71.138  1.00  0.00     0.000 HD 
BRANCH  34  36
ATOM     36  CA  SER A   1     -10.247   9.851  69.796  1.00  0.00    -0.246 C  
BRANCH  36  37
ATOM     37  CB  SER A   1     -10.520   8.707  70.777  1.00  0.00    -0.204 C  
ATOM     38  HG  SER A   1     -11.568   8.434  72.423  1.00  0.00     0.000 HD 
ATOM     39  OG  SER A   1     -11.399   9.144  71.814  1.00  0.00    -0.350 OA 
ENDBRANCH  36  37
BRANCH  36  40
ATOM     40  C   SER A   1     -11.362  10.910  69.886  1.00  0.00    -0.305 C  
ATOM     41  H   SER A   1     -12.876  11.518  68.780  1.00  0.00     0.000 HD 
ATOM     42  O   SER A   1     -12.189  10.865  68.725  1.00  0.00    -0.518 OA 
ENDBRANCH  36  40
ENDBRANCH  34  36
ENDBRANCH  31  34
ENDBRANCH  18  31
ENDBRANCH   8  10
ENDBRANCH   5   8
ENDBRANCH   1   5
TORSDOF 13
ENDMDL
MODEL      178
REMARK 921   NORMALIZED FREE ENERGY PREDICTED BY IDOCK:   -2.65 KCAL/MOL
REMARK 922        TOTAL FREE ENERGY PREDICTED BY IDOCK:   -5.59 KCAL/MOL
REMARK 923 INTER-LIGAND FREE ENERGY PREDICTED BY IDOCK:   -5.43 KCAL/MOL
REMARK 924 INTRA-LIGAND FREE ENERGY PREDICTED BY IDOCK:   -0.17 KCAL/MOL
REMARK 927      BINDING AFFINITY PREDICTED BY RF-SCORE:    0.00 PKD
ROOT
HETATM    1  C   UNK A   0     -11.036   5.634  71.952  1.00  0.00    -0.235 C  
HETATM    2  O   UNK A   0     -12.009   5.444  72.993  1.00  0.00    -0.548 OA 
HETATM    3  C   UNK A   0     -11.474   6.784  71.073  1.00  0.00    -0.372 C  
HETATM    4  H   UNK A   0     -11.734   4.722  73.545  1.00  0.00     0.000 HD 
ENDROOT
BRANCH   1   5
HETATM    5  C   UNK A   0      -9.721   5.972  72.634  1.00  0.00    -0.156 C  
HETATM    6  O   UNK A   0      -9.885   6.700  73.763  1.00  0.00    -0.192 OA 
HETATM    7  H   UNK A   0      -9.063   6.911  74.191  1.00  0.00     0.000 HD 
BRANCH   5   8
HETATM    8  N   UNK A   0      -8.573   5.559  72.208  1.00  0.00    -0.125 NA 
HETATM    9  H   UNK A   0      -8.019   4.913  72.770  1.00  0.00     0.000 HD 
BRANCH   8  10
HETATM   10  C   UNK A   0      -8.086   6.014  70.944  1.00  0.00    -0.121 A  
HETATM   11  C   UNK A   0      -8.252   5.255  69.761  1.00  0.00    -0.098 A  
HETATM   12  I   UNK A   0      -9.397   3.389  69.897  1.00  0.00    -0.134 I  
HETATM   13  C   UNK A   0      -7.835   5.764  68.512  1.00  0.00    -0.097 A  
HETATM   14  I   UNK A   0      -7.084   8.327  72.708  1.00  0.00    -0.028 I  
HETATM   15  C   UNK A   0      -7.504   7.148  68.427  1.00  0.00    -0.106 A  
HETATM   16  I   UNK A   0      -7.691   8.071  66.456  1.00  0.00    -0.097 I  
HETATM   17  C   UNK A   0      -7.559   7.337  70.844  1.00  0.00    -0.084 A  
HETATM   18  C   UNK A   0      -7.347   7.959  69.590  1.00  0.00    -0.090 A  
BRANCH  13  19
HETATM   19  C   UNK A   0      -7.622   4.892  67.314  1.00  0.00    -0.087 C  
HETATM   20  O   UNK A   0      -6.381   4.844  66.811  1.00  0.00    -0.037 OA 
HETATM   21  H   UNK A   0      -6.246   4.291  66.051  1.00  0.00     0.000 HD 
BRANCH  19  22
ATOM     22  N   SER A   1      -8.565   4.200  66.777  1.00  0.00    -0.107 NA 
ATOM     23  H   SER A   1      -8.696   3.216  67.014  1.00  0.00     0.000 HD 
BRANCH  22  24
ATOM     24  CA  SER A   1      -9.458   4.880  65.798  1.00  0.00    -0.164 C  
BRANCH  24  25
ATOM     25  C   SER A   1     -10.779   5.184  66.528  1.00  0.00    -0.193 C  
ATOM     26  H   SER A   1     -11.733   6.776  67.182  1.00  0.00     0.000 HD 
ATOM     27  O   SER A   1     -10.918   6.589  66.732  1.00  0.00    -0.354 OA 
ENDBRANCH  24  25
BRANCH  24  28
ATOM     28  CB  SER A   1      -9.778   3.999  64.572  1.00  0.00    -0.182 C  
ATOM     29  OG  SER A   1     -11.170   3.763  64.368  1.00  0.00    -0.640 OA 
ATOM     30  HG  SER A   1     -11.367   3.221  63.613  1.00  0.00     0.000 HD 
ENDBRANCH  24  28
ENDBRANCH  22  24
ENDBRANCH  19  22
ENDBRANCH  13  19
BRANCH  18  31
HETATM   31  C   UNK A   0      -7.031   9.429  69.464  1.00  0.00    -0.053 C  
HETATM   32  H   UNK A   0      -5.546  10.643  69.106  1.00  0.00     0.000 HD 
HETATM   33  O   UNK A   0      -5.745   9.718  69.186  1.00  0.00    -0.035 OA 
BRANCH  31  34
ATOM     34  N   SER A   1      -7.879  10.380  69.661  1.00  0.00    -0.262 NA 
ATOM     35  H   SER A   1      -7.983  10.817  70.577  1.00  0.00     0.000 HD 
BRANCH  34  36
ATOM     36  CA  SER A   1      -8.703  10.817  68.493  1.00  0.00    -0.149 C  
BRANCH  36  37
ATOM     37  CB  SER A   1     -10.168  10.849  68.934  1.00  0.00    -0.198 C  
ATOM     38  HG  SER A   1     -11.611   9.544  69.249  1.00  0.00     0.000 HD 
ATOM     39  OG  SER A   1     -10.702   9.525  68.976  1.00  0.00    -0.222 OA 
ENDBRANCH  36  37
BRANCH  36  40
ATOM     40  C   SER A   1      -8.248  12.219  68.046  1.00  0.00    -0.163 C  
ATOM     41  H   SER A   1      -6.995  13.606  68.674  1.00  0.00     0.000 HD 
ATOM     42  O   SER A   1      -7.275  12.742  68.949  1.00  0.00    -0.097 OA 
ENDBRANCH  36  40
ENDBRANCH  34  36
ENDBRANCH  31  34
ENDBRANCH  18  31
ENDBRANCH   8  10
ENDBRANCH   5   8
ENDBRANCH   1   5
TORSDOF 13
ENDMDL
MODEL      179
REMARK 921   NORMALIZED FREE ENERGY PREDICTED BY IDOCK:   -2.65 KCAL/MOL
REMARK 922        TOTAL FREE ENERGY PREDICTED BY IDOCK:   -5.59 KCAL/MOL
REMARK 923 INTER-LIGAND FREE ENERGY PREDICTED BY IDOCK:   -5.79 KCAL/MOL
REMARK 924 INTRA-LIGAND FREE ENERGY PREDICTED BY IDOCK:    0.20 KCAL/MOL
REMARK 927      BINDING AFFINITY PREDICTED BY RF-SCORE:    0.00 PKD
ROOT
HETATM    1  C   UNK A   0     -10.273  11.389  69.238  1.00  0.00     0.021 C  
HETATM    2  O   UNK A   0      -9.060  10.666  69.517  1.00  0.00    -0.389 OA 
HETATM    3  C   UNK A   0     -10.107  12.144  67.938  1.00  0.00    -0.199 C  
HETATM    4  H   UNK A   0      -9.165  10.193  70.334  1.00  0.00     0.000 HD 
ENDROOT
BRANCH   1   5
HETATM    5  C   UNK A   0     -11.379  10.357  69.104  1.00  0.00    -0.226 C  
HETATM    6  O   UNK A   0     -12.430  10.601  69.921  1.00  0.00    -0.464 OA 
HETATM    7  H   UNK A   0     -13.122   9.956  69.837  1.00  0.00     0.000 HD 
BRANCH   5   8
HETATM    8  N   UNK A   0     -11.341   9.381  68.258  1.00  0.00    -0.388 NA 
HETATM    9  H   UNK A   0     -11.970   9.372  67.455  1.00  0.00     0.000 HD 
BRANCH   8  10
HETATM   10  C   UNK A   0     -10.411   8.314  68.455  1.00  0.00    -0.162 A  
HETATM   11  C   UNK A   0     -10.425   7.517  69.624  1.00  0.00    -0.234 A  
HETATM   12  I   UNK A   0     -12.007   7.889  71.097  1.00  0.00    -0.207 I  
HETATM   13  C   UNK A   0      -9.551   6.416  69.758  1.00  0.00    -0.163 A  
HETATM   14  I   UNK A   0      -9.387   9.350  65.746  1.00  0.00    -0.301 I  
HETATM   15  C   UNK A   0      -8.859   5.962  68.598  1.00  0.00    -0.111 A  
HETATM   16  I   UNK A   0      -8.227   3.871  68.601  1.00  0.00    -0.099 I  
HETATM   17  C   UNK A   0      -9.551   7.940  67.379  1.00  0.00    -0.152 A  
HETATM   18  C   UNK A   0      -8.834   6.720  67.389  1.00  0.00    -0.117 A  
BRANCH  13  19
HETATM   19  C   UNK A   0      -9.240   5.787  71.081  1.00  0.00    -0.153 C  
HETATM   20  O   UNK A   0     -10.075   4.830  71.509  1.00  0.00    -0.185 OA 
HETATM   21  H   UNK A   0      -9.877   4.430  72.347  1.00  0.00     0.000 HD 
BRANCH  19  22
ATOM     22  N   SER A   1      -8.218   6.118  71.789  1.00  0.00    -0.114 NA 
ATOM     23  H   SER A   1      -7.279   6.123  71.390  1.00  0.00     0.000 HD 
BRANCH  22  24
ATOM     24  CA  SER A   1      -8.450   6.495  73.212  1.00  0.00    -0.120 C  
BRANCH  24  25
ATOM     25  C   SER A   1      -8.851   7.982  73.225  1.00  0.00    -0.265 C  
ATOM     26  H   SER A   1      -7.983   9.714  72.877  1.00  0.00     0.000 HD 
ATOM     27  O   SER A   1      -7.736   8.797  72.868  1.00  0.00    -0.373 OA 
ENDBRANCH  24  25
BRANCH  24  28
ATOM     28  CB  SER A   1      -7.189   6.329  74.085  1.00  0.00    -0.086 C  
ATOM     29  OG  SER A   1      -5.963   6.562  73.394  1.00  0.00    -0.056 OA 
ATOM     30  HG  SER A   1      -5.187   6.459  73.932  1.00  0.00     0.000 HD 
ENDBRANCH  24  28
ENDBRANCH  22  24
ENDBRANCH  19  22
ENDBRANCH  13  19
BRANCH  18  31
HETATM   31  C   UNK A   0      -8.123   6.194  66.167  1.00  0.00    -0.115 C  
HETATM   32  H   UNK A   0      -6.329   5.889  65.462  1.00  0.00     0.000 HD 
HETATM   33  O   UNK A   0      -6.778   6.220  66.231  1.00  0.00    -0.053 OA 
BRANCH  31  34
ATOM     34  N   SER A   1      -8.711   5.795  65.091  1.00  0.00    -0.289 NA 
ATOM     35  H   SER A   1      -8.977   6.452  64.358  1.00  0.00     0.000 HD 
BRANCH  34  36
ATOM     36  CA  SER A   1      -8.989   4.332  64.963  1.00  0.00    -0.141 C  
BRANCH  36  37
ATOM     37  CB  SER A   1     -10.492   4.118  65.166  1.00  0.00    -0.155 C  
ATOM     38  HG  SER A   1     -11.991   3.340  64.150  1.00  0.00     0.000 HD 
ATOM     39  OG  SER A   1     -11.058   3.473  64.025  1.00  0.00    -0.304 OA 
ENDBRANCH  36  37
BRANCH  36  40
ATOM     40  C   SER A   1      -8.565   3.854  63.562  1.00  0.00    -0.096 C  
ATOM     41  H   SER A   1      -8.139   4.671  61.819  1.00  0.00     0.000 HD 
ATOM     42  O   SER A   1      -8.401   4.966  62.683  1.00  0.00    -0.091 OA 
ENDBRANCH  36  40
ENDBRANCH  34  36
ENDBRANCH  31  34
ENDBRANCH  18  31
ENDBRANCH   8  10
ENDBRANCH   5   8
ENDBRANCH   1   5
TORSDOF 13
ENDMDL
MODEL      180
REMARK 921   NORMALIZED FREE ENERGY PREDICTED BY IDOCK:   -2.63 KCAL/MOL
REMARK 922        TOTAL FREE ENERGY PREDICTED BY IDOCK:   -5.56 KCAL/MOL
REMARK 923 INTER-LIGAND FREE ENERGY PREDICTED BY IDOCK:   -6.99 KCAL/MOL
REMARK 924 INTRA-LIGAND FREE ENERGY PREDICTED BY IDOCK:    1.43 KCAL/MOL
REMARK 927      BINDING AFFINITY PREDICTED BY RF-SCORE:    0.00 PKD
ROOT
HETATM    1  C   UNK A   0      -9.868   6.686  70.637  1.00  0.00    -0.183 C  
HETATM    2  O   UNK A   0     -10.008   5.368  70.077  1.00  0.00    -0.193 OA 
HETATM    3  C   UNK A   0      -8.569   7.290  70.152  1.00  0.00    -0.140 C  
HETATM    4  H   UNK A   0     -10.824   4.989  70.381  1.00  0.00     0.000 HD 
ENDROOT
BRANCH   1   5
HETATM    5  C   UNK A   0     -11.043   7.506  70.134  1.00  0.00    -0.231 C  
HETATM    6  O   UNK A   0     -11.582   8.297  71.090  1.00  0.00    -0.272 OA 
HETATM    7  H   UNK A   0     -12.318   8.810  70.775  1.00  0.00     0.000 HD 
BRANCH   5   8
HETATM    8  N   UNK A   0     -11.448   7.487  68.906  1.00  0.00    -0.100 NA 
HETATM    9  H   UNK A   0     -12.342   7.059  68.667  1.00  0.00     0.000 HD 
BRANCH   8  10
HETATM   10  C   UNK A   0     -10.634   8.069  67.887  1.00  0.00    -0.145 A  
HETATM   11  C   UNK A   0      -9.999   7.284  66.896  1.00  0.00    -0.232 A  
HETATM   12  I   UNK A   0     -10.399   5.127  66.893  1.00  0.00    -0.164 I  
HETATM   13  C   UNK A   0      -9.269   7.889  65.852  1.00  0.00    -0.102 A  
HETATM   14  I   UNK A   0     -11.340  10.621  69.456  1.00  0.00    -0.399 I  
HETATM   15  C   UNK A   0      -9.411   9.295  65.659  1.00  0.00    -0.256 A  
HETATM   16  I   UNK A   0      -9.002  10.045  63.648  1.00  0.00    -0.285 I  
HETATM   17  C   UNK A   0     -10.587   9.492  67.770  1.00  0.00    -0.261 A  
HETATM   18  C   UNK A   0     -10.062  10.126  66.619  1.00  0.00    -0.283 A  
BRANCH  13  19
HETATM   19  C   UNK A   0      -8.274   7.141  65.020  1.00  0.00    -0.093 C  
HETATM   20  O   UNK A   0      -8.734   6.554  63.906  1.00  0.00    -0.267 OA 
HETATM   21  H   UNK A   0      -8.102   6.079  63.378  1.00  0.00     0.000 HD 
BRANCH  19  22
ATOM     22  N   SER A   1      -7.027   7.059  65.327  1.00  0.00    -0.054 NA 
ATOM     23  H   SER A   1      -6.535   7.848  65.747  1.00  0.00     0.000 HD 
BRANCH  22  24
ATOM     24  CA  SER A   1      -6.325   5.775  65.050  1.00  0.00    -0.037 C  
BRANCH  24  25
ATOM     25  C   SER A   1      -7.356   4.647  65.235  1.00  0.00    -0.076 C  
ATOM     26  H   SER A   1      -8.073   3.156  64.168  1.00  0.00     0.000 HD 
ATOM     27  O   SER A   1      -7.436   3.852  64.054  1.00  0.00    -0.061 OA 
ENDBRANCH  24  25
BRANCH  24  28
ATOM     28  CB  SER A   1      -5.151   5.517  66.018  1.00  0.00    -0.005 C  
ATOM     29  OG  SER A   1      -5.483   4.694  67.135  1.00  0.00    -0.012 OA 
ATOM     30  HG  SER A   1      -4.761   4.536  67.731  1.00  0.00     0.000 HD 
ENDBRANCH  24  28
ENDBRANCH  22  24
ENDBRANCH  19  22
ENDBRANCH  13  19
BRANCH  18  31
HETATM   31  C   UNK A   0     -10.227  11.605  66.368  1.00  0.00    -0.221 C  
HETATM   32  H   UNK A   0      -9.246  13.288  66.475  1.00  0.00     0.000 HD 
HETATM   33  O   UNK A   0      -9.142  12.357  66.633  1.00  0.00    -0.212 OA 
BRANCH  31  34
ATOM     34  N   SER A   1     -11.325  12.164  65.987  1.00  0.00    -0.344 NA 
ATOM     35  H   SER A   1     -12.217  11.935  66.426  1.00  0.00     0.000 HD 
BRANCH  34  36
ATOM     36  CA  SER A   1     -11.237  13.161  64.877  1.00  0.00    -0.310 C  
BRANCH  36  37
ATOM     37  CB  SER A   1     -12.144  12.683  63.740  1.00  0.00    -0.522 C  
ATOM     38  HG  SER A   1     -13.933  11.877  63.560  1.00  0.00     0.000 HD 
ATOM     39  OG  SER A   1     -13.370  12.174  64.265  1.00  0.00    -0.761 OA 
ENDBRANCH  36  37
BRANCH  36  40
ATOM     40  C   SER A   1     -11.704  14.537  65.391  1.00  0.00    -0.354 C  
ATOM     41  H   SER A   1     -11.421  16.431  64.923  1.00  0.00     0.000 HD 
ATOM     42  O   SER A   1     -11.133  15.583  64.606  1.00  0.00    -0.412 OA 
ENDBRANCH  36  40
ENDBRANCH  34  36
ENDBRANCH  31  34
ENDBRANCH  18  31
ENDBRANCH   8  10
ENDBRANCH   5   8
ENDBRANCH   1   5
TORSDOF 13
ENDMDL
MODEL      181
REMARK 921   NORMALIZED FREE ENERGY PREDICTED BY IDOCK:   -2.58 KCAL/MOL
REMARK 922        TOTAL FREE ENERGY PREDICTED BY IDOCK:   -5.47 KCAL/MOL
REMARK 923 INTER-LIGAND FREE ENERGY PREDICTED BY IDOCK:   -6.75 KCAL/MOL
REMARK 924 INTRA-LIGAND FREE ENERGY PREDICTED BY IDOCK:    1.27 KCAL/MOL
REMARK 927      BINDING AFFINITY PREDICTED BY RF-SCORE:    0.00 PKD
ROOT
HETATM    1  C   UNK A   0      -6.998  17.955  68.798  1.00  0.00    -0.262 C  
HETATM    2  O   UNK A   0      -5.993  18.107  67.779  1.00  0.00    -0.155 OA 
HETATM    3  C   UNK A   0      -8.099  18.963  68.557  1.00  0.00    -0.383 C  
HETATM    4  H   UNK A   0      -5.302  17.474  67.931  1.00  0.00     0.000 HD 
ENDROOT
BRANCH   1   5
HETATM    5  C   UNK A   0      -7.546  16.544  68.669  1.00  0.00    -0.213 C  
HETATM    6  O   UNK A   0      -8.552  16.287  69.536  1.00  0.00    -0.125 OA 
HETATM    7  H   UNK A   0      -8.895  15.404  69.455  1.00  0.00     0.000 HD 
BRANCH   5   8
HETATM    8  N   UNK A   0      -7.128  15.699  67.784  1.00  0.00    -0.138 NA 
HETATM    9  H   UNK A   0      -6.330  15.928  67.192  1.00  0.00     0.000 HD 
BRANCH   8  10
HETATM   10  C   UNK A   0      -7.792  14.442  67.642  1.00  0.00    -0.181 A  
HETATM   11  C   UNK A   0      -7.272  13.252  68.204  1.00  0.00    -0.112 A  
HETATM   12  I   UNK A   0      -5.452  13.408  69.419  1.00  0.00    -0.092 I  
HETATM   13  C   UNK A   0      -7.988  12.039  68.120  1.00  0.00    -0.152 A  
HETATM   14  I   UNK A   0      -9.705  16.189  65.982  1.00  0.00    -0.299 I  
HETATM   15  C   UNK A   0      -9.352  12.092  67.709  1.00  0.00    -0.193 A  
HETATM   16  I   UNK A   0     -10.630  10.448  68.372  1.00  0.00    -0.315 I  
HETATM   17  C   UNK A   0      -9.093  14.412  67.054  1.00  0.00    -0.236 A  
HETATM   18  C   UNK A   0      -9.929  13.274  67.156  1.00  0.00    -0.238 A  
BRANCH  13  19
HETATM   19  C   UNK A   0      -7.347  10.704  68.334  1.00  0.00    -0.091 C  
HETATM   20  O   UNK A   0      -6.335  10.650  69.211  1.00  0.00    -0.049 OA 
HETATM   21  H   UNK A   0      -5.928   9.802  69.347  1.00  0.00     0.000 HD 
BRANCH  19  22
ATOM     22  N   SER A   1      -7.736   9.637  67.729  1.00  0.00    -0.094 NA 
ATOM     23  H   SER A   1      -8.723   9.382  67.693  1.00  0.00     0.000 HD 
BRANCH  22  24
ATOM     24  CA  SER A   1      -6.699   8.784  67.084  1.00  0.00    -0.066 C  
BRANCH  24  25
ATOM     25  C   SER A   1      -6.171   9.561  65.864  1.00  0.00    -0.068 C  
ATOM     26  H   SER A   1      -6.765   9.937  64.025  1.00  0.00     0.000 HD 
ATOM     27  O   SER A   1      -7.090   9.458  64.778  1.00  0.00    -0.096 OA 
ENDBRANCH  24  25
BRANCH  24  28
ATOM     28  CB  SER A   1      -7.260   7.435  66.589  1.00  0.00    -0.080 C  
ATOM     29  OG  SER A   1      -7.562   6.508  67.631  1.00  0.00    -0.100 OA 
ATOM     30  HG  SER A   1      -7.907   5.678  67.326  1.00  0.00     0.000 HD 
ENDBRANCH  24  28
ENDBRANCH  22  24
ENDBRANCH  19  22
ENDBRANCH  13  19
BRANCH  18  31
HETATM   31  C   UNK A   0     -11.386  13.308  66.764  1.00  0.00    -0.327 C  
HETATM   32  H   UNK A   0     -13.174  13.222  67.540  1.00  0.00     0.000 HD 
HETATM   33  O   UNK A   0     -12.257  13.201  67.786  1.00  0.00    -0.270 OA 
BRANCH  31  34
ATOM     34  N   SER A   1     -11.816  13.369  65.551  1.00  0.00    -0.345 NA 
ATOM     35  H   SER A   1     -12.143  14.248  65.148  1.00  0.00     0.000 HD 
BRANCH  34  36
ATOM     36  CA  SER A   1     -11.817  12.102  64.758  1.00  0.00    -0.318 C  
BRANCH  36  37
ATOM     37  CB  SER A   1     -12.702  12.317  63.527  1.00  0.00    -0.393 C  
ATOM     38  HG  SER A   1     -13.219  13.820  62.363  1.00  0.00     0.000 HD 
ATOM     39  OG  SER A   1     -12.670  13.687  63.126  1.00  0.00    -0.737 OA 
ENDBRANCH  36  37
BRANCH  36  40
ATOM     40  C   SER A   1     -10.375  11.770  64.329  1.00  0.00    -0.314 C  
ATOM     41  H   SER A   1      -9.455  11.144  62.702  1.00  0.00     0.000 HD 
ATOM     42  O   SER A   1     -10.343  11.349  62.966  1.00  0.00    -0.306 OA 
ENDBRANCH  36  40
ENDBRANCH  34  36
ENDBRANCH  31  34
ENDBRANCH  18  31
ENDBRANCH   8  10
ENDBRANCH   5   8
ENDBRANCH   1   5
TORSDOF 13
ENDMDL
MODEL      182
REMARK 921   NORMALIZED FREE ENERGY PREDICTED BY IDOCK:   -2.56 KCAL/MOL
REMARK 922        TOTAL FREE ENERGY PREDICTED BY IDOCK:   -5.43 KCAL/MOL
REMARK 923 INTER-LIGAND FREE ENERGY PREDICTED BY IDOCK:   -5.29 KCAL/MOL
REMARK 924 INTRA-LIGAND FREE ENERGY PREDICTED BY IDOCK:   -0.14 KCAL/MOL
REMARK 927      BINDING AFFINITY PREDICTED BY RF-SCORE:    0.00 PKD
ROOT
HETATM    1  C   UNK A   0      -9.299  18.628  68.006  1.00  0.00    -0.312 C  
HETATM    2  O   UNK A   0     -10.295  19.663  68.077  1.00  0.00    -0.426 OA 
HETATM    3  C   UNK A   0      -8.223  18.909  69.032  1.00  0.00    -0.193 C  
HETATM    4  H   UNK A   0     -10.970  19.486  67.433  1.00  0.00     0.000 HD 
ENDROOT
BRANCH   1   5
HETATM    5  C   UNK A   0      -9.999  17.320  68.331  1.00  0.00    -0.322 C  
HETATM    6  O   UNK A   0     -11.073  17.086  67.541  1.00  0.00    -0.183 OA 
HETATM    7  H   UNK A   0     -11.512  16.268  67.745  1.00  0.00     0.000 HD 
BRANCH   5   8
HETATM    8  N   UNK A   0      -9.579  16.494  69.232  1.00  0.00    -0.221 NA 
HETATM    9  H   UNK A   0      -9.120  16.842  70.073  1.00  0.00     0.000 HD 
BRANCH   8  10
HETATM   10  C   UNK A   0      -9.760  15.090  69.041  1.00  0.00    -0.229 A  
HETATM   11  C   UNK A   0     -10.839  14.388  69.629  1.00  0.00    -0.111 A  
HETATM   12  I   UNK A   0     -12.315  15.548  70.763  1.00  0.00    -0.434 I  
HETATM   13  C   UNK A   0     -11.043  13.018  69.357  1.00  0.00    -0.137 A  
HETATM   14  I   UNK A   0      -7.147  15.458  67.459  1.00  0.00    -0.153 I  
HETATM   15  C   UNK A   0     -10.319  12.432  68.278  1.00  0.00    -0.227 A  
HETATM   16  I   UNK A   0     -11.213  10.665  67.355  1.00  0.00     0.226 I  
HETATM   17  C   UNK A   0      -8.925  14.408  68.105  1.00  0.00    -0.185 A  
HETATM   18  C   UNK A   0      -9.237  13.108  67.639  1.00  0.00    -0.207 A  
BRANCH  13  19
HETATM   19  C   UNK A   0     -11.896  12.140  70.219  1.00  0.00    -0.254 C  
HETATM   20  O   UNK A   0     -13.198  12.447  70.297  1.00  0.00     0.578 OA 
HETATM   21  H   UNK A   0     -13.739  11.890  70.844  1.00  0.00     0.000 HD 
BRANCH  19  22
ATOM     22  N   SER A   1     -11.432  11.124  70.857  1.00  0.00    -0.205 NA 
ATOM     23  H   SER A   1     -10.529  11.166  71.330  1.00  0.00     0.000 HD 
BRANCH  22  24
ATOM     24  CA  SER A   1     -12.254   9.882  70.881  1.00  0.00    -0.328 C  
BRANCH  24  25
ATOM     25  C   SER A   1     -13.055   9.897  72.197  1.00  0.00    -0.403 C  
ATOM     26  H   SER A   1     -13.331   8.698  73.733  1.00  0.00     0.000 HD 
ATOM     27  O   SER A   1     -12.837   8.689  72.922  1.00  0.00    -0.284 OA 
ENDBRANCH  24  25
BRANCH  24  28
ATOM     28  CB  SER A   1     -11.397   8.599  70.855  1.00  0.00    -0.272 C  
ATOM     29  OG  SER A   1     -12.146   7.398  70.679  1.00  0.00    -0.486 OA 
ATOM     30  HG  SER A   1     -11.618   6.608  70.663  1.00  0.00     0.000 HD 
ENDBRANCH  24  28
ENDBRANCH  22  24
ENDBRANCH  19  22
ENDBRANCH  13  19
BRANCH  18  31
HETATM   31  C   UNK A   0      -8.514  12.474  66.476  1.00  0.00     0.089 C  
HETATM   32  H   UNK A   0      -8.736  12.073  64.580  1.00  0.00     0.000 HD 
HETATM   33  O   UNK A   0      -9.191  12.472  65.312  1.00  0.00     0.180 OA 
BRANCH  31  34
ATOM     34  N   SER A   1      -7.359  11.908  66.554  1.00  0.00    -0.372 NA 
ATOM     35  H   SER A   1      -6.499  12.456  66.573  1.00  0.00     0.000 HD 
BRANCH  34  36
ATOM     36  CA  SER A   1      -7.330  10.414  66.615  1.00  0.00    -0.114 C  
BRANCH  36  37
ATOM     37  CB  SER A   1      -6.513   9.909  65.423  1.00  0.00    -0.094 C  
ATOM     38  HG  SER A   1      -4.711  10.198  64.679  1.00  0.00     0.000 HD 
ATOM     39  OG  SER A   1      -5.218  10.511  65.419  1.00  0.00    -0.082 OA 
ENDBRANCH  36  37
BRANCH  36  40
ATOM     40  C   SER A   1      -6.676   9.972  67.938  1.00  0.00    -0.067 C  
ATOM     41  H   SER A   1      -6.459   8.299  68.959  1.00  0.00     0.000 HD 
ATOM     42  O   SER A   1      -6.863   8.572  68.144  1.00  0.00    -0.067 OA 
ENDBRANCH  36  40
ENDBRANCH  34  36
ENDBRANCH  31  34
ENDBRANCH  18  31
ENDBRANCH   8  10
ENDBRANCH   5   8
ENDBRANCH   1   5
TORSDOF 13
ENDMDL
MODEL      183
REMARK 921   NORMALIZED FREE ENERGY PREDICTED BY IDOCK:   -2.51 KCAL/MOL
REMARK 922        TOTAL FREE ENERGY PREDICTED BY IDOCK:   -5.36 KCAL/MOL
REMARK 923 INTER-LIGAND FREE ENERGY PREDICTED BY IDOCK:   -6.12 KCAL/MOL
REMARK 924 INTRA-LIGAND FREE ENERGY PREDICTED BY IDOCK:    0.76 KCAL/MOL
REMARK 927      BINDING AFFINITY PREDICTED BY RF-SCORE:    0.00 PKD
ROOT
HETATM    1  C   UNK A   0     -12.448   8.316  71.615  1.00  0.00    -0.320 C  
HETATM    2  O   UNK A   0     -12.683   8.353  73.034  1.00  0.00    -0.697 OA 
HETATM    3  C   UNK A   0     -13.405   7.331  70.984  1.00  0.00    -0.148 C  
HETATM    4  H   UNK A   0     -12.081   8.972  73.430  1.00  0.00     0.000 HD 
ENDROOT
BRANCH   1   5
HETATM    5  C   UNK A   0     -12.717   9.716  71.088  1.00  0.00    -0.320 C  
HETATM    6  O   UNK A   0     -13.180  10.558  72.040  1.00  0.00    -0.464 OA 
HETATM    7  H   UNK A   0     -13.349  11.433  71.711  1.00  0.00     0.000 HD 
BRANCH   5   8
HETATM    8  N   UNK A   0     -12.475  10.074  69.870  1.00  0.00    -0.464 NA 
HETATM    9  H   UNK A   0     -13.185   9.953  69.149  1.00  0.00     0.000 HD 
BRANCH   8  10
HETATM   10  C   UNK A   0     -11.205  10.640  69.541  1.00  0.00    -0.272 A  
HETATM   11  C   UNK A   0     -10.115   9.840  69.124  1.00  0.00    -0.192 A  
HETATM   12  I   UNK A   0     -10.462   7.688  68.878  1.00  0.00    -0.091 I  
HETATM   13  C   UNK A   0      -8.896  10.430  68.725  1.00  0.00    -0.157 A  
HETATM   14  I   UNK A   0     -12.675  13.209  70.381  1.00  0.00     0.266 I  
HETATM   15  C   UNK A   0      -8.877  11.836  68.488  1.00  0.00    -0.122 A  
HETATM   16  I   UNK A   0      -7.337  12.569  67.122  1.00  0.00     0.214 I  
HETATM   17  C   UNK A   0     -11.078  12.061  69.478  1.00  0.00    -0.073 A  
HETATM   18  C   UNK A   0      -9.961  12.681  68.870  1.00  0.00     0.090 A  
BRANCH  13  19
HETATM   19  C   UNK A   0      -7.612   9.665  68.651  1.00  0.00    -0.080 C  
HETATM   20  O   UNK A   0      -7.380   8.974  67.527  1.00  0.00    -0.080 OA 
HETATM   21  H   UNK A   0      -6.565   8.489  67.480  1.00  0.00     0.000 HD 
BRANCH  19  22
ATOM     22  N   SER A   1      -6.745   9.662  69.602  1.00  0.00    -0.049 NA 
ATOM     23  H   SER A   1      -6.273  10.520  69.887  1.00  0.00     0.000 HD 
BRANCH  22  24
ATOM     24  CA  SER A   1      -6.452   8.365  70.274  1.00  0.00    -0.035 C  
BRANCH  24  25
ATOM     25  C   SER A   1      -6.421   7.285  69.177  1.00  0.00    -0.036 C  
ATOM     26  H   SER A   1      -6.537   5.323  69.078  1.00  0.00     0.000 HD 
ATOM     27  O   SER A   1      -6.556   5.989  69.755  1.00  0.00    -0.043 OA 
ENDBRANCH  24  25
BRANCH  24  28
ATOM     28  CB  SER A   1      -7.531   7.972  71.305  1.00  0.00    -0.072 C  
ATOM     29  OG  SER A   1      -8.128   9.078  71.979  1.00  0.00    -0.360 OA 
ATOM     30  HG  SER A   1      -8.792   8.835  72.613  1.00  0.00     0.000 HD 
ENDBRANCH  24  28
ENDBRANCH  22  24
ENDBRANCH  19  22
ENDBRANCH  13  19
BRANCH  18  31
HETATM   31  C   UNK A   0      -9.924  14.160  68.573  1.00  0.00    -0.235 C  
HETATM   32  H   UNK A   0      -8.984  15.793  69.080  1.00  0.00     0.000 HD 
HETATM   33  O   UNK A   0      -9.008  14.862  69.267  1.00  0.00    -0.178 OA 
BRANCH  31  34
ATOM     34  N   SER A   1     -10.729  14.765  67.768  1.00  0.00    -0.264 NA 
ATOM     35  H   SER A   1     -11.302  15.549  68.082  1.00  0.00     0.000 HD 
BRANCH  34  36
ATOM     36  CA  SER A   1     -10.790  14.272  66.359  1.00  0.00    -0.307 C  
BRANCH  36  37
ATOM     37  CB  SER A   1     -12.165  13.635  66.140  1.00  0.00    -0.444 C  
ATOM     38  HG  SER A   1     -12.965  12.306  64.925  1.00  0.00     0.000 HD 
ATOM     39  OG  SER A   1     -12.112  12.701  65.062  1.00  0.00    -0.394 OA 
ENDBRANCH  36  37
BRANCH  36  40
ATOM     40  C   SER A   1     -10.591  15.458  65.396  1.00  0.00    -0.410 C  
ATOM     41  H   SER A   1      -9.163  16.746  64.958  1.00  0.00     0.000 HD 
ATOM     42  O   SER A   1      -9.286  16.015  65.551  1.00  0.00    -0.380 OA 
ENDBRANCH  36  40
ENDBRANCH  34  36
ENDBRANCH  31  34
ENDBRANCH  18  31
ENDBRANCH   8  10
ENDBRANCH   5   8
ENDBRANCH   1   5
TORSDOF 13
ENDMDL
MODEL      184
REMARK 921   NORMALIZED FREE ENERGY PREDICTED BY IDOCK:   -2.50 KCAL/MOL
REMARK 922        TOTAL FREE ENERGY PREDICTED BY IDOCK:   -5.34 KCAL/MOL
REMARK 923 INTER-LIGAND FREE ENERGY PREDICTED BY IDOCK:   -5.32 KCAL/MOL
REMARK 924 INTRA-LIGAND FREE ENERGY PREDICTED BY IDOCK:   -0.02 KCAL/MOL
REMARK 927      BINDING AFFINITY PREDICTED BY RF-SCORE:    0.00 PKD
ROOT
HETATM    1  C   UNK A   0     -10.560   4.164  65.751  1.00  0.00     0.169 C  
HETATM    2  O   UNK A   0     -11.776   4.474  65.048  1.00  0.00    -1.044 OA 
HETATM    3  C   UNK A   0      -9.478   3.844  64.744  1.00  0.00    -0.169 C  
HETATM    4  H   UNK A   0     -12.455   4.674  65.681  1.00  0.00     0.000 HD 
ENDROOT
BRANCH   1   5
HETATM    5  C   UNK A   0     -10.183   5.403  66.546  1.00  0.00    -0.245 C  
HETATM    6  O   UNK A   0     -11.250   6.008  67.117  1.00  0.00    -0.538 OA 
HETATM    7  H   UNK A   0     -11.015   6.783  67.613  1.00  0.00     0.000 HD 
BRANCH   5   8
HETATM    8  N   UNK A   0      -8.964   5.802  66.702  1.00  0.00    -0.120 NA 
HETATM    9  H   UNK A   0      -8.270   5.628  65.975  1.00  0.00     0.000 HD 
BRANCH   8  10
HETATM   10  C   UNK A   0      -8.595   6.489  67.899  1.00  0.00    -0.117 A  
HETATM   11  C   UNK A   0      -8.669   5.871  69.169  1.00  0.00    -0.118 A  
HETATM   12  I   UNK A   0      -9.262   3.760  69.245  1.00  0.00    -0.230 I  
HETATM   13  C   UNK A   0      -8.221   6.542  70.327  1.00  0.00    -0.126 A  
HETATM   14  I   UNK A   0      -8.152   8.768  65.879  1.00  0.00    -0.135 I  
HETATM   15  C   UNK A   0      -7.446   7.728  70.159  1.00  0.00    -0.083 A  
HETATM   16  I   UNK A   0      -6.102   8.250  71.800  1.00  0.00    -0.063 I  
HETATM   17  C   UNK A   0      -7.986   7.777  67.796  1.00  0.00    -0.124 A  
HETATM   18  C   UNK A   0      -7.324   8.376  68.893  1.00  0.00    -0.090 A  
BRANCH  13  19
HETATM   19  C   UNK A   0      -8.617   6.126  71.709  1.00  0.00    -0.133 C  
HETATM   20  O   UNK A   0      -8.252   4.897  72.101  1.00  0.00    -0.111 OA 
HETATM   21  H   UNK A   0      -8.503   4.633  72.978  1.00  0.00     0.000 HD 
BRANCH  19  22
ATOM     22  N   SER A   1      -9.267   6.894  72.511  1.00  0.00    -0.136 NA 
ATOM     23  H   SER A   1      -8.791   7.400  73.258  1.00  0.00     0.000 HD 
BRANCH  22  24
ATOM     24  CA  SER A   1     -10.738   7.021  72.314  1.00  0.00    -0.220 C  
BRANCH  24  25
ATOM     25  C   SER A   1     -11.266   5.624  71.938  1.00  0.00    -0.181 C  
ATOM     26  H   SER A   1     -12.195   4.141  72.838  1.00  0.00     0.000 HD 
ATOM     27  O   SER A   1     -11.870   5.003  73.070  1.00  0.00    -0.269 OA 
ENDBRANCH  24  25
BRANCH  24  28
ATOM     28  CB  SER A   1     -11.105   7.996  71.176  1.00  0.00    -0.252 C  
ATOM     29  OG  SER A   1     -10.446   9.259  71.252  1.00  0.00    -0.299 OA 
ATOM     30  HG  SER A   1     -10.672   9.859  70.551  1.00  0.00     0.000 HD 
ENDBRANCH  24  28
ENDBRANCH  22  24
ENDBRANCH  19  22
ENDBRANCH  13  19
BRANCH  18  31
HETATM   31  C   UNK A   0      -6.467   9.609  68.742  1.00  0.00    -0.047 C  
HETATM   32  H   UNK A   0      -4.733  10.185  68.059  1.00  0.00     0.000 HD 
HETATM   33  O   UNK A   0      -5.272   9.409  68.154  1.00  0.00    -0.037 OA 
BRANCH  31  34
ATOM     34  N   SER A   1      -6.784  10.779  69.182  1.00  0.00    -0.066 NA 
ATOM     35  H   SER A   1      -7.000  10.934  70.166  1.00  0.00     0.000 HD 
BRANCH  34  36
ATOM     36  CA  SER A   1      -6.821  11.897  68.191  1.00  0.00    -0.071 C  
BRANCH  36  37
ATOM     37  CB  SER A   1      -8.124  12.673  68.404  1.00  0.00    -0.137 C  
ATOM     38  HG  SER A   1      -9.745  13.090  67.364  1.00  0.00     0.000 HD 
ATOM     39  OG  SER A   1      -8.937  12.608  67.232  1.00  0.00    -0.179 OA 
ENDBRANCH  36  37
BRANCH  36  40
ATOM     40  C   SER A   1      -5.607  12.818  68.417  1.00  0.00    -0.059 C  
ATOM     41  H   SER A   1      -4.874  13.918  69.880  1.00  0.00     0.000 HD 
ATOM     42  O   SER A   1      -5.623  13.350  69.740  1.00  0.00    -0.092 OA 
ENDBRANCH  36  40
ENDBRANCH  34  36
ENDBRANCH  31  34
ENDBRANCH  18  31
ENDBRANCH   8  10
ENDBRANCH   5   8
ENDBRANCH   1   5
TORSDOF 13
ENDMDL
MODEL      185
REMARK 921   NORMALIZED FREE ENERGY PREDICTED BY IDOCK:   -2.49 KCAL/MOL
REMARK 922        TOTAL FREE ENERGY PREDICTED BY IDOCK:   -5.31 KCAL/MOL
REMARK 923 INTER-LIGAND FREE ENERGY PREDICTED BY IDOCK:   -5.70 KCAL/MOL
REMARK 924 INTRA-LIGAND FREE ENERGY PREDICTED BY IDOCK:    0.40 KCAL/MOL
REMARK 927      BINDING AFFINITY PREDICTED BY RF-SCORE:    0.00 PKD
ROOT
HETATM    1  C   UNK A   0      -6.215   8.869  65.756  1.00  0.00    -0.052 C  
HETATM    2  O   UNK A   0      -5.219   9.845  66.113  1.00  0.00    -0.037 OA 
HETATM    3  C   UNK A   0      -5.670   7.993  64.650  1.00  0.00    -0.044 C  
HETATM    4  H   UNK A   0      -5.562  10.395  66.807  1.00  0.00     0.000 HD 
ENDROOT
BRANCH   1   5
HETATM    5  C   UNK A   0      -6.480   8.037  66.998  1.00  0.00    -0.056 C  
HETATM    6  O   UNK A   0      -5.365   7.809  67.729  1.00  0.00    -0.029 OA 
HETATM    7  H   UNK A   0      -5.530   7.288  68.506  1.00  0.00     0.000 HD 
BRANCH   5   8
HETATM    8  N   UNK A   0      -7.659   7.636  67.345  1.00  0.00    -0.106 NA 
HETATM    9  H   UNK A   0      -8.052   6.786  66.941  1.00  0.00     0.000 HD 
BRANCH   8  10
HETATM   10  C   UNK A   0      -8.408   8.392  68.298  1.00  0.00    -0.131 A  
HETATM   11  C   UNK A   0      -9.341   9.380  67.902  1.00  0.00    -0.129 A  
HETATM   12  I   UNK A   0      -9.699   9.644  65.754  1.00  0.00    -0.220 I  
HETATM   13  C   UNK A   0     -10.128  10.055  68.859  1.00  0.00    -0.200 A  
HETATM   14  I   UNK A   0      -6.706   6.721  70.241  1.00  0.00    -0.056 I  
HETATM   15  C   UNK A   0     -10.166   9.535  70.186  1.00  0.00    -0.246 A  
HETATM   16  I   UNK A   0     -11.940  10.017  71.368  1.00  0.00    -0.272 I  
HETATM   17  C   UNK A   0      -8.332   8.033  69.678  1.00  0.00    -0.126 A  
HETATM   18  C   UNK A   0      -9.261   8.523  70.626  1.00  0.00    -0.189 A  
BRANCH  13  19
HETATM   19  C   UNK A   0     -10.828  11.346  68.567  1.00  0.00    -0.211 C  
HETATM   20  O   UNK A   0     -12.095  11.266  68.138  1.00  0.00    -0.635 OA 
HETATM   21  H   UNK A   0     -12.539  12.086  67.953  1.00  0.00     0.000 HD 
BRANCH  19  22
ATOM     22  N   SER A   1     -10.269  12.495  68.722  1.00  0.00    -0.404 NA 
ATOM     23  H   SER A   1     -10.582  13.138  69.449  1.00  0.00     0.000 HD 
BRANCH  22  24
ATOM     24  CA  SER A   1      -9.150  12.854  67.807  1.00  0.00    -0.197 C  
BRANCH  24  25
ATOM     25  C   SER A   1      -8.560  14.183  68.315  1.00  0.00    -0.175 C  
ATOM     26  H   SER A   1      -7.141  15.435  67.773  1.00  0.00     0.000 HD 
ATOM     27  O   SER A   1      -7.505  14.615  67.459  1.00  0.00    -0.169 OA 
ENDBRANCH  24  25
BRANCH  24  28
ATOM     28  CB  SER A   1      -9.615  13.061  66.351  1.00  0.00    -0.257 C  
ATOM     29  OG  SER A   1     -10.097  14.373  66.070  1.00  0.00    -0.294 OA 
ATOM     30  HG  SER A   1     -10.383  14.500  65.173  1.00  0.00     0.000 HD 
ENDBRANCH  24  28
ENDBRANCH  22  24
ENDBRANCH  19  22
ENDBRANCH  13  19
BRANCH  18  31
HETATM   31  C   UNK A   0      -9.352   7.968  72.026  1.00  0.00    -0.178 C  
HETATM   32  H   UNK A   0      -9.008   8.457  73.883  1.00  0.00     0.000 HD 
HETATM   33  O   UNK A   0      -8.952   8.806  73.002  1.00  0.00    -0.309 OA 
BRANCH  31  34
ATOM     34  N   SER A   1      -9.718   6.767  72.315  1.00  0.00    -0.149 NA 
ATOM     35  H   SER A   1     -10.115   6.149  71.608  1.00  0.00     0.000 HD 
BRANCH  34  36
ATOM     36  CA  SER A   1      -9.537   6.316  73.729  1.00  0.00    -0.167 C  
BRANCH  36  37
ATOM     37  CB  SER A   1     -10.541   5.191  73.998  1.00  0.00    -0.288 C  
ATOM     38  HG  SER A   1     -11.241   3.619  73.038  1.00  0.00     0.000 HD 
ATOM     39  OG  SER A   1     -10.618   4.317  72.872  1.00  0.00    -0.177 OA 
ENDBRANCH  36  37
BRANCH  36  40
ATOM     40  C   SER A   1      -8.097   5.804  73.920  1.00  0.00    -0.109 C  
ATOM     41  H   SER A   1      -7.213   4.206  74.663  1.00  0.00     0.000 HD 
ATOM     42  O   SER A   1      -8.101   4.522  74.545  1.00  0.00    -0.090 OA 
ENDBRANCH  36  40
ENDBRANCH  34  36
ENDBRANCH  31  34
ENDBRANCH  18  31
ENDBRANCH   8  10
ENDBRANCH   5   8
ENDBRANCH   1   5
TORSDOF 13
ENDMDL
MODEL      186
REMARK 921   NORMALIZED FREE ENERGY PREDICTED BY IDOCK:   -2.47 KCAL/MOL
REMARK 922        TOTAL FREE ENERGY PREDICTED BY IDOCK:   -5.28 KCAL/MOL
REMARK 923 INTER-LIGAND FREE ENERGY PREDICTED BY IDOCK:   -4.59 KCAL/MOL
REMARK 924 INTRA-LIGAND FREE ENERGY PREDICTED BY IDOCK:   -0.68 KCAL/MOL
REMARK 927      BINDING AFFINITY PREDICTED BY RF-SCORE:    0.00 PKD
ROOT
HETATM    1  C   UNK A   0      -7.127   9.125  64.154  1.00  0.00    -0.095 C  
HETATM    2  O   UNK A   0      -8.222   9.091  63.222  1.00  0.00    -0.162 OA 
HETATM    3  C   UNK A   0      -6.809  10.565  64.487  1.00  0.00     0.086 C  
HETATM    4  H   UNK A   0      -8.421   8.186  63.012  1.00  0.00     0.000 HD 
ENDROOT
BRANCH   1   5
HETATM    5  C   UNK A   0      -7.589   8.391  65.402  1.00  0.00    -0.092 C  
HETATM    6  O   UNK A   0      -8.596   7.520  65.159  1.00  0.00    -0.316 OA 
HETATM    7  H   UNK A   0      -8.885   7.061  65.939  1.00  0.00     0.000 HD 
BRANCH   5   8
HETATM    8  N   UNK A   0      -7.038   8.545  66.560  1.00  0.00    -0.078 NA 
HETATM    9  H   UNK A   0      -6.202   9.120  66.659  1.00  0.00     0.000 HD 
BRANCH   8  10
HETATM   10  C   UNK A   0      -7.608   7.904  67.703  1.00  0.00    -0.109 A  
HETATM   11  C   UNK A   0      -7.079   6.702  68.228  1.00  0.00    -0.083 A  
HETATM   12  I   UNK A   0      -5.260   5.896  67.302  1.00  0.00    -0.005 I  
HETATM   13  C   UNK A   0      -7.608   6.133  69.406  1.00  0.00    -0.098 A  
HETATM   14  I   UNK A   0      -9.581  10.250  67.432  1.00  0.00    -0.211 I  
HETATM   15  C   UNK A   0      -8.489   6.926  70.198  1.00  0.00    -0.140 A  
HETATM   16  I   UNK A   0      -8.611   6.416  72.320  1.00  0.00    -0.112 I  
HETATM   17  C   UNK A   0      -8.639   8.575  68.428  1.00  0.00    -0.139 A  
HETATM   18  C   UNK A   0      -9.032   8.156  69.721  1.00  0.00    -0.144 A  
BRANCH  13  19
HETATM   19  C   UNK A   0      -7.373   4.706  69.792  1.00  0.00    -0.054 C  
HETATM   20  O   UNK A   0      -6.326   4.458  70.591  1.00  0.00    -0.024 OA 
HETATM   21  H   UNK A   0      -6.178   3.552  70.836  1.00  0.00     0.000 HD 
BRANCH  19  22
ATOM     22  N   SER A   1      -8.132   3.742  69.402  1.00  0.00    -0.054 NA 
ATOM     23  H   SER A   1      -8.480   3.046  70.061  1.00  0.00     0.000 HD 
BRANCH  22  24
ATOM     24  CA  SER A   1      -8.484   3.676  67.956  1.00  0.00    -0.093 C  
BRANCH  24  25
ATOM     25  C   SER A   1      -9.948   4.137  67.827  1.00  0.00     0.027 C  
ATOM     26  H   SER A   1     -10.994   5.305  66.637  1.00  0.00     0.000 HD 
ATOM     27  O   SER A   1     -10.091   5.020  66.717  1.00  0.00    -0.190 OA 
ENDBRANCH  24  25
BRANCH  24  28
ATOM     28  CB  SER A   1      -8.378   2.247  67.382  1.00  0.00    -0.079 C  
ATOM     29  OG  SER A   1      -7.268   1.499  67.875  1.00  0.00    -0.038 OA 
ATOM     30  HG  SER A   1      -7.203   0.620  67.521  1.00  0.00     0.000 HD 
ENDBRANCH  24  28
ENDBRANCH  22  24
ENDBRANCH  19  22
ENDBRANCH  13  19
BRANCH  18  31
HETATM   31  C   UNK A   0      -9.933   8.990  70.599  1.00  0.00    -0.233 C  
HETATM   32  H   UNK A   0      -9.872  10.224  72.109  1.00  0.00     0.000 HD 
HETATM   33  O   UNK A   0      -9.305   9.699  71.556  1.00  0.00    -0.053 OA 
BRANCH  31  34
ATOM     34  N   SER A   1     -11.219   9.009  70.519  1.00  0.00    -0.259 NA 
ATOM     35  H   SER A   1     -11.733   8.259  70.055  1.00  0.00     0.000 HD 
BRANCH  34  36
ATOM     36  CA  SER A   1     -11.928  10.172  71.134  1.00  0.00    -0.386 C  
BRANCH  36  37
ATOM     37  CB  SER A   1     -12.178  11.208  70.034  1.00  0.00    -0.326 C  
ATOM     38  HG  SER A   1     -12.413  13.160  69.914  1.00  0.00     0.000 HD 
ATOM     39  OG  SER A   1     -12.258  12.518  70.597  1.00  0.00    -0.369 OA 
ENDBRANCH  36  37
BRANCH  36  40
ATOM     40  C   SER A   1     -13.265   9.695  71.733  1.00  0.00    -0.430 C  
ATOM     41  H   SER A   1     -14.198   7.981  72.013  1.00  0.00     0.000 HD 
ATOM     42  O   SER A   1     -13.374   8.275  71.644  1.00  0.00    -0.333 OA 
ENDBRANCH  36  40
ENDBRANCH  34  36
ENDBRANCH  31  34
ENDBRANCH  18  31
ENDBRANCH   8  10
ENDBRANCH   5   8
ENDBRANCH   1   5
TORSDOF 13
ENDMDL
MODEL      187
REMARK 921   NORMALIZED FREE ENERGY PREDICTED BY IDOCK:   -2.46 KCAL/MOL
REMARK 922        TOTAL FREE ENERGY PREDICTED BY IDOCK:   -5.26 KCAL/MOL
REMARK 923 INTER-LIGAND FREE ENERGY PREDICTED BY IDOCK:   -6.39 KCAL/MOL
REMARK 924 INTRA-LIGAND FREE ENERGY PREDICTED BY IDOCK:    1.13 KCAL/MOL
REMARK 927      BINDING AFFINITY PREDICTED BY RF-SCORE:    0.00 PKD
ROOT
HETATM    1  C   UNK A   0     -10.353   9.341  70.835  1.00  0.00    -0.296 C  
HETATM    2  O   UNK A   0     -11.084   8.772  71.936  1.00  0.00    -0.318 OA 
HETATM    3  C   UNK A   0      -8.925   8.844  70.885  1.00  0.00    -0.273 C  
HETATM    4  H   UNK A   0     -11.981   9.084  71.904  1.00  0.00     0.000 HD 
ENDROOT
BRANCH   1   5
HETATM    5  C   UNK A   0     -11.028   8.859  69.562  1.00  0.00    -0.084 C  
HETATM    6  O   UNK A   0     -11.310   7.536  69.583  1.00  0.00    -0.456 OA 
HETATM    7  H   UNK A   0     -11.732   7.235  68.787  1.00  0.00     0.000 HD 
BRANCH   5   8
HETATM    8  N   UNK A   0     -11.347   9.645  68.587  1.00  0.00    -0.482 NA 
HETATM    9  H   UNK A   0     -12.265   9.573  68.149  1.00  0.00     0.000 HD 
BRANCH   8  10
HETATM   10  C   UNK A   0     -10.404  10.615  68.127  1.00  0.00    -0.176 A  
HETATM   11  C   UNK A   0     -10.460  11.967  68.539  1.00  0.00    -0.229 A  
HETATM   12  I   UNK A   0     -11.982  12.522  70.019  1.00  0.00    -0.054 I  
HETATM   13  C   UNK A   0      -9.469  12.888  68.136  1.00  0.00    -0.218 A  
HETATM   14  I   UNK A   0      -9.402   8.178  66.539  1.00  0.00    -0.257 I  
HETATM   15  C   UNK A   0      -8.277  12.375  67.544  1.00  0.00    -0.173 A  
HETATM   16  I   UNK A   0      -6.495  13.628  67.708  1.00  0.00    -0.033 I  
HETATM   17  C   UNK A   0      -9.284  10.177  67.357  1.00  0.00    -0.141 A  
HETATM   18  C   UNK A   0      -8.165  11.014  67.131  1.00  0.00    -0.133 A  
BRANCH  13  19
HETATM   19  C   UNK A   0      -9.665  14.370  68.203  1.00  0.00    -0.223 C  
HETATM   20  O   UNK A   0      -9.833  14.907  69.419  1.00  0.00    -0.335 OA 
HETATM   21  H   UNK A   0      -9.958  15.847  69.461  1.00  0.00     0.000 HD 
BRANCH  19  22
ATOM     22  N   SER A   1      -9.665  15.122  67.158  1.00  0.00    -0.225 NA 
ATOM     23  H   SER A   1      -9.287  14.791  66.271  1.00  0.00     0.000 HD 
BRANCH  22  24
ATOM     24  CA  SER A   1     -10.235  16.493  67.287  1.00  0.00    -0.287 C  
BRANCH  24  25
ATOM     25  C   SER A   1      -9.620  17.345  66.162  1.00  0.00    -0.193 C  
ATOM     26  H   SER A   1     -10.195  18.082  64.430  1.00  0.00     0.000 HD 
ATOM     27  O   SER A   1     -10.575  17.556  65.124  1.00  0.00    -0.657 OA 
ENDBRANCH  24  25
BRANCH  24  28
ATOM     28  CB  SER A   1      -9.890  17.157  68.636  1.00  0.00    -0.300 C  
ATOM     29  OG  SER A   1     -11.021  17.431  69.461  1.00  0.00    -0.268 OA 
ATOM     30  HG  SER A   1     -10.808  17.840  70.291  1.00  0.00     0.000 HD 
ENDBRANCH  24  28
ENDBRANCH  22  24
ENDBRANCH  19  22
ENDBRANCH  13  19
BRANCH  18  31
HETATM   31  C   UNK A   0      -6.878  10.494  66.540  1.00  0.00    -0.113 C  
HETATM   32  H   UNK A   0      -5.310   9.429  67.002  1.00  0.00     0.000 HD 
HETATM   33  O   UNK A   0      -6.121   9.756  67.374  1.00  0.00    -0.057 OA 
BRANCH  31  34
ATOM     34  N   SER A   1      -6.458  10.761  65.351  1.00  0.00    -0.347 NA 
ATOM     35  H   SER A   1      -6.503  11.707  64.972  1.00  0.00     0.000 HD 
BRANCH  34  36
ATOM     36  CA  SER A   1      -5.903   9.628  64.549  1.00  0.00    -0.083 C  
BRANCH  36  37
ATOM     37  CB  SER A   1      -7.063   8.700  64.178  1.00  0.00    -0.090 C  
ATOM     38  HG  SER A   1      -7.747   7.819  62.554  1.00  0.00     0.000 HD 
ATOM     39  OG  SER A   1      -7.027   8.395  62.784  1.00  0.00    -0.090 OA 
ENDBRANCH  36  37
BRANCH  36  40
ATOM     40  C   SER A   1      -5.236  10.184  63.277  1.00  0.00    -0.109 C  
ATOM     41  H   SER A   1      -5.451  11.744  62.090  1.00  0.00     0.000 HD 
ATOM     42  O   SER A   1      -5.862  11.401  62.874  1.00  0.00     0.312 OA 
ENDBRANCH  36  40
ENDBRANCH  34  36
ENDBRANCH  31  34
ENDBRANCH  18  31
ENDBRANCH   8  10
ENDBRANCH   5   8
ENDBRANCH   1   5
TORSDOF 13
ENDMDL
MODEL      188
REMARK 921   NORMALIZED FREE ENERGY PREDICTED BY IDOCK:   -2.46 KCAL/MOL
REMARK 922        TOTAL FREE ENERGY PREDICTED BY IDOCK:   -5.25 KCAL/MOL
REMARK 923 INTER-LIGAND FREE ENERGY PREDICTED BY IDOCK:   -6.50 KCAL/MOL
REMARK 924 INTRA-LIGAND FREE ENERGY PREDICTED BY IDOCK:    1.24 KCAL/MOL
REMARK 927      BINDING AFFINITY PREDICTED BY RF-SCORE:    0.00 PKD
ROOT
HETATM    1  C   UNK A   0     -11.330  11.598  64.951  1.00  0.00    -0.184 C  
HETATM    2  O   UNK A   0     -12.443  12.471  65.213  1.00  0.00    -0.608 OA 
HETATM    3  C   UNK A   0     -11.259  11.326  63.465  1.00  0.00    -0.177 C  
HETATM    4  H   UNK A   0     -12.488  12.642  66.147  1.00  0.00     0.000 HD 
ENDROOT
BRANCH   1   5
HETATM    5  C   UNK A   0     -10.080  12.330  65.407  1.00  0.00    -0.269 C  
HETATM    6  O   UNK A   0      -9.841  13.458  64.700  1.00  0.00    -0.616 OA 
HETATM    7  H   UNK A   0      -9.059  13.916  64.985  1.00  0.00     0.000 HD 
BRANCH   5   8
HETATM    8  N   UNK A   0      -9.354  11.941  66.403  1.00  0.00    -0.222 NA 
HETATM    9  H   UNK A   0      -8.731  12.598  66.872  1.00  0.00     0.000 HD 
BRANCH   8  10
HETATM   10  C   UNK A   0      -9.429  10.584  66.842  1.00  0.00    -0.165 A  
HETATM   11  C   UNK A   0      -8.732   9.544  66.184  1.00  0.00    -0.145 A  
HETATM   12  I   UNK A   0      -7.416  10.094  64.516  1.00  0.00     0.021 I  
HETATM   13  C   UNK A   0      -8.756   8.225  66.687  1.00  0.00    -0.150 A  
HETATM   14  I   UNK A   0     -11.360  11.856  68.873  1.00  0.00    -0.414 I  
HETATM   15  C   UNK A   0      -9.260   8.018  68.004  1.00  0.00    -0.135 A  
HETATM   16  I   UNK A   0      -8.541   6.239  69.049  1.00  0.00    -0.121 I  
HETATM   17  C   UNK A   0     -10.098  10.292  68.070  1.00  0.00    -0.162 A  
HETATM   18  C   UNK A   0      -9.952   9.042  68.718  1.00  0.00    -0.194 A  
BRANCH  13  19
HETATM   19  C   UNK A   0      -8.383   7.036  65.858  1.00  0.00    -0.141 C  
HETATM   20  O   UNK A   0      -7.075   6.817  65.665  1.00  0.00    -0.067 OA 
HETATM   21  H   UNK A   0      -6.838   6.062  65.139  1.00  0.00     0.000 HD 
BRANCH  19  22
ATOM     22  N   SER A   1      -9.254   6.236  65.351  1.00  0.00    -0.360 NA 
ATOM     23  H   SER A   1     -10.254   6.417  65.447  1.00  0.00     0.000 HD 
BRANCH  22  24
ATOM     24  CA  SER A   1      -8.757   5.036  64.622  1.00  0.00    -0.141 C  
BRANCH  24  25
ATOM     25  C   SER A   1      -8.128   4.099  65.670  1.00  0.00    -0.101 C  
ATOM     26  H   SER A   1      -6.623   2.834  65.757  1.00  0.00     0.000 HD 
ATOM     27  O   SER A   1      -7.011   3.412  65.110  1.00  0.00    -0.051 OA 
ENDBRANCH  24  25
BRANCH  24  28
ATOM     28  CB  SER A   1      -7.678   5.380  63.575  1.00  0.00    -0.083 C  
ATOM     29  OG  SER A   1      -8.053   6.411  62.664  1.00  0.00    -0.109 OA 
ATOM     30  HG  SER A   1      -7.388   6.623  62.019  1.00  0.00     0.000 HD 
ENDBRANCH  24  28
ENDBRANCH  22  24
ENDBRANCH  19  22
ENDBRANCH  13  19
BRANCH  18  31
HETATM   31  C   UNK A   0     -10.441   8.801  70.124  1.00  0.00    -0.213 C  
HETATM   32  H   UNK A   0     -10.326   9.543  71.925  1.00  0.00     0.000 HD 
HETATM   33  O   UNK A   0     -10.018   9.694  71.039  1.00  0.00    -0.247 OA 
BRANCH  31  34
ATOM     34  N   SER A   1     -11.162   7.796  70.487  1.00  0.00    -0.266 NA 
ATOM     35  H   SER A   1     -11.686   7.246  69.806  1.00  0.00     0.000 HD 
BRANCH  34  36
ATOM     36  CA  SER A   1     -11.198   7.468  71.945  1.00  0.00    -0.248 C  
BRANCH  36  37
ATOM     37  CB  SER A   1     -12.068   6.221  72.126  1.00  0.00    -0.252 C  
ATOM     38  HG  SER A   1     -11.836   4.383  72.799  1.00  0.00     0.000 HD 
ATOM     39  OG  SER A   1     -11.297   5.157  72.686  1.00  0.00    -0.243 OA 
ENDBRANCH  36  37
BRANCH  36  40
ATOM     40  C   SER A   1      -9.766   7.198  72.442  1.00  0.00    -0.149 C  
ATOM     41  H   SER A   1      -8.718   7.509  74.083  1.00  0.00     0.000 HD 
ATOM     42  O   SER A   1      -9.601   7.675  73.776  1.00  0.00    -0.285 OA 
ENDBRANCH  36  40
ENDBRANCH  34  36
ENDBRANCH  31  34
ENDBRANCH  18  31
ENDBRANCH   8  10
ENDBRANCH   5   8
ENDBRANCH   1   5
TORSDOF 13
ENDMDL
MODEL      189
REMARK 921   NORMALIZED FREE ENERGY PREDICTED BY IDOCK:   -2.43 KCAL/MOL
REMARK 922        TOTAL FREE ENERGY PREDICTED BY IDOCK:   -5.21 KCAL/MOL
REMARK 923 INTER-LIGAND FREE ENERGY PREDICTED BY IDOCK:   -6.45 KCAL/MOL
REMARK 924 INTRA-LIGAND FREE ENERGY PREDICTED BY IDOCK:    1.24 KCAL/MOL
REMARK 927      BINDING AFFINITY PREDICTED BY RF-SCORE:    0.00 PKD
ROOT
HETATM    1  C   UNK A   0     -12.927   8.268  71.777  1.00  0.00    -0.344 C  
HETATM    2  O   UNK A   0     -12.700   8.463  73.184  1.00  0.00    -0.656 OA 
HETATM    3  C   UNK A   0     -14.407   8.064  71.541  1.00  0.00    -0.546 C  
HETATM    4  H   UNK A   0     -11.771   8.590  73.331  1.00  0.00     0.000 HD 
ENDROOT
BRANCH   1   5
HETATM    5  C   UNK A   0     -12.456   9.531  71.076  1.00  0.00    -0.267 C  
HETATM    6  O   UNK A   0     -12.528  10.629  71.863  1.00  0.00    -0.294 OA 
HETATM    7  H   UNK A   0     -12.233  11.419  71.425  1.00  0.00     0.000 HD 
BRANCH   5   8
HETATM    8  N   UNK A   0     -11.987   9.541  69.872  1.00  0.00    -0.428 NA 
HETATM    9  H   UNK A   0     -12.619   9.485  69.074  1.00  0.00     0.000 HD 
BRANCH   8  10
HETATM   10  C   UNK A   0     -10.576   9.630  69.666  1.00  0.00    -0.233 A  
HETATM   11  C   UNK A   0      -9.715   8.530  69.896  1.00  0.00    -0.179 A  
HETATM   12  I   UNK A   0     -10.630   6.621  70.471  1.00  0.00    -0.333 I  
HETATM   13  C   UNK A   0      -8.337   8.619  69.606  1.00  0.00    -0.123 A  
HETATM   14  I   UNK A   0     -11.345  12.532  68.994  1.00  0.00    -0.317 I  
HETATM   15  C   UNK A   0      -7.883   9.725  68.830  1.00  0.00    -0.087 A  
HETATM   16  I   UNK A   0      -6.028   9.431  67.713  1.00  0.00    -0.053 I  
HETATM   17  C   UNK A   0     -10.039  10.808  69.064  1.00  0.00    -0.211 A  
HETATM   18  C   UNK A   0      -8.720  10.847  68.553  1.00  0.00    -0.153 A  
BRANCH  13  19
HETATM   19  C   UNK A   0      -7.328   7.668  70.172  1.00  0.00    -0.076 C  
HETATM   20  O   UNK A   0      -7.042   6.581  69.441  1.00  0.00    -0.071 OA 
HETATM   21  H   UNK A   0      -6.402   5.978  69.800  1.00  0.00     0.000 HD 
BRANCH  19  22
ATOM     22  N   SER A   1      -6.738   7.864  71.298  1.00  0.00    -0.041 NA 
ATOM     23  H   SER A   1      -5.926   8.478  71.367  1.00  0.00     0.000 HD 
BRANCH  22  24
ATOM     24  CA  SER A   1      -7.276   7.164  72.498  1.00  0.00    -0.072 C  
BRANCH  24  25
ATOM     25  C   SER A   1      -7.174   8.149  73.678  1.00  0.00    -0.141 C  
ATOM     26  H   SER A   1      -5.956   9.579  74.264  1.00  0.00     0.000 HD 
ATOM     27  O   SER A   1      -6.019   8.972  73.535  1.00  0.00    -0.231 OA 
ENDBRANCH  24  25
BRANCH  24  28
ATOM     28  CB  SER A   1      -6.474   5.897  72.859  1.00  0.00    -0.064 C  
ATOM     29  OG  SER A   1      -6.817   5.325  74.120  1.00  0.00    -0.074 OA 
ATOM     30  HG  SER A   1      -6.323   4.545  74.342  1.00  0.00     0.000 HD 
ENDBRANCH  24  28
ENDBRANCH  22  24
ENDBRANCH  19  22
ENDBRANCH  13  19
BRANCH  18  31
HETATM   31  C   UNK A   0      -8.220  11.986  67.698  1.00  0.00    -0.155 C  
HETATM   32  H   UNK A   0      -6.702  13.197  67.510  1.00  0.00     0.000 HD 
HETATM   33  O   UNK A   0      -7.017  12.480  68.048  1.00  0.00    -0.076 OA 
BRANCH  31  34
ATOM     34  N   SER A   1      -8.884  12.522  66.733  1.00  0.00    -0.290 NA 
ATOM     35  H   SER A   1      -9.207  13.488  66.784  1.00  0.00     0.000 HD 
BRANCH  34  36
ATOM     36  CA  SER A   1      -9.161  11.672  65.535  1.00  0.00    -0.099 C  
BRANCH  36  37
ATOM     37  CB  SER A   1     -10.181  10.604  65.940  1.00  0.00    -0.251 C  
ATOM     38  HG  SER A   1     -10.329   8.640  65.855  1.00  0.00     0.000 HD 
ATOM     39  OG  SER A   1      -9.696   9.303  65.604  1.00  0.00    -0.284 OA 
ENDBRANCH  36  37
BRANCH  36  40
ATOM     40  C   SER A   1      -9.729  12.552  64.406  1.00  0.00     0.061 C  
ATOM     41  H   SER A   1     -11.033  12.366  62.939  1.00  0.00     0.000 HD 
ATOM     42  O   SER A   1     -10.683  11.823  63.635  1.00  0.00    -0.360 OA 
ENDBRANCH  36  40
ENDBRANCH  34  36
ENDBRANCH  31  34
ENDBRANCH  18  31
ENDBRANCH   8  10
ENDBRANCH   5   8
ENDBRANCH   1   5
TORSDOF 13
ENDMDL
MODEL      190
REMARK 921   NORMALIZED FREE ENERGY PREDICTED BY IDOCK:   -2.40 KCAL/MOL
REMARK 922        TOTAL FREE ENERGY PREDICTED BY IDOCK:   -5.16 KCAL/MOL
REMARK 923 INTER-LIGAND FREE ENERGY PREDICTED BY IDOCK:   -6.45 KCAL/MOL
REMARK 924 INTRA-LIGAND FREE ENERGY PREDICTED BY IDOCK:    1.29 KCAL/MOL
REMARK 927      BINDING AFFINITY PREDICTED BY RF-SCORE:    0.00 PKD
ROOT
HETATM    1  C   UNK A   0     -12.473  15.281  70.686  1.00  0.00    -0.406 C  
HETATM    2  O   UNK A   0     -13.769  15.622  70.162  1.00  0.00    -0.446 OA 
HETATM    3  C   UNK A   0     -12.291  13.781  70.611  1.00  0.00    -0.445 C  
HETATM    4  H   UNK A   0     -13.882  16.564  70.209  1.00  0.00     0.000 HD 
ENDROOT
BRANCH   1   5
HETATM    5  C   UNK A   0     -11.446  15.974  69.806  1.00  0.00    -0.318 C  
HETATM    6  O   UNK A   0     -10.688  16.867  70.483  1.00  0.00    -0.063 OA 
HETATM    7  H   UNK A   0     -10.046  17.301  69.933  1.00  0.00     0.000 HD 
BRANCH   5   8
HETATM    8  N   UNK A   0     -11.282  15.698  68.554  1.00  0.00    -0.323 NA 
HETATM    9  H   UNK A   0     -12.076  15.405  67.985  1.00  0.00     0.000 HD 
BRANCH   8  10
HETATM   10  C   UNK A   0      -9.981  15.804  67.974  1.00  0.00    -0.222 A  
HETATM   11  C   UNK A   0      -9.461  17.040  67.524  1.00  0.00    -0.246 A  
HETATM   12  I   UNK A   0     -10.674  18.838  67.852  1.00  0.00     0.066 I  
HETATM   13  C   UNK A   0      -8.142  17.133  67.031  1.00  0.00    -0.228 A  
HETATM   14  I   UNK A   0     -10.057  12.762  68.434  1.00  0.00    -0.105 I  
HETATM   15  C   UNK A   0      -7.263  16.032  67.251  1.00  0.00    -0.206 A  
HETATM   16  I   UNK A   0      -5.125  16.483  67.268  1.00  0.00     0.016 I  
HETATM   17  C   UNK A   0      -9.122  14.663  67.994  1.00  0.00    -0.189 A  
HETATM   18  C   UNK A   0      -7.736  14.771  67.724  1.00  0.00    -0.170 A  
BRANCH  13  19
HETATM   19  C   UNK A   0      -7.668  18.283  66.197  1.00  0.00    -0.220 C  
HETATM   20  O   UNK A   0      -6.966  17.985  65.095  1.00  0.00    -0.313 OA 
HETATM   21  H   UNK A   0      -6.666  18.715  64.566  1.00  0.00     0.000 HD 
BRANCH  19  22
ATOM     22  N   SER A   1      -7.918  19.510  66.493  1.00  0.00    -0.285 NA 
ATOM     23  H   SER A   1      -8.832  19.922  66.301  1.00  0.00     0.000 HD 
BRANCH  22  24
ATOM     24  CA  SER A   1      -6.832  20.310  67.124  1.00  0.00    -0.245 C  
BRANCH  24  25
ATOM     25  C   SER A   1      -5.625  20.265  66.168  1.00  0.00    -0.173 C  
ATOM     26  H   SER A   1      -5.217  20.839  64.330  1.00  0.00     0.000 HD 
ATOM     27  O   SER A   1      -5.961  20.867  64.920  1.00  0.00    -0.244 OA 
ENDBRANCH  24  25
BRANCH  24  28
ATOM     28  CB  SER A   1      -6.387  19.740  68.487  1.00  0.00    -0.269 C  
ATOM     29  OG  SER A   1      -7.366  19.854  69.517  1.00  0.00    -0.250 OA 
ATOM     30  HG  SER A   1      -7.092  19.503  70.356  1.00  0.00     0.000 HD 
ENDBRANCH  24  28
ENDBRANCH  22  24
ENDBRANCH  19  22
ENDBRANCH  13  19
BRANCH  18  31
HETATM   31  C   UNK A   0      -6.775  13.637  67.981  1.00  0.00    -0.141 C  
HETATM   32  H   UNK A   0      -5.717  12.830  69.407  1.00  0.00     0.000 HD 
HETATM   33  O   UNK A   0      -6.322  13.544  69.246  1.00  0.00    -0.099 OA 
BRANCH  31  34
ATOM     34  N   SER A   1      -6.341  12.827  67.077  1.00  0.00    -0.488 NA 
ATOM     35  H   SER A   1      -5.864  13.170  66.243  1.00  0.00     0.000 HD 
BRANCH  34  36
ATOM     36  CA  SER A   1      -6.563  11.366  67.301  1.00  0.00    -0.104 C  
BRANCH  36  37
ATOM     37  CB  SER A   1      -7.098  10.765  65.998  1.00  0.00    -0.102 C  
ATOM     38  HG  SER A   1      -8.855  10.482  65.151  1.00  0.00     0.000 HD 
ATOM     39  OG  SER A   1      -8.522  10.855  65.960  1.00  0.00    -0.163 OA 
ENDBRANCH  36  37
BRANCH  36  40
ATOM     40  C   SER A   1      -5.228  10.702  67.687  1.00  0.00    -0.036 C  
ATOM     41  H   SER A   1      -4.592   8.898  68.166  1.00  0.00     0.000 HD 
ATOM     42  O   SER A   1      -5.414   9.308  67.927  1.00  0.00    -0.034 OA 
ENDBRANCH  36  40
ENDBRANCH  34  36
ENDBRANCH  31  34
ENDBRANCH  18  31
ENDBRANCH   8  10
ENDBRANCH   5   8
ENDBRANCH   1   5
TORSDOF 13
ENDMDL
MODEL      191
REMARK 921   NORMALIZED FREE ENERGY PREDICTED BY IDOCK:   -2.39 KCAL/MOL
REMARK 922        TOTAL FREE ENERGY PREDICTED BY IDOCK:   -5.14 KCAL/MOL
REMARK 923 INTER-LIGAND FREE ENERGY PREDICTED BY IDOCK:   -7.63 KCAL/MOL
REMARK 924 INTRA-LIGAND FREE ENERGY PREDICTED BY IDOCK:    2.48 KCAL/MOL
REMARK 927      BINDING AFFINITY PREDICTED BY RF-SCORE:    0.00 PKD
ROOT
HETATM    1  C   UNK A   0      -9.038  10.617  63.480  1.00  0.00    -0.238 C  
HETATM    2  O   UNK A   0      -8.719  11.677  62.560  1.00  0.00    -0.603 OA 
HETATM    3  C   UNK A   0      -7.779   9.839  63.789  1.00  0.00    -0.135 C  
HETATM    4  H   UNK A   0      -9.510  12.165  62.366  1.00  0.00     0.000 HD 
ENDROOT
BRANCH   1   5
HETATM    5  C   UNK A   0      -9.568  11.275  64.742  1.00  0.00    -0.235 C  
HETATM    6  O   UNK A   0      -8.589  11.807  65.510  1.00  0.00    -0.384 OA 
HETATM    7  H   UNK A   0      -8.920  12.219  66.300  1.00  0.00     0.000 HD 
BRANCH   5   8
HETATM    8  N   UNK A   0     -10.826  11.363  65.022  1.00  0.00    -0.275 NA 
HETATM    9  H   UNK A   0     -11.522  10.974  64.386  1.00  0.00     0.000 HD 
BRANCH   8  10
HETATM   10  C   UNK A   0     -11.237  12.010  66.228  1.00  0.00    -0.342 A  
HETATM   11  C   UNK A   0     -11.309  11.319  67.460  1.00  0.00    -0.288 A  
HETATM   12  I   UNK A   0     -10.651   9.227  67.498  1.00  0.00    -0.080 I  
HETATM   13  C   UNK A   0     -11.637  12.000  68.652  1.00  0.00    -0.372 A  
HETATM   14  I   UNK A   0     -11.570  14.368  64.279  1.00  0.00     0.017 I  
HETATM   15  C   UNK A   0     -11.622  13.425  68.638  1.00  0.00    -0.327 A  
HETATM   16  I   UNK A   0     -11.292  14.412  70.560  1.00  0.00     0.238 I  
HETATM   17  C   UNK A   0     -11.426  13.425  66.222  1.00  0.00    -0.325 A  
HETATM   18  C   UNK A   0     -11.529  14.167  67.423  1.00  0.00    -0.369 A  
BRANCH  13  19
HETATM   19  C   UNK A   0     -12.104  11.292  69.886  1.00  0.00    -0.341 C  
HETATM   20  O   UNK A   0     -12.129  12.004  71.021  1.00  0.00    -0.363 OA 
HETATM   21  H   UNK A   0     -12.426  11.554  71.804  1.00  0.00     0.000 HD 
BRANCH  19  22
ATOM     22  N   SER A   1     -12.483  10.062  69.885  1.00  0.00    -0.464 NA 
ATOM     23  H   SER A   1     -13.284   9.758  69.331  1.00  0.00     0.000 HD 
BRANCH  22  24
ATOM     24  CA  SER A   1     -11.715   9.096  70.719  1.00  0.00    -0.256 C  
BRANCH  24  25
ATOM     25  C   SER A   1     -12.488   8.927  72.041  1.00  0.00    -0.392 C  
ATOM     26  H   SER A   1     -12.379   7.787  73.642  1.00  0.00     0.000 HD 
ATOM     27  O   SER A   1     -11.902   7.892  72.826  1.00  0.00    -0.340 OA 
ENDBRANCH  24  25
BRANCH  24  28
ATOM     28  CB  SER A   1     -10.294   9.596  71.054  1.00  0.00    -0.222 C  
ATOM     29  OG  SER A   1      -9.369   8.559  71.375  1.00  0.00    -0.170 OA 
ATOM     30  HG  SER A   1      -8.494   8.867  71.581  1.00  0.00     0.000 HD 
ENDBRANCH  24  28
ENDBRANCH  22  24
ENDBRANCH  19  22
ENDBRANCH  13  19
BRANCH  18  31
HETATM   31  C   UNK A   0     -11.480  15.675  67.445  1.00  0.00    -0.086 C  
HETATM   32  H   UNK A   0     -12.438  17.220  68.153  1.00  0.00     0.000 HD 
HETATM   33  O   UNK A   0     -12.468  16.271  68.139  1.00  0.00     0.854 OA 
BRANCH  31  34
ATOM     34  N   SER A   1     -10.613  16.388  66.812  1.00  0.00    -0.277 NA 
ATOM     35  H   SER A   1     -10.043  15.991  66.065  1.00  0.00     0.000 HD 
BRANCH  34  36
ATOM     36  CA  SER A   1     -10.476  17.821  67.217  1.00  0.00    -0.353 C  
BRANCH  36  37
ATOM     37  CB  SER A   1      -9.129  17.983  67.927  1.00  0.00    -0.268 C  
ATOM     38  HG  SER A   1      -7.289  17.313  67.707  1.00  0.00     0.000 HD 
ATOM     39  OG  SER A   1      -8.124  17.213  67.267  1.00  0.00    -0.179 OA 
ENDBRANCH  36  37
BRANCH  36  40
ATOM     40  C   SER A   1     -10.530  18.712  65.962  1.00  0.00    -0.414 C  
ATOM     41  H   SER A   1     -10.891  18.485  64.037  1.00  0.00     0.000 HD 
ATOM     42  O   SER A   1     -10.857  17.935  64.811  1.00  0.00    -0.636 OA 
ENDBRANCH  36  40
ENDBRANCH  34  36
ENDBRANCH  31  34
ENDBRANCH  18  31
ENDBRANCH   8  10
ENDBRANCH   5   8
ENDBRANCH   1   5
TORSDOF 13
ENDMDL
MODEL      192
REMARK 921   NORMALIZED FREE ENERGY PREDICTED BY IDOCK:   -2.37 KCAL/MOL
REMARK 922        TOTAL FREE ENERGY PREDICTED BY IDOCK:   -5.10 KCAL/MOL
REMARK 923 INTER-LIGAND FREE ENERGY PREDICTED BY IDOCK:   -6.18 KCAL/MOL
REMARK 924 INTRA-LIGAND FREE ENERGY PREDICTED BY IDOCK:    1.08 KCAL/MOL
REMARK 927      BINDING AFFINITY PREDICTED BY RF-SCORE:    0.00 PKD
ROOT
HETATM    1  C   UNK A   0     -10.079  10.682  69.687  1.00  0.00    -0.080 C  
HETATM    2  O   UNK A   0      -9.129   9.888  70.419  1.00  0.00    -0.351 OA 
HETATM    3  C   UNK A   0      -9.437  11.154  68.401  1.00  0.00    -0.189 C  
HETATM    4  H   UNK A   0      -9.532   9.592  71.227  1.00  0.00     0.000 HD 
ENDROOT
BRANCH   1   5
HETATM    5  C   UNK A   0     -11.261   9.779  69.378  1.00  0.00    -0.114 C  
HETATM    6  O   UNK A   0     -12.448  10.327  69.727  1.00  0.00    -0.539 OA 
HETATM    7  H   UNK A   0     -13.188   9.763  69.534  1.00  0.00     0.000 HD 
BRANCH   5   8
HETATM    8  N   UNK A   0     -11.145   8.633  68.794  1.00  0.00    -0.417 NA 
HETATM    9  H   UNK A   0     -11.519   8.494  67.855  1.00  0.00     0.000 HD 
BRANCH   8  10
HETATM   10  C   UNK A   0     -10.489   7.560  69.472  1.00  0.00    -0.226 A  
HETATM   11  C   UNK A   0     -11.010   6.997  70.661  1.00  0.00    -0.260 A  
HETATM   12  I   UNK A   0     -12.940   7.745  71.385  1.00  0.00    -0.170 I  
HETATM   13  C   UNK A   0     -10.388   5.883  71.266  1.00  0.00    -0.276 A  
HETATM   14  I   UNK A   0      -8.465   8.001  67.197  1.00  0.00    -0.133 I  
HETATM   15  C   UNK A   0      -9.403   5.175  70.517  1.00  0.00    -0.158 A  
HETATM   16  I   UNK A   0      -9.090   3.082  71.061  1.00  0.00    -0.221 I  
HETATM   17  C   UNK A   0      -9.366   6.934  68.850  1.00  0.00    -0.134 A  
HETATM   18  C   UNK A   0      -8.863   5.691  69.301  1.00  0.00    -0.112 A  
BRANCH  13  19
HETATM   19  C   UNK A   0     -10.638   5.491  72.689  1.00  0.00    -0.226 C  
HETATM   20  O   UNK A   0     -11.913   5.288  73.047  1.00  0.00    -0.526 OA 
HETATM   21  H   UNK A   0     -12.072   5.038  73.950  1.00  0.00     0.000 HD 
BRANCH  19  22
ATOM     22  N   SER A   1      -9.692   5.335  73.547  1.00  0.00    -0.147 NA 
ATOM     23  H   SER A   1      -9.303   4.412  73.740  1.00  0.00     0.000 HD 
BRANCH  22  24
ATOM     24  CA  SER A   1      -9.183   6.545  74.251  1.00  0.00    -0.190 C  
BRANCH  24  25
ATOM     25  C   SER A   1      -9.699   7.770  73.472  1.00  0.00    -0.256 C  
ATOM     26  H   SER A   1      -8.925   9.339  72.571  1.00  0.00     0.000 HD 
ATOM     27  O   SER A   1      -8.607   8.583  73.051  1.00  0.00    -0.355 OA 
ENDBRANCH  24  25
BRANCH  24  28
ATOM     28  CB  SER A   1      -7.642   6.611  74.284  1.00  0.00    -0.097 C  
ATOM     29  OG  SER A   1      -7.012   6.189  73.076  1.00  0.00    -0.077 OA 
ATOM     30  HG  SER A   1      -6.063   6.230  73.097  1.00  0.00     0.000 HD 
ENDBRANCH  24  28
ENDBRANCH  22  24
ENDBRANCH  19  22
ENDBRANCH  13  19
BRANCH  18  31
HETATM   31  C   UNK A   0      -7.849   4.899  68.514  1.00  0.00    -0.081 C  
HETATM   32  H   UNK A   0      -5.980   4.341  68.565  1.00  0.00     0.000 HD 
HETATM   33  O   UNK A   0      -6.619   4.839  69.060  1.00  0.00    -0.042 OA 
BRANCH  31  34
ATOM     34  N   SER A   1      -8.075   4.353  67.369  1.00  0.00    -0.100 NA 
ATOM     35  H   SER A   1      -7.369   4.354  66.632  1.00  0.00     0.000 HD 
BRANCH  34  36
ATOM     36  CA  SER A   1      -9.412   3.717  67.163  1.00  0.00    -0.194 C  
BRANCH  36  37
ATOM     37  CB  SER A   1     -10.157   4.520  66.094  1.00  0.00    -0.258 C  
ATOM     38  HG  SER A   1     -10.738   4.254  64.230  1.00  0.00     0.000 HD 
ATOM     39  OG  SER A   1     -10.276   3.756  64.894  1.00  0.00    -0.178 OA 
ENDBRANCH  36  37
BRANCH  36  40
ATOM     40  C   SER A   1      -9.217   2.261  66.700  1.00  0.00    -0.010 C  
ATOM     41  H   SER A   1      -8.262   0.654  67.329  1.00  0.00     0.000 HD 
ATOM     42  O   SER A   1      -8.382   1.552  67.614  1.00  0.00    -0.063 OA 
ENDBRANCH  36  40
ENDBRANCH  34  36
ENDBRANCH  31  34
ENDBRANCH  18  31
ENDBRANCH   8  10
ENDBRANCH   5   8
ENDBRANCH   1   5
TORSDOF 13
ENDMDL
MODEL      193
REMARK 921   NORMALIZED FREE ENERGY PREDICTED BY IDOCK:   -2.34 KCAL/MOL
REMARK 922        TOTAL FREE ENERGY PREDICTED BY IDOCK:   -5.05 KCAL/MOL
REMARK 923 INTER-LIGAND FREE ENERGY PREDICTED BY IDOCK:   -4.16 KCAL/MOL
REMARK 924 INTRA-LIGAND FREE ENERGY PREDICTED BY IDOCK:   -0.90 KCAL/MOL
REMARK 927      BINDING AFFINITY PREDICTED BY RF-SCORE:    0.00 PKD
ROOT
HETATM    1  C   UNK A   0      -6.738   8.797  63.274  1.00  0.00    -0.090 C  
HETATM    2  O   UNK A   0      -7.823   8.878  62.333  1.00  0.00    -0.118 OA 
HETATM    3  C   UNK A   0      -6.051  10.142  63.350  1.00  0.00    -0.143 C  
HETATM    4  H   UNK A   0      -8.255   8.033  62.285  1.00  0.00     0.000 HD 
ENDROOT
BRANCH   1   5
HETATM    5  C   UNK A   0      -7.350   8.447  64.620  1.00  0.00    -0.093 C  
HETATM    6  O   UNK A   0      -8.695   8.312  64.570  1.00  0.00    -0.400 OA 
HETATM    7  H   UNK A   0      -9.078   8.093  65.412  1.00  0.00     0.000 HD 
BRANCH   5   8
HETATM    8  N   UNK A   0      -6.649   8.247  65.687  1.00  0.00    -0.052 NA 
HETATM    9  H   UNK A   0      -5.631   8.301  65.651  1.00  0.00     0.000 HD 
BRANCH   8  10
HETATM   10  C   UNK A   0      -7.309   7.949  66.919  1.00  0.00    -0.090 A  
HETATM   11  C   UNK A   0      -7.783   8.967  67.780  1.00  0.00    -0.101 A  
HETATM   12  I   UNK A   0      -7.581  11.046  67.110  1.00  0.00    -0.135 I  
HETATM   13  C   UNK A   0      -8.505   8.646  68.949  1.00  0.00    -0.129 A  
HETATM   14  I   UNK A   0      -6.660   5.081  66.013  1.00  0.00    -0.047 I  
HETATM   15  C   UNK A   0      -8.981   7.311  69.100  1.00  0.00    -0.135 A  
HETATM   16  I   UNK A   0     -10.724   7.042  70.390  1.00  0.00    -0.312 I  
HETATM   17  C   UNK A   0      -7.640   6.591  67.213  1.00  0.00    -0.096 A  
HETATM   18  C   UNK A   0      -8.549   6.254  68.243  1.00  0.00    -0.117 A  
BRANCH  13  19
HETATM   19  C   UNK A   0      -8.691   9.614  70.076  1.00  0.00    -0.231 C  
HETATM   20  O   UNK A   0      -9.816  10.341  70.073  1.00  0.00    -0.400 OA 
HETATM   21  H   UNK A   0      -9.934  10.955  70.788  1.00  0.00     0.000 HD 
BRANCH  19  22
ATOM     22  N   SER A   1      -7.833   9.753  71.026  1.00  0.00    -0.330 NA 
ATOM     23  H   SER A   1      -8.125  10.043  71.960  1.00  0.00     0.000 HD 
BRANCH  22  24
ATOM     24  CA  SER A   1      -6.402   9.477  70.718  1.00  0.00    -0.091 C  
BRANCH  24  25
ATOM     25  C   SER A   1      -6.068   8.101  71.323  1.00  0.00    -0.035 C  
ATOM     26  H   SER A   1      -5.519   6.329  70.664  1.00  0.00     0.000 HD 
ATOM     27  O   SER A   1      -5.725   7.179  70.291  1.00  0.00    -0.023 OA 
ENDBRANCH  24  25
BRANCH  24  28
ATOM     28  CB  SER A   1      -5.448  10.520  71.338  1.00  0.00     0.003 C  
ATOM     29  OG  SER A   1      -5.942  11.858  71.305  1.00  0.00    -0.453 OA 
ATOM     30  HG  SER A   1      -5.354  12.499  71.687  1.00  0.00     0.000 HD 
ENDBRANCH  24  28
ENDBRANCH  22  24
ENDBRANCH  19  22
ENDBRANCH  13  19
BRANCH  18  31
HETATM   31  C   UNK A   0      -9.100   4.859  68.407  1.00  0.00    -0.114 C  
HETATM   32  H   UNK A   0     -10.602   3.740  67.861  1.00  0.00     0.000 HD 
HETATM   33  O   UNK A   0     -10.255   4.619  67.758  1.00  0.00    -0.078 OA 
BRANCH  31  34
ATOM     34  N   SER A   1      -8.575   3.948  69.153  1.00  0.00    -0.076 NA 
ATOM     35  H   SER A   1      -8.680   2.957  68.933  1.00  0.00     0.000 HD 
BRANCH  34  36
ATOM     36  CA  SER A   1      -7.806   4.401  70.352  1.00  0.00    -0.052 C  
BRANCH  36  37
ATOM     37  CB  SER A   1      -8.615   4.031  71.598  1.00  0.00    -0.102 C  
ATOM     38  HG  SER A   1      -8.241   3.494  73.457  1.00  0.00     0.000 HD 
ATOM     39  OG  SER A   1      -7.740   3.723  72.683  1.00  0.00    -0.065 OA 
ENDBRANCH  36  37
BRANCH  36  40
ATOM     40  C   SER A   1      -6.437   3.696  70.374  1.00  0.00    -0.032 C  
ATOM     41  H   SER A   1      -5.141   3.003  69.060  1.00  0.00     0.000 HD 
ATOM     42  O   SER A   1      -5.985   3.438  69.046  1.00  0.00    -0.022 OA 
ENDBRANCH  36  40
ENDBRANCH  34  36
ENDBRANCH  31  34
ENDBRANCH  18  31
ENDBRANCH   8  10
ENDBRANCH   5   8
ENDBRANCH   1   5
TORSDOF 13
ENDMDL
MODEL      194
REMARK 921   NORMALIZED FREE ENERGY PREDICTED BY IDOCK:   -2.30 KCAL/MOL
REMARK 922        TOTAL FREE ENERGY PREDICTED BY IDOCK:   -4.98 KCAL/MOL
REMARK 923 INTER-LIGAND FREE ENERGY PREDICTED BY IDOCK:   -4.56 KCAL/MOL
REMARK 924 INTRA-LIGAND FREE ENERGY PREDICTED BY IDOCK:   -0.41 KCAL/MOL
REMARK 927      BINDING AFFINITY PREDICTED BY RF-SCORE:    0.00 PKD
ROOT
HETATM    1  C   UNK A   0     -10.170   3.438  72.579  1.00  0.00    -0.146 C  
HETATM    2  O   UNK A   0     -10.671   2.094  72.690  1.00  0.00    -0.144 OA 
HETATM    3  C   UNK A   0     -10.916   4.322  73.553  1.00  0.00    -0.373 C  
HETATM    4  H   UNK A   0     -10.203   1.538  72.078  1.00  0.00     0.000 HD 
ENDROOT
BRANCH   1   5
HETATM    5  C   UNK A   0      -8.696   3.389  72.942  1.00  0.00    -0.085 C  
HETATM    6  O   UNK A   0      -8.477   2.927  74.195  1.00  0.00    -0.071 OA 
HETATM    7  H   UNK A   0      -7.555   2.896  74.423  1.00  0.00     0.000 HD 
BRANCH   5   8
HETATM    8  N   UNK A   0      -7.751   3.704  72.119  1.00  0.00    -0.058 NA 
HETATM    9  H   UNK A   0      -6.859   3.211  72.148  1.00  0.00     0.000 HD 
BRANCH   8  10
HETATM   10  C   UNK A   0      -7.964   4.750  71.169  1.00  0.00    -0.088 A  
HETATM   11  C   UNK A   0      -7.954   6.114  71.543  1.00  0.00    -0.110 A  
HETATM   12  I   UNK A   0      -7.477   6.598  73.629  1.00  0.00    -0.087 I  
HETATM   13  C   UNK A   0      -8.084   7.130  70.572  1.00  0.00    -0.113 A  
HETATM   14  I   UNK A   0      -8.316   2.326  69.306  1.00  0.00    -0.108 I  
HETATM   15  C   UNK A   0      -7.949   6.770  69.200  1.00  0.00    -0.112 A  
HETATM   16  I   UNK A   0      -7.319   8.357  67.836  1.00  0.00    -0.099 I  
HETATM   17  C   UNK A   0      -8.032   4.418  69.782  1.00  0.00    -0.056 A  
HETATM   18  C   UNK A   0      -7.933   5.407  68.775  1.00  0.00    -0.087 A  
BRANCH  13  19
HETATM   19  C   UNK A   0      -8.466   8.536  70.918  1.00  0.00    -0.152 C  
HETATM   20  O   UNK A   0      -7.573   9.495  70.637  1.00  0.00    -0.144 OA 
HETATM   21  H   UNK A   0      -7.816  10.386  70.856  1.00  0.00     0.000 HD 
BRANCH  19  22
ATOM     22  N   SER A   1      -9.598   8.842  71.449  1.00  0.00    -0.240 NA 
ATOM     23  H   SER A   1      -9.645   9.375  72.317  1.00  0.00     0.000 HD 
BRANCH  22  24
ATOM     24  CA  SER A   1     -10.837   8.392  70.755  1.00  0.00    -0.224 C  
BRANCH  24  25
ATOM     25  C   SER A   1     -11.692   9.646  70.500  1.00  0.00    -0.242 C  
ATOM     26  H   SER A   1     -12.987  10.740  71.502  1.00  0.00     0.000 HD 
ATOM     27  O   SER A   1     -12.459   9.966  71.659  1.00  0.00    -0.366 OA 
ENDBRANCH  24  25
BRANCH  24  28
ATOM     28  CB  SER A   1     -11.669   7.407  71.603  1.00  0.00    -0.279 C  
ATOM     29  OG  SER A   1     -12.963   7.125  71.072  1.00  0.00    -0.541 OA 
ATOM     30  HG  SER A   1     -13.475   6.519  71.593  1.00  0.00     0.000 HD 
ENDBRANCH  24  28
ENDBRANCH  22  24
ENDBRANCH  19  22
ENDBRANCH  13  19
BRANCH  18  31
HETATM   31  C   UNK A   0      -7.753   5.059  67.318  1.00  0.00    -0.092 C  
HETATM   32  H   UNK A   0      -6.597   4.031  66.129  1.00  0.00     0.000 HD 
HETATM   33  O   UNK A   0      -6.710   4.251  67.046  1.00  0.00    -0.049 OA 
BRANCH  31  34
ATOM     34  N   SER A   1      -8.478   5.524  66.359  1.00  0.00    -0.117 NA 
ATOM     35  H   SER A   1      -9.303   6.094  66.546  1.00  0.00     0.000 HD 
BRANCH  34  36
ATOM     36  CA  SER A   1      -8.061   5.195  64.962  1.00  0.00    -0.117 C  
BRANCH  36  37
ATOM     37  CB  SER A   1      -9.259   4.564  64.248  1.00  0.00    -0.117 C  
ATOM     38  HG  SER A   1     -10.249   2.861  64.314  1.00  0.00     0.000 HD 
ATOM     39  OG  SER A   1      -9.505   3.253  64.758  1.00  0.00    -0.143 OA 
ENDBRANCH  36  37
BRANCH  36  40
ATOM     40  C   SER A   1      -7.629   6.487  64.242  1.00  0.00    -0.100 C  
ATOM     41  H   SER A   1      -8.261   7.586  62.732  1.00  0.00     0.000 HD 
ATOM     42  O   SER A   1      -8.527   6.789  63.176  1.00  0.00     0.100 OA 
ENDBRANCH  36  40
ENDBRANCH  34  36
ENDBRANCH  31  34
ENDBRANCH  18  31
ENDBRANCH   8  10
ENDBRANCH   5   8
ENDBRANCH   1   5
TORSDOF 13
ENDMDL
MODEL      195
REMARK 921   NORMALIZED FREE ENERGY PREDICTED BY IDOCK:   -2.26 KCAL/MOL
REMARK 922        TOTAL FREE ENERGY PREDICTED BY IDOCK:   -4.91 KCAL/MOL
REMARK 923 INTER-LIGAND FREE ENERGY PREDICTED BY IDOCK:   -5.23 KCAL/MOL
REMARK 924 INTRA-LIGAND FREE ENERGY PREDICTED BY IDOCK:    0.33 KCAL/MOL
REMARK 927      BINDING AFFINITY PREDICTED BY RF-SCORE:    0.00 PKD
ROOT
HETATM    1  C   UNK A   0      -9.779  15.191  69.188  1.00  0.00    -0.232 C  
HETATM    2  O   UNK A   0     -10.451  15.170  70.461  1.00  0.00    -0.504 OA 
HETATM    3  C   UNK A   0      -8.429  15.851  69.357  1.00  0.00    -0.191 C  
HETATM    4  H   UNK A   0     -11.299  14.756  70.355  1.00  0.00     0.000 HD 
ENDROOT
BRANCH   1   5
HETATM    5  C   UNK A   0      -9.603  13.745  68.759  1.00  0.00    -0.040 C  
HETATM    6  O   UNK A   0      -8.345  13.287  68.952  1.00  0.00    -0.355 OA 
HETATM    7  H   UNK A   0      -8.234  12.382  68.683  1.00  0.00     0.000 HD 
BRANCH   5   8
HETATM    8  N   UNK A   0     -10.571  13.015  68.310  1.00  0.00    -0.241 NA 
HETATM    9  H   UNK A   0     -11.516  13.137  68.672  1.00  0.00     0.000 HD 
BRANCH   8  10
HETATM   10  C   UNK A   0     -10.307  12.037  67.302  1.00  0.00    -0.212 A  
HETATM   11  C   UNK A   0      -9.906  12.399  65.995  1.00  0.00    -0.257 A  
HETATM   12  I   UNK A   0      -9.580  14.529  65.579  1.00  0.00     0.477 I  
HETATM   13  C   UNK A   0      -9.570  11.413  65.042  1.00  0.00    -0.250 A  
HETATM   14  I   UNK A   0     -11.171  10.160  69.582  1.00  0.00    -0.280 I  
HETATM   15  C   UNK A   0      -9.378  10.076  65.499  1.00  0.00    -0.216 A  
HETATM   16  I   UNK A   0      -8.093   8.806  64.270  1.00  0.00    -0.125 I  
HETATM   17  C   UNK A   0     -10.293  10.657  67.668  1.00  0.00    -0.209 A  
HETATM   18  C   UNK A   0      -9.746   9.668  66.816  1.00  0.00    -0.252 A  
BRANCH  13  19
HETATM   19  C   UNK A   0      -9.520  11.691  63.572  1.00  0.00    -0.172 C  
HETATM   20  O   UNK A   0      -8.315  11.652  62.988  1.00  0.00    -0.332 OA 
HETATM   21  H   UNK A   0      -8.284  11.829  62.055  1.00  0.00     0.000 HD 
BRANCH  19  22
ATOM     22  N   SER A   1     -10.571  11.946  62.873  1.00  0.00    -0.589 NA 
ATOM     23  H   SER A   1     -10.619  11.697  61.885  1.00  0.00     0.000 HD 
BRANCH  22  24
ATOM     24  CA  SER A   1     -11.714  12.616  63.553  1.00  0.00    -0.531 C  
BRANCH  24  25
ATOM     25  C   SER A   1     -12.902  11.637  63.510  1.00  0.00    -0.063 C  
ATOM     26  H   SER A   1     -14.593  11.375  64.482  1.00  0.00     0.000 HD 
ATOM     27  O   SER A   1     -13.860  11.979  64.509  1.00  0.00     0.160 OA 
ENDBRANCH  24  25
BRANCH  24  28
ATOM     28  CB  SER A   1     -12.142  13.922  62.851  1.00  0.00     1.141 C  
ATOM     29  OG  SER A   1     -12.840  14.838  63.693  1.00  0.00    -0.733 OA 
ATOM     30  HG  SER A   1     -13.103  15.642  63.260  1.00  0.00     0.000 HD 
ENDBRANCH  24  28
ENDBRANCH  22  24
ENDBRANCH  19  22
ENDBRANCH  13  19
BRANCH  18  31
HETATM   31  C   UNK A   0      -9.496   8.254  67.279  1.00  0.00    -0.151 C  
HETATM   32  H   UNK A   0     -10.397   6.535  67.481  1.00  0.00     0.000 HD 
HETATM   33  O   UNK A   0     -10.554   7.425  67.189  1.00  0.00    -0.295 OA 
BRANCH  31  34
ATOM     34  N   SER A   1      -8.389   7.836  67.790  1.00  0.00    -0.125 NA 
ATOM     35  H   SER A   1      -7.606   7.553  67.200  1.00  0.00     0.000 HD 
BRANCH  34  36
ATOM     36  CA  SER A   1      -8.298   7.782  69.281  1.00  0.00    -0.136 C  
BRANCH  36  37
ATOM     37  CB  SER A   1      -8.096   6.321  69.689  1.00  0.00    -0.120 C  
ATOM     38  HG  SER A   1      -7.954   4.574  68.787  1.00  0.00     0.000 HD 
ATOM     39  OG  SER A   1      -8.079   5.482  68.534  1.00  0.00    -0.097 OA 
ENDBRANCH  36  37
BRANCH  36  40
ATOM     40  C   SER A   1      -7.106   8.639  69.749  1.00  0.00    -0.051 C  
ATOM     41  H   SER A   1      -6.796  10.129  71.002  1.00  0.00     0.000 HD 
ATOM     42  O   SER A   1      -7.530   9.601  70.713  1.00  0.00    -0.254 OA 
ENDBRANCH  36  40
ENDBRANCH  34  36
ENDBRANCH  31  34
ENDBRANCH  18  31
ENDBRANCH   8  10
ENDBRANCH   5   8
ENDBRANCH   1   5
TORSDOF 13
ENDMDL
MODEL      196
REMARK 921   NORMALIZED FREE ENERGY PREDICTED BY IDOCK:   -2.24 KCAL/MOL
REMARK 922        TOTAL FREE ENERGY PREDICTED BY IDOCK:   -4.88 KCAL/MOL
REMARK 923 INTER-LIGAND FREE ENERGY PREDICTED BY IDOCK:   -6.08 KCAL/MOL
REMARK 924 INTRA-LIGAND FREE ENERGY PREDICTED BY IDOCK:    1.21 KCAL/MOL
REMARK 927      BINDING AFFINITY PREDICTED BY RF-SCORE:    0.00 PKD
ROOT
HETATM    1  C   UNK A   0     -11.814  14.317  66.239  1.00  0.00    -0.406 C  
HETATM    2  O   UNK A   0     -12.240  14.380  67.611  1.00  0.00    -0.598 OA 
HETATM    3  C   UNK A   0     -10.315  14.509  66.181  1.00  0.00    -0.305 C  
HETATM    4  H   UNK A   0     -13.182  14.260  67.647  1.00  0.00     0.000 HD 
ENDROOT
BRANCH   1   5
HETATM    5  C   UNK A   0     -12.183  12.936  65.726  1.00  0.00    -0.439 C  
HETATM    6  O   UNK A   0     -12.847  12.971  64.548  1.00  0.00    -0.692 OA 
HETATM    7  H   UNK A   0     -13.078  12.107  64.227  1.00  0.00     0.000 HD 
BRANCH   5   8
HETATM    8  N   UNK A   0     -11.848  11.843  66.328  1.00  0.00    -0.528 NA 
HETATM    9  H   UNK A   0     -12.566  11.197  66.657  1.00  0.00     0.000 HD 
BRANCH   8  10
HETATM   10  C   UNK A   0     -10.466  11.545  66.532  1.00  0.00    -0.244 A  
HETATM   11  C   UNK A   0      -9.896  11.483  67.825  1.00  0.00    -0.177 A  
HETATM   12  I   UNK A   0     -11.234  11.742  69.544  1.00  0.00    -0.079 I  
HETATM   13  C   UNK A   0      -8.548  11.105  68.003  1.00  0.00    -0.140 A  
HETATM   14  I   UNK A   0     -10.517  11.522  63.455  1.00  0.00    -0.435 I  
HETATM   15  C   UNK A   0      -7.860  10.527  66.896  1.00  0.00    -0.117 A  
HETATM   16  I   UNK A   0      -6.170   9.227  67.375  1.00  0.00    -0.058 I  
HETATM   17  C   UNK A   0      -9.675  11.144  65.412  1.00  0.00    -0.231 A  
HETATM   18  C   UNK A   0      -8.403  10.546  65.577  1.00  0.00    -0.170 A  
BRANCH  13  19
HETATM   19  C   UNK A   0      -7.788  11.388  69.262  1.00  0.00     0.105 C  
HETATM   20  O   UNK A   0      -8.000  10.564  70.297  1.00  0.00    -0.400 OA 
HETATM   21  H   UNK A   0      -7.517  10.744  71.096  1.00  0.00     0.000 HD 
BRANCH  19  22
ATOM     22  N   SER A   1      -6.953  12.361  69.370  1.00  0.00    -0.316 NA 
ATOM     23  H   SER A   1      -6.899  13.090  68.658  1.00  0.00     0.000 HD 
BRANCH  22  24
ATOM     24  CA  SER A   1      -6.067  12.390  70.567  1.00  0.00     0.080 C  
BRANCH  24  25
ATOM     25  C   SER A   1      -5.142  13.611  70.415  1.00  0.00    -0.098 C  
ATOM     26  H   SER A   1      -4.851  15.326  71.337  1.00  0.00     0.000 HD 
ATOM     27  O   SER A   1      -5.422  14.572  71.431  1.00  0.00    -0.148 OA 
ENDBRANCH  24  25
BRANCH  24  28
ATOM     28  CB  SER A   1      -5.185  11.130  70.686  1.00  0.00    -0.109 C  
ATOM     29  OG  SER A   1      -5.402  10.373  71.876  1.00  0.00    -0.256 OA 
ATOM     30  HG  SER A   1      -4.858   9.597  71.948  1.00  0.00     0.000 HD 
ENDBRANCH  24  28
ENDBRANCH  22  24
ENDBRANCH  19  22
ENDBRANCH  13  19
BRANCH  18  31
HETATM   31  C   UNK A   0      -7.665   9.894  64.433  1.00  0.00    -0.142 C  
HETATM   32  H   UNK A   0      -6.141  10.173  63.247  1.00  0.00     0.000 HD 
HETATM   33  O   UNK A   0      -6.606  10.583  63.967  1.00  0.00    -0.052 OA 
BRANCH  31  34
ATOM     34  N   SER A   1      -8.019   8.791  63.868  1.00  0.00    -0.149 NA 
ATOM     35  H   SER A   1      -8.429   8.782  62.934  1.00  0.00     0.000 HD 
BRANCH  34  36
ATOM     36  CA  SER A   1      -7.802   7.527  64.635  1.00  0.00    -0.130 C  
BRANCH  36  37
ATOM     37  CB  SER A   1      -9.130   7.142  65.294  1.00  0.00     0.432 C  
ATOM     38  HG  SER A   1      -9.906   5.550  66.158  1.00  0.00     0.000 HD 
ATOM     39  OG  SER A   1      -9.083   5.790  65.750  1.00  0.00    -0.159 OA 
ENDBRANCH  36  37
BRANCH  36  40
ATOM     40  C   SER A   1      -7.343   6.418  63.670  1.00  0.00    -0.073 C  
ATOM     41  H   SER A   1      -6.577   6.299  61.857  1.00  0.00     0.000 HD 
ATOM     42  O   SER A   1      -6.861   6.983  62.452  1.00  0.00    -0.050 OA 
ENDBRANCH  36  40
ENDBRANCH  34  36
ENDBRANCH  31  34
ENDBRANCH  18  31
ENDBRANCH   8  10
ENDBRANCH   5   8
ENDBRANCH   1   5
TORSDOF 13
ENDMDL
MODEL      197
REMARK 921   NORMALIZED FREE ENERGY PREDICTED BY IDOCK:   -2.23 KCAL/MOL
REMARK 922        TOTAL FREE ENERGY PREDICTED BY IDOCK:   -4.86 KCAL/MOL
REMARK 923 INTER-LIGAND FREE ENERGY PREDICTED BY IDOCK:   -6.12 KCAL/MOL
REMARK 924 INTRA-LIGAND FREE ENERGY PREDICTED BY IDOCK:    1.26 KCAL/MOL
REMARK 927      BINDING AFFINITY PREDICTED BY RF-SCORE:    0.00 PKD
ROOT
HETATM    1  C   UNK A   0     -10.118   6.167  70.161  1.00  0.00    -0.184 C  
HETATM    2  O   UNK A   0     -10.005   4.984  69.350  1.00  0.00    -0.188 OA 
HETATM    3  C   UNK A   0      -8.767   6.841  70.238  1.00  0.00    -0.144 C  
HETATM    4  H   UNK A   0     -10.854   4.560  69.302  1.00  0.00     0.000 HD 
ENDROOT
BRANCH   1   5
HETATM    5  C   UNK A   0     -11.118   7.080  69.470  1.00  0.00    -0.187 C  
HETATM    6  O   UNK A   0     -11.885   7.776  70.340  1.00  0.00    -0.478 OA 
HETATM    7  H   UNK A   0     -12.510   8.346  69.909  1.00  0.00     0.000 HD 
BRANCH   5   8
HETATM    8  N   UNK A   0     -11.187   7.214  68.187  1.00  0.00    -0.492 NA 
HETATM    9  H   UNK A   0     -12.038   6.956  67.689  1.00  0.00     0.000 HD 
BRANCH   8  10
HETATM   10  C   UNK A   0     -10.062   7.726  67.470  1.00  0.00    -0.209 A  
HETATM   11  C   UNK A   0      -9.319   6.925  66.571  1.00  0.00    -0.158 A  
HETATM   12  I   UNK A   0     -10.020   4.879  66.209  1.00  0.00    -0.302 I  
HETATM   13  C   UNK A   0      -8.264   7.477  65.814  1.00  0.00    -0.137 A  
HETATM   14  I   UNK A   0     -10.759  10.226  69.124  1.00  0.00    -0.326 I  
HETATM   15  C   UNK A   0      -8.142   8.897  65.765  1.00  0.00    -0.107 A  
HETATM   16  I   UNK A   0      -7.126   9.725  64.018  1.00  0.00    -0.116 I  
HETATM   17  C   UNK A   0      -9.776   9.124  67.543  1.00  0.00    -0.160 A  
HETATM   18  C   UNK A   0      -8.886   9.748  66.637  1.00  0.00    -0.153 A  
BRANCH  13  19
HETATM   19  C   UNK A   0      -7.212   6.637  65.159  1.00  0.00    -0.074 C  
HETATM   20  O   UNK A   0      -7.548   6.027  64.014  1.00  0.00    -0.074 OA 
HETATM   21  H   UNK A   0      -6.881   5.494  63.598  1.00  0.00     0.000 HD 
BRANCH  19  22
ATOM     22  N   SER A   1      -6.027   6.499  65.642  1.00  0.00    -0.032 NA 
ATOM     23  H   SER A   1      -5.396   7.296  65.725  1.00  0.00     0.000 HD 
BRANCH  22  24
ATOM     24  CA  SER A   1      -5.607   5.137  66.075  1.00  0.00    -0.017 C  
BRANCH  24  25
ATOM     25  C   SER A   1      -5.985   4.166  64.941  1.00  0.00    -0.022 C  
ATOM     26  H   SER A   1      -6.551   2.288  64.778  1.00  0.00     0.000 HD 
ATOM     27  O   SER A   1      -6.318   2.887  65.477  1.00  0.00    -0.023 OA 
ENDBRANCH  24  25
BRANCH  24  28
ATOM     28  CB  SER A   1      -6.321   4.674  67.362  1.00  0.00    -0.041 C  
ATOM     29  OG  SER A   1      -5.500   3.914  68.246  1.00  0.00    -0.012 OA 
ATOM     30  HG  SER A   1      -5.939   3.629  69.039  1.00  0.00     0.000 HD 
ENDBRANCH  24  28
ENDBRANCH  22  24
ENDBRANCH  19  22
ENDBRANCH  13  19
BRANCH  18  31
HETATM   31  C   UNK A   0      -8.760  11.248  66.536  1.00  0.00    -0.178 C  
HETATM   32  H   UNK A   0      -7.870  12.763  67.384  1.00  0.00     0.000 HD 
HETATM   33  O   UNK A   0      -7.949  11.819  67.447  1.00  0.00    -0.138 OA 
BRANCH  31  34
ATOM     34  N   SER A   1      -9.409  11.982  65.698  1.00  0.00    -0.412 NA 
ATOM     35  H   SER A   1      -8.969  12.782  65.241  1.00  0.00     0.000 HD 
BRANCH  34  36
ATOM     36  CA  SER A   1     -10.831  11.615  65.421  1.00  0.00    -0.280 C  
BRANCH  36  37
ATOM     37  CB  SER A   1     -11.720  12.751  65.934  1.00  0.00    -0.414 C  
ATOM     38  HG  SER A   1     -11.875  14.698  65.669  1.00  0.00     0.000 HD 
ATOM     39  OG  SER A   1     -11.324  13.993  65.351  1.00  0.00    -0.304 OA 
ENDBRANCH  36  37
BRANCH  36  40
ATOM     40  C   SER A   1     -11.023  11.429  63.904  1.00  0.00    -0.366 C  
ATOM     41  H   SER A   1     -10.117  11.999  62.248  1.00  0.00     0.000 HD 
ATOM     42  O   SER A   1      -9.999  12.113  63.183  1.00  0.00    -0.393 OA 
ENDBRANCH  36  40
ENDBRANCH  34  36
ENDBRANCH  31  34
ENDBRANCH  18  31
ENDBRANCH   8  10
ENDBRANCH   5   8
ENDBRANCH   1   5
TORSDOF 13
ENDMDL
MODEL      198
REMARK 921   NORMALIZED FREE ENERGY PREDICTED BY IDOCK:   -2.19 KCAL/MOL
REMARK 922        TOTAL FREE ENERGY PREDICTED BY IDOCK:   -4.78 KCAL/MOL
REMARK 923 INTER-LIGAND FREE ENERGY PREDICTED BY IDOCK:   -5.41 KCAL/MOL
REMARK 924 INTRA-LIGAND FREE ENERGY PREDICTED BY IDOCK:    0.63 KCAL/MOL
REMARK 927      BINDING AFFINITY PREDICTED BY RF-SCORE:    0.00 PKD
ROOT
HETATM    1  C   UNK A   0      -9.482  15.076  69.146  1.00  0.00    -0.195 C  
HETATM    2  O   UNK A   0     -10.048  15.064  70.469  1.00  0.00    -0.472 OA 
HETATM    3  C   UNK A   0      -8.210  15.893  69.163  1.00  0.00    -0.240 C  
HETATM    4  H   UNK A   0     -10.847  14.551  70.458  1.00  0.00     0.000 HD 
ENDROOT
BRANCH   1   5
HETATM    5  C   UNK A   0      -9.170  13.633  68.789  1.00  0.00     0.049 C  
HETATM    6  O   UNK A   0      -7.855  13.335  68.897  1.00  0.00    -0.306 OA 
HETATM    7  H   UNK A   0      -7.659  12.433  68.673  1.00  0.00     0.000 HD 
BRANCH   5   8
HETATM    8  N   UNK A   0     -10.077  12.769  68.468  1.00  0.00    -0.326 NA 
HETATM    9  H   UNK A   0     -10.953  12.728  68.988  1.00  0.00     0.000 HD 
BRANCH   8  10
HETATM   10  C   UNK A   0      -9.842  11.872  67.381  1.00  0.00    -0.183 A  
HETATM   11  C   UNK A   0      -9.730  12.327  66.046  1.00  0.00    -0.242 A  
HETATM   12  I   UNK A   0      -9.808  14.491  65.695  1.00  0.00    -0.087 I  
HETATM   13  C   UNK A   0      -9.416  11.431  65.002  1.00  0.00    -0.209 A  
HETATM   14  I   UNK A   0     -10.009   9.823  69.671  1.00  0.00    -0.292 I  
HETATM   15  C   UNK A   0      -8.947  10.131  65.350  1.00  0.00    -0.177 A  
HETATM   16  I   UNK A   0      -7.712   9.113  63.862  1.00  0.00    -0.150 I  
HETATM   17  C   UNK A   0      -9.556  10.502  67.667  1.00  0.00    -0.157 A  
HETATM   18  C   UNK A   0      -9.019   9.635  66.686  1.00  0.00    -0.166 A  
BRANCH  13  19
HETATM   19  C   UNK A   0      -9.660  11.752  63.560  1.00  0.00    -0.219 C  
HETATM   20  O   UNK A   0      -8.580  11.913  62.782  1.00  0.00    -0.531 OA 
HETATM   21  H   UNK A   0      -8.736  12.116  61.867  1.00  0.00     0.000 HD 
BRANCH  19  22
ATOM     22  N   SER A   1     -10.840  11.861  63.059  1.00  0.00    -0.673 NA 
ATOM     23  H   SER A   1     -11.092  11.381  62.194  1.00  0.00     0.000 HD 
BRANCH  22  24
ATOM     24  CA  SER A   1     -11.828  12.710  63.781  1.00  0.00    -0.498 C  
BRANCH  24  25
ATOM     25  C   SER A   1     -13.007  11.800  64.171  1.00  0.00     0.161 C  
ATOM     26  H   SER A   1     -14.429  10.803  63.244  1.00  0.00     0.000 HD 
ATOM     27  O   SER A   1     -13.701  11.364  63.004  1.00  0.00     0.396 OA 
ENDBRANCH  24  25
BRANCH  24  28
ATOM     28  CB  SER A   1     -12.376  13.860  62.909  1.00  0.00     1.092 C  
ATOM     29  OG  SER A   1     -12.757  15.021  63.644  1.00  0.00    -0.846 OA 
ATOM     30  HG  SER A   1     -13.094  15.729  63.107  1.00  0.00     0.000 HD 
ENDBRANCH  24  28
ENDBRANCH  22  24
ENDBRANCH  19  22
ENDBRANCH  13  19
BRANCH  18  31
HETATM   31  C   UNK A   0      -8.481   8.267  67.028  1.00  0.00    -0.122 C  
HETATM   32  H   UNK A   0      -6.917   7.395  67.801  1.00  0.00     0.000 HD 
HETATM   33  O   UNK A   0      -7.255   8.256  67.586  1.00  0.00    -0.085 OA 
BRANCH  31  34
ATOM     34  N   SER A   1      -9.084   7.158  66.769  1.00  0.00    -0.141 NA 
ATOM     35  H   SER A   1      -9.504   6.983  65.856  1.00  0.00     0.000 HD 
BRANCH  34  36
ATOM     36  CA  SER A   1      -9.143   6.138  67.860  1.00  0.00    -0.117 C  
BRANCH  36  37
ATOM     37  CB  SER A   1     -10.602   6.009  68.307  1.00  0.00    -0.261 C  
ATOM     38  HG  SER A   1     -12.371   6.569  67.645  1.00  0.00     0.000 HD 
ATOM     39  OG  SER A   1     -11.466   6.649  67.368  1.00  0.00    -0.183 OA 
ENDBRANCH  36  37
BRANCH  36  40
ATOM     40  C   SER A   1      -8.627   4.789  67.324  1.00  0.00    -0.104 C  
ATOM     41  H   SER A   1      -8.882   3.673  65.719  1.00  0.00     0.000 HD 
ATOM     42  O   SER A   1      -9.200   4.505  66.049  1.00  0.00    -0.126 OA 
ENDBRANCH  36  40
ENDBRANCH  34  36
ENDBRANCH  31  34
ENDBRANCH  18  31
ENDBRANCH   8  10
ENDBRANCH   5   8
ENDBRANCH   1   5
TORSDOF 13
ENDMDL
MODEL      199
REMARK 921   NORMALIZED FREE ENERGY PREDICTED BY IDOCK:   -2.17 KCAL/MOL
REMARK 922        TOTAL FREE ENERGY PREDICTED BY IDOCK:   -4.74 KCAL/MOL
REMARK 923 INTER-LIGAND FREE ENERGY PREDICTED BY IDOCK:   -4.97 KCAL/MOL
REMARK 924 INTRA-LIGAND FREE ENERGY PREDICTED BY IDOCK:    0.23 KCAL/MOL
REMARK 927      BINDING AFFINITY PREDICTED BY RF-SCORE:    0.00 PKD
ROOT
HETATM    1  C   UNK A   0      -9.535   9.505  69.814  1.00  0.00    -0.210 C  
HETATM    2  O   UNK A   0      -9.865  10.894  69.641  1.00  0.00    -0.434 OA 
HETATM    3  C   UNK A   0      -8.408   9.389  70.816  1.00  0.00    -0.180 C  
HETATM    4  H   UNK A   0     -10.573  10.967  69.012  1.00  0.00     0.000 HD 
ENDROOT
BRANCH   1   5
HETATM    5  C   UNK A   0     -10.781   8.820  70.350  1.00  0.00    -0.225 C  
HETATM    6  O   UNK A   0     -11.269   9.410  71.465  1.00  0.00    -0.355 OA 
HETATM    7  H   UNK A   0     -12.048   8.981  71.800  1.00  0.00     0.000 HD 
BRANCH   5   8
HETATM    8  N   UNK A   0     -11.343   7.813  69.767  1.00  0.00    -0.453 NA 
HETATM    9  H   UNK A   0     -12.311   7.876  69.453  1.00  0.00     0.000 HD 
BRANCH   8  10
HETATM   10  C   UNK A   0     -10.599   6.609  69.566  1.00  0.00    -0.241 A  
HETATM   11  C   UNK A   0     -10.453   5.641  70.586  1.00  0.00    -0.270 A  
HETATM   12  I   UNK A   0     -11.513   5.981  72.476  1.00  0.00    -0.158 I  
HETATM   13  C   UNK A   0      -9.784   4.423  70.337  1.00  0.00    -0.284 A  
HETATM   14  I   UNK A   0     -10.136   7.926  66.823  1.00  0.00    -0.177 I  
HETATM   15  C   UNK A   0      -9.506   4.075  68.983  1.00  0.00    -0.173 A  
HETATM   16  I   UNK A   0      -9.276   1.944  68.556  1.00  0.00    -0.193 I  
HETATM   17  C   UNK A   0     -10.124   6.303  68.254  1.00  0.00    -0.153 A  
HETATM   18  C   UNK A   0      -9.657   5.010  67.916  1.00  0.00    -0.176 A  
BRANCH  13  19
HETATM   19  C   UNK A   0      -9.262   3.547  71.433  1.00  0.00    -0.126 C  
HETATM   20  O   UNK A   0      -9.815   2.333  71.555  1.00  0.00    -0.152 OA 
HETATM   21  H   UNK A   0      -9.483   1.777  72.251  1.00  0.00     0.000 HD 
BRANCH  19  22
ATOM     22  N   SER A   1      -8.317   3.911  72.227  1.00  0.00    -0.092 NA 
ATOM     23  H   SER A   1      -8.523   4.330  73.134  1.00  0.00     0.000 HD 
BRANCH  22  24
ATOM     24  CA  SER A   1      -6.911   3.701  71.780  1.00  0.00    -0.027 C  
BRANCH  24  25
ATOM     25  C   SER A   1      -6.566   4.854  70.820  1.00  0.00    -0.031 C  
ATOM     26  H   SER A   1      -5.617   6.576  70.915  1.00  0.00     0.000 HD 
ATOM     27  O   SER A   1      -5.830   5.864  71.507  1.00  0.00    -0.021 OA 
ENDBRANCH  24  25
BRANCH  24  28
ATOM     28  CB  SER A   1      -6.720   2.371  71.022  1.00  0.00    -0.031 C  
ATOM     29  OG  SER A   1      -5.491   2.276  70.305  1.00  0.00    -0.014 OA 
ATOM     30  HG  SER A   1      -5.374   1.457  69.838  1.00  0.00     0.000 HD 
ENDBRANCH  24  28
ENDBRANCH  22  24
ENDBRANCH  19  22
ENDBRANCH  13  19
BRANCH  18  31
HETATM   31  C   UNK A   0      -9.388   4.599  66.489  1.00  0.00    -0.149 C  
HETATM   32  H   UNK A   0     -10.315   4.095  64.849  1.00  0.00     0.000 HD 
HETATM   33  O   UNK A   0     -10.485   4.353  65.747  1.00  0.00    -0.256 OA 
BRANCH  31  34
ATOM     34  N   SER A   1      -8.214   4.421  65.988  1.00  0.00    -0.109 NA 
ATOM     35  H   SER A   1      -7.419   4.986  66.287  1.00  0.00     0.000 HD 
BRANCH  34  36
ATOM     36  CA  SER A   1      -8.065   3.355  64.951  1.00  0.00    -0.090 C  
BRANCH  36  37
ATOM     37  CB  SER A   1      -7.663   4.029  63.636  1.00  0.00    -0.074 C  
ATOM     38  HG  SER A   1      -7.368   3.486  61.765  1.00  0.00     0.000 HD 
ATOM     39  OG  SER A   1      -7.618   3.068  62.581  1.00  0.00    -0.052 OA 
ENDBRANCH  36  37
BRANCH  36  40
ATOM     40  C   SER A   1      -6.977   2.360  65.397  1.00  0.00    -0.051 C  
ATOM     41  H   SER A   1      -5.033   2.389  65.726  1.00  0.00     0.000 HD 
ATOM     42  O   SER A   1      -5.704   3.002  65.451  1.00  0.00    -0.017 OA 
ENDBRANCH  36  40
ENDBRANCH  34  36
ENDBRANCH  31  34
ENDBRANCH  18  31
ENDBRANCH   8  10
ENDBRANCH   5   8
ENDBRANCH   1   5
TORSDOF 13
ENDMDL
MODEL      200
REMARK 921   NORMALIZED FREE ENERGY PREDICTED BY IDOCK:   -2.13 KCAL/MOL
REMARK 922        TOTAL FREE ENERGY PREDICTED BY IDOCK:   -4.68 KCAL/MOL
REMARK 923 INTER-LIGAND FREE ENERGY PREDICTED BY IDOCK:   -5.10 KCAL/MOL
REMARK 924 INTRA-LIGAND FREE ENERGY PREDICTED BY IDOCK:    0.42 KCAL/MOL
REMARK 927      BINDING AFFINITY PREDICTED BY RF-SCORE:    0.00 PKD
ROOT
HETATM    1  C   UNK A   0     -11.253   5.798  72.683  1.00  0.00    -0.301 C  
HETATM    2  O   UNK A   0     -12.606   6.160  72.354  1.00  0.00    -0.542 OA 
HETATM    3  C   UNK A   0     -11.264   4.488  73.438  1.00  0.00    -0.404 C  
HETATM    4  H   UNK A   0     -12.598   6.983  71.879  1.00  0.00     0.000 HD 
ENDROOT
BRANCH   1   5
HETATM    5  C   UNK A   0     -10.509   5.635  71.368  1.00  0.00    -0.239 C  
HETATM    6  O   UNK A   0     -11.289   5.873  70.288  1.00  0.00    -0.322 OA 
HETATM    7  H   UNK A   0     -10.824   5.771  69.466  1.00  0.00     0.000 HD 
BRANCH   5   8
HETATM    8  N   UNK A   0      -9.250   5.353  71.295  1.00  0.00    -0.144 NA 
HETATM    9  H   UNK A   0      -8.801   4.814  72.036  1.00  0.00     0.000 HD 
BRANCH   8  10
HETATM   10  C   UNK A   0      -8.491   5.802  70.171  1.00  0.00    -0.121 A  
HETATM   11  C   UNK A   0      -8.186   4.948  69.085  1.00  0.00    -0.078 A  
HETATM   12  I   UNK A   0      -9.022   2.920  69.115  1.00  0.00    -0.214 I  
HETATM   13  C   UNK A   0      -7.507   5.438  67.949  1.00  0.00    -0.077 A  
HETATM   14  I   UNK A   0      -8.413   8.371  71.862  1.00  0.00    -0.190 I  
HETATM   15  C   UNK A   0      -7.381   6.850  67.799  1.00  0.00    -0.097 A  
HETATM   16  I   UNK A   0      -7.124   7.590  65.759  1.00  0.00    -0.069 I  
HETATM   17  C   UNK A   0      -8.167   7.189  70.067  1.00  0.00    -0.136 A  
HETATM   18  C   UNK A   0      -7.696   7.753  68.858  1.00  0.00    -0.113 A  
BRANCH  13  19
HETATM   19  C   UNK A   0      -6.823   4.540  66.966  1.00  0.00    -0.052 C  
HETATM   20  O   UNK A   0      -5.676   3.969  67.360  1.00  0.00    -0.020 OA 
HETATM   21  H   UNK A   0      -5.243   3.399  66.736  1.00  0.00     0.000 HD 
BRANCH  19  22
ATOM     22  N   SER A   1      -7.296   4.298  65.794  1.00  0.00    -0.078 NA 
ATOM     23  H   SER A   1      -7.056   4.888  64.997  1.00  0.00     0.000 HD 
BRANCH  22  24
ATOM     24  CA  SER A   1      -8.206   3.129  65.637  1.00  0.00    -0.091 C  
BRANCH  24  25
ATOM     25  C   SER A   1      -7.377   1.993  65.011  1.00  0.00    -0.061 C  
ATOM     26  H   SER A   1      -5.624   1.796  64.137  1.00  0.00     0.000 HD 
ATOM     27  O   SER A   1      -6.136   2.497  64.524  1.00  0.00    -0.017 OA 
ENDBRANCH  24  25
BRANCH  24  28
ATOM     28  CB  SER A   1      -9.399   3.424  64.705  1.00  0.00    -0.148 C  
ATOM     29  OG  SER A   1      -9.826   4.785  64.712  1.00  0.00    -0.359 OA 
ATOM     30  HG  SER A   1     -10.561   4.966  64.138  1.00  0.00     0.000 HD 
ENDBRANCH  24  28
ENDBRANCH  22  24
ENDBRANCH  19  22
ENDBRANCH  13  19
BRANCH  18  31
HETATM   31  C   UNK A   0      -7.586   9.244  68.654  1.00  0.00    -0.081 C  
HETATM   32  H   UNK A   0      -6.353  10.604  67.992  1.00  0.00     0.000 HD 
HETATM   33  O   UNK A   0      -6.423   9.665  68.121  1.00  0.00    -0.056 OA 
BRANCH  31  34
ATOM     34  N   SER A   1      -8.484  10.099  69.004  1.00  0.00    -0.140 NA 
ATOM     35  H   SER A   1      -8.380  10.662  69.849  1.00  0.00     0.000 HD 
BRANCH  34  36
ATOM     36  CA  SER A   1      -9.685  10.233  68.124  1.00  0.00    -0.143 C  
BRANCH  36  37
ATOM     37  CB  SER A   1      -9.205  10.659  66.734  1.00  0.00    -0.156 C  
ATOM     38  HG  SER A   1      -8.603  12.318  65.858  1.00  0.00     0.000 HD 
ATOM     39  OG  SER A   1      -8.900  12.053  66.720  1.00  0.00    -0.191 OA 
ENDBRANCH  36  37
BRANCH  36  40
ATOM     40  C   SER A   1     -10.413   8.878  68.047  1.00  0.00    -0.208 C  
ATOM     41  H   SER A   1     -11.098   7.678  66.640  1.00  0.00     0.000 HD 
ATOM     42  O   SER A   1     -10.649   8.514  66.688  1.00  0.00    -0.255 OA 
ENDBRANCH  36  40
ENDBRANCH  34  36
ENDBRANCH  31  34
ENDBRANCH  18  31
ENDBRANCH   8  10
ENDBRANCH   5   8
ENDBRANCH   1   5
TORSDOF 13
ENDMDL
MODEL      201
REMARK 921   NORMALIZED FREE ENERGY PREDICTED BY IDOCK:   -2.10 KCAL/MOL
REMARK 922        TOTAL FREE ENERGY PREDICTED BY IDOCK:   -4.62 KCAL/MOL
REMARK 923 INTER-LIGAND FREE ENERGY PREDICTED BY IDOCK:   -5.92 KCAL/MOL
REMARK 924 INTRA-LIGAND FREE ENERGY PREDICTED BY IDOCK:    1.30 KCAL/MOL
REMARK 927      BINDING AFFINITY PREDICTED BY RF-SCORE:    0.00 PKD
ROOT
HETATM    1  C   UNK A   0     -11.385   6.882  72.062  1.00  0.00    -0.265 C  
HETATM    2  O   UNK A   0     -12.359   5.898  72.454  1.00  0.00    -0.466 OA 
HETATM    3  C   UNK A   0     -10.096   6.623  72.810  1.00  0.00    -0.195 C  
HETATM    4  H   UNK A   0     -13.168   6.061  71.984  1.00  0.00     0.000 HD 
ENDROOT
BRANCH   1   5
HETATM    5  C   UNK A   0     -11.164   6.713  70.569  1.00  0.00    -0.334 C  
HETATM    6  O   UNK A   0     -12.312   6.768  69.856  1.00  0.00    -0.581 OA 
HETATM    7  H   UNK A   0     -12.175   6.662  68.922  1.00  0.00     0.000 HD 
BRANCH   5   8
HETATM    8  N   UNK A   0      -9.994   6.584  70.035  1.00  0.00    -0.168 NA 
HETATM    9  H   UNK A   0      -9.262   6.068  70.522  1.00  0.00     0.000 HD 
BRANCH   8  10
HETATM   10  C   UNK A   0      -9.734   7.170  68.758  1.00  0.00    -0.145 A  
HETATM   11  C   UNK A   0      -9.741   8.572  68.563  1.00  0.00    -0.163 A  
HETATM   12  I   UNK A   0     -10.050   9.846  70.321  1.00  0.00    -0.003 I  
HETATM   13  C   UNK A   0      -9.399   9.129  67.312  1.00  0.00    -0.166 A  
HETATM   14  I   UNK A   0      -9.572   4.201  67.967  1.00  0.00    -0.051 I  
HETATM   15  C   UNK A   0      -8.787   8.280  66.344  1.00  0.00    -0.152 A  
HETATM   16  I   UNK A   0      -7.543   9.264  64.840  1.00  0.00    -0.127 I  
HETATM   17  C   UNK A   0      -9.300   6.330  67.689  1.00  0.00    -0.116 A  
HETATM   18  C   UNK A   0      -8.735   6.864  66.506  1.00  0.00    -0.137 A  
BRANCH  13  19
HETATM   19  C   UNK A   0      -9.753  10.531  66.927  1.00  0.00    -0.180 C  
HETATM   20  O   UNK A   0      -8.801  11.461  67.078  1.00  0.00    -0.158 OA 
HETATM   21  H   UNK A   0      -9.026  12.351  66.833  1.00  0.00     0.000 HD 
BRANCH  19  22
ATOM     22  N   SER A   1     -10.907  10.857  66.457  1.00  0.00    -0.214 NA 
ATOM     23  H   SER A   1     -11.684  10.196  66.466  1.00  0.00     0.000 HD 
BRANCH  22  24
ATOM     24  CA  SER A   1     -11.070  12.228  65.899  1.00  0.00    -0.322 C  
BRANCH  24  25
ATOM     25  C   SER A   1     -11.199  13.189  67.095  1.00  0.00    -0.294 C  
ATOM     26  H   SER A   1     -12.330  14.717  67.604  1.00  0.00     0.000 HD 
ATOM     27  O   SER A   1     -12.250  14.124  66.866  1.00  0.00    -0.439 OA 
ENDBRANCH  24  25
BRANCH  24  28
ATOM     28  CB  SER A   1     -12.336  12.371  65.029  1.00  0.00    -0.369 C  
ATOM     29  OG  SER A   1     -12.234  11.762  63.743  1.00  0.00    -0.418 OA 
ATOM     30  HG  SER A   1     -13.014  11.850  63.207  1.00  0.00     0.000 HD 
ENDBRANCH  24  28
ENDBRANCH  22  24
ENDBRANCH  19  22
ENDBRANCH  13  19
BRANCH  18  31
HETATM   31  C   UNK A   0      -8.048   5.997  65.479  1.00  0.00    -0.133 C  
HETATM   32  H   UNK A   0      -8.438   4.709  64.066  1.00  0.00     0.000 HD 
HETATM   33  O   UNK A   0      -8.870   5.255  64.713  1.00  0.00    -0.141 OA 
BRANCH  31  34
ATOM     34  N   SER A   1      -6.770   5.893  65.346  1.00  0.00    -0.046 NA 
ATOM     35  H   SER A   1      -6.238   6.564  64.792  1.00  0.00     0.000 HD 
BRANCH  34  36
ATOM     36  CA  SER A   1      -6.100   4.750  66.038  1.00  0.00    -0.027 C  
BRANCH  36  37
ATOM     37  CB  SER A   1      -6.245   4.961  67.547  1.00  0.00    -0.039 C  
ATOM     38  HG  SER A   1      -5.235   4.499  69.175  1.00  0.00     0.000 HD 
ATOM     39  OG  SER A   1      -5.145   4.368  68.238  1.00  0.00    -0.006 OA 
ENDBRANCH  36  37
BRANCH  36  40
ATOM     40  C   SER A   1      -6.776   3.432  65.615  1.00  0.00    -0.044 C  
ATOM     41  H   SER A   1      -6.393   1.502  65.738  1.00  0.00     0.000 HD 
ATOM     42  O   SER A   1      -5.976   2.314  65.999  1.00  0.00    -0.021 OA 
ENDBRANCH  36  40
ENDBRANCH  34  36
ENDBRANCH  31  34
ENDBRANCH  18  31
ENDBRANCH   8  10
ENDBRANCH   5   8
ENDBRANCH   1   5
TORSDOF 13
ENDMDL
MODEL      202
REMARK 921   NORMALIZED FREE ENERGY PREDICTED BY IDOCK:   -2.05 KCAL/MOL
REMARK 922        TOTAL FREE ENERGY PREDICTED BY IDOCK:   -4.55 KCAL/MOL
REMARK 923 INTER-LIGAND FREE ENERGY PREDICTED BY IDOCK:   -5.94 KCAL/MOL
REMARK 924 INTRA-LIGAND FREE ENERGY PREDICTED BY IDOCK:    1.39 KCAL/MOL
REMARK 927      BINDING AFFINITY PREDICTED BY RF-SCORE:    0.00 PKD
ROOT
HETATM    1  C   UNK A   0      -5.130  13.018  71.066  1.00  0.00    -0.146 C  
HETATM    2  O   UNK A   0      -5.373  13.573  72.371  1.00  0.00    -0.348 OA 
HETATM    3  C   UNK A   0      -5.494  11.551  71.080  1.00  0.00    -0.063 C  
HETATM    4  H   UNK A   0      -5.144  14.494  72.362  1.00  0.00     0.000 HD 
ENDROOT
BRANCH   1   5
HETATM    5  C   UNK A   0      -6.026  13.769  70.095  1.00  0.00    -0.151 C  
HETATM    6  O   UNK A   0      -7.026  14.440  70.711  1.00  0.00    -0.287 OA 
HETATM    7  H   UNK A   0      -7.586  14.909  70.104  1.00  0.00     0.000 HD 
BRANCH   5   8
HETATM    8  N   UNK A   0      -5.818  13.804  68.820  1.00  0.00    -0.080 NA 
HETATM    9  H   UNK A   0      -4.920  14.122  68.455  1.00  0.00     0.000 HD 
BRANCH   8  10
HETATM   10  C   UNK A   0      -6.854  13.394  67.925  1.00  0.00    -0.144 A  
HETATM   11  C   UNK A   0      -6.848  12.122  67.307  1.00  0.00    -0.149 A  
HETATM   12  I   UNK A   0      -5.247  10.727  67.855  1.00  0.00    -0.035 I  
HETATM   13  C   UNK A   0      -7.925  11.710  66.493  1.00  0.00    -0.053 A  
HETATM   14  I   UNK A   0      -7.829  16.252  68.517  1.00  0.00    -0.227 I  
HETATM   15  C   UNK A   0      -9.127  12.476  66.529  1.00  0.00    -0.177 A  
HETATM   16  I   UNK A   0     -10.965  11.426  65.986  1.00  0.00    -0.084 I  
HETATM   17  C   UNK A   0      -8.004  14.227  67.775  1.00  0.00    -0.168 A  
HETATM   18  C   UNK A   0      -9.188  13.755  67.160  1.00  0.00    -0.245 A  
BRANCH  13  19
HETATM   19  C   UNK A   0      -7.817  10.578  65.519  1.00  0.00    -0.138 C  
HETATM   20  O   UNK A   0      -7.878  10.890  64.217  1.00  0.00    -0.348 OA 
HETATM   21  H   UNK A   0      -7.809  10.171  63.599  1.00  0.00     0.000 HD 
BRANCH  19  22
ATOM     22  N   SER A   1      -7.658   9.354  65.884  1.00  0.00    -0.098 NA 
ATOM     23  H   SER A   1      -6.930   9.094  66.549  1.00  0.00     0.000 HD 
BRANCH  22  24
ATOM     24  CA  SER A   1      -8.573   8.331  65.305  1.00  0.00    -0.132 C  
BRANCH  24  25
ATOM     25  C   SER A   1      -9.038   7.433  66.467  1.00  0.00    -0.162 C  
ATOM     26  H   SER A   1      -9.299   5.509  66.789  1.00  0.00     0.000 HD 
ATOM     27  O   SER A   1      -9.012   6.063  66.072  1.00  0.00    -0.151 OA 
ENDBRANCH  24  25
BRANCH  24  28
ATOM     28  CB  SER A   1      -7.879   7.438  64.255  1.00  0.00    -0.127 C  
ATOM     29  OG  SER A   1      -8.482   7.478  62.963  1.00  0.00    -0.373 OA 
ATOM     30  HG  SER A   1      -8.054   6.928  62.317  1.00  0.00     0.000 HD 
ENDBRANCH  24  28
ENDBRANCH  22  24
ENDBRANCH  19  22
ENDBRANCH  13  19
BRANCH  18  31
HETATM   31  C   UNK A   0     -10.485  14.524  67.212  1.00  0.00    -0.266 C  
HETATM   32  H   UNK A   0     -11.895  15.213  66.053  1.00  0.00     0.000 HD 
HETATM   33  O   UNK A   0     -11.079  14.729  66.020  1.00  0.00    -0.322 OA 
BRANCH  31  34
ATOM     34  N   SER A   1     -10.997  15.025  68.284  1.00  0.00    -0.261 NA 
ATOM     35  H   SER A   1     -10.673  15.916  68.660  1.00  0.00     0.000 HD 
BRANCH  34  36
ATOM     36  CA  SER A   1     -12.084  14.246  68.953  1.00  0.00    -0.279 C  
BRANCH  36  37
ATOM     37  CB  SER A   1     -11.452  13.006  69.591  1.00  0.00    -0.183 C  
ATOM     38  HG  SER A   1     -11.882  11.091  69.762  1.00  0.00     0.000 HD 
ATOM     39  OG  SER A   1     -12.273  11.860  69.365  1.00  0.00    -0.235 OA 
ENDBRANCH  36  37
BRANCH  36  40
ATOM     40  C   SER A   1     -12.748  15.123  70.031  1.00  0.00    -0.164 C  
ATOM     41  H   SER A   1     -13.721  14.851  71.724  1.00  0.00     0.000 HD 
ATOM     42  O   SER A   1     -13.312  14.310  71.059  1.00  0.00    -0.342 OA 
ENDBRANCH  36  40
ENDBRANCH  34  36
ENDBRANCH  31  34
ENDBRANCH  18  31
ENDBRANCH   8  10
ENDBRANCH   5   8
ENDBRANCH   1   5
TORSDOF 13
ENDMDL
MODEL      203
REMARK 921   NORMALIZED FREE ENERGY PREDICTED BY IDOCK:   -2.05 KCAL/MOL
REMARK 922        TOTAL FREE ENERGY PREDICTED BY IDOCK:   -4.54 KCAL/MOL
REMARK 923 INTER-LIGAND FREE ENERGY PREDICTED BY IDOCK:   -4.89 KCAL/MOL
REMARK 924 INTRA-LIGAND FREE ENERGY PREDICTED BY IDOCK:    0.35 KCAL/MOL
REMARK 927      BINDING AFFINITY PREDICTED BY RF-SCORE:    0.00 PKD
ROOT
HETATM    1  C   UNK A   0      -8.428   3.019  67.781  1.00  0.00    -0.085 C  
HETATM    2  O   UNK A   0      -9.122   3.929  66.909  1.00  0.00    -0.128 OA 
HETATM    3  C   UNK A   0      -8.582   1.613  67.246  1.00  0.00    -0.109 C  
HETATM    4  H   UNK A   0      -9.026   4.812  67.245  1.00  0.00     0.000 HD 
ENDROOT
BRANCH   1   5
HETATM    5  C   UNK A   0      -6.965   3.425  67.767  1.00  0.00    -0.050 C  
HETATM    6  O   UNK A   0      -6.146   2.466  68.257  1.00  0.00    -0.024 OA 
HETATM    7  H   UNK A   0      -5.231   2.720  68.249  1.00  0.00     0.000 HD 
BRANCH   5   8
HETATM    8  N   UNK A   0      -6.545   4.549  67.287  1.00  0.00    -0.046 NA 
HETATM    9  H   UNK A   0      -5.741   4.571  66.660  1.00  0.00     0.000 HD 
BRANCH   8  10
HETATM   10  C   UNK A   0      -7.214   5.761  67.642  1.00  0.00    -0.076 A  
HETATM   11  C   UNK A   0      -7.359   6.169  68.988  1.00  0.00    -0.085 A  
HETATM   12  I   UNK A   0      -6.414   4.936  70.537  1.00  0.00    -0.033 I  
HETATM   13  C   UNK A   0      -7.950   7.410  69.308  1.00  0.00    -0.118 A  
HETATM   14  I   UNK A   0      -7.607   5.867  64.592  1.00  0.00    -0.107 I  
HETATM   15  C   UNK A   0      -8.142   8.353  68.256  1.00  0.00    -0.120 A  
HETATM   16  I   UNK A   0      -8.238  10.456  68.843  1.00  0.00    -0.146 I  
HETATM   17  C   UNK A   0      -7.606   6.661  66.605  1.00  0.00    -0.094 A  
HETATM   18  C   UNK A   0      -7.987   7.995  66.883  1.00  0.00    -0.104 A  
BRANCH  13  19
HETATM   19  C   UNK A   0      -8.480   7.727  70.671  1.00  0.00    -0.126 C  
HETATM   20  O   UNK A   0      -7.586   8.089  71.601  1.00  0.00    -0.071 OA 
HETATM   21  H   UNK A   0      -7.923   8.291  72.466  1.00  0.00     0.000 HD 
BRANCH  19  22
ATOM     22  N   SER A   1      -9.733   7.677  70.963  1.00  0.00    -0.164 NA 
ATOM     23  H   SER A   1     -10.324   8.504  70.889  1.00  0.00     0.000 HD 
BRANCH  22  24
ATOM     24  CA  SER A   1     -10.290   6.371  71.414  1.00  0.00    -0.206 C  
BRANCH  24  25
ATOM     25  C   SER A   1     -11.825   6.490  71.352  1.00  0.00    -0.329 C  
ATOM     26  H   SER A   1     -13.182   7.867  71.719  1.00  0.00     0.000 HD 
ATOM     27  O   SER A   1     -12.235   7.794  71.757  1.00  0.00    -0.286 OA 
ENDBRANCH  24  25
BRANCH  24  28
ATOM     28  CB  SER A   1      -9.894   6.023  72.864  1.00  0.00    -0.167 C  
ATOM     29  OG  SER A   1     -10.799   6.511  73.852  1.00  0.00    -0.460 OA 
ATOM     30  HG  SER A   1     -10.554   6.296  74.745  1.00  0.00     0.000 HD 
ENDBRANCH  24  28
ENDBRANCH  22  24
ENDBRANCH  19  22
ENDBRANCH  13  19
BRANCH  18  31
HETATM   31  C   UNK A   0      -8.162   9.026  65.796  1.00  0.00    -0.120 C  
HETATM   32  H   UNK A   0      -7.134  10.241  64.668  1.00  0.00     0.000 HD 
HETATM   33  O   UNK A   0      -7.024   9.592  65.352  1.00  0.00    -0.087 OA 
BRANCH  31  34
ATOM     34  N   SER A   1      -9.301   9.417  65.335  1.00  0.00    -0.273 NA 
ATOM     35  H   SER A   1     -10.140   8.846  65.439  1.00  0.00     0.000 HD 
BRANCH  34  36
ATOM     36  CA  SER A   1      -9.343  10.741  64.642  1.00  0.00    -0.233 C  
BRANCH  36  37
ATOM     37  CB  SER A   1      -9.710  10.495  63.176  1.00  0.00    -0.305 C  
ATOM     38  HG  SER A   1      -9.075   9.357  61.698  1.00  0.00     0.000 HD 
ATOM     39  OG  SER A   1      -8.848   9.509  62.608  1.00  0.00    -0.221 OA 
ENDBRANCH  36  37
BRANCH  36  40
ATOM     40  C   SER A   1     -10.401  11.635  65.316  1.00  0.00    -0.269 C  
ATOM     41  H   SER A   1     -10.492  13.452  66.077  1.00  0.00     0.000 HD 
ATOM     42  O   SER A   1      -9.839  12.901  65.661  1.00  0.00    -0.251 OA 
ENDBRANCH  36  40
ENDBRANCH  34  36
ENDBRANCH  31  34
ENDBRANCH  18  31
ENDBRANCH   8  10
ENDBRANCH   5   8
ENDBRANCH   1   5
TORSDOF 13
ENDMDL
MODEL      204
REMARK 921   NORMALIZED FREE ENERGY PREDICTED BY IDOCK:   -2.04 KCAL/MOL
REMARK 922        TOTAL FREE ENERGY PREDICTED BY IDOCK:   -4.52 KCAL/MOL
REMARK 923 INTER-LIGAND FREE ENERGY PREDICTED BY IDOCK:   -3.81 KCAL/MOL
REMARK 924 INTRA-LIGAND FREE ENERGY PREDICTED BY IDOCK:   -0.72 KCAL/MOL
REMARK 927      BINDING AFFINITY PREDICTED BY RF-SCORE:    0.00 PKD
ROOT
HETATM    1  C   UNK A   0      -6.521   8.237  73.309  1.00  0.00    -0.103 C  
HETATM    2  O   UNK A   0      -7.741   8.808  73.815  1.00  0.00    -0.412 OA 
HETATM    3  C   UNK A   0      -5.717   7.693  74.468  1.00  0.00    -0.074 C  
HETATM    4  H   UNK A   0      -8.246   9.151  73.087  1.00  0.00     0.000 HD 
ENDROOT
BRANCH   1   5
HETATM    5  C   UNK A   0      -6.918   7.108  72.374  1.00  0.00    -0.064 C  
HETATM    6  O   UNK A   0      -7.977   6.397  72.826  1.00  0.00    -0.104 OA 
HETATM    7  H   UNK A   0      -8.226   5.691  72.241  1.00  0.00     0.000 HD 
BRANCH   5   8
HETATM    8  N   UNK A   0      -6.338   6.888  71.241  1.00  0.00    -0.041 NA 
HETATM    9  H   UNK A   0      -5.320   6.857  71.183  1.00  0.00     0.000 HD 
BRANCH   8  10
HETATM   10  C   UNK A   0      -7.131   6.690  70.069  1.00  0.00    -0.071 A  
HETATM   11  C   UNK A   0      -7.500   5.399  69.624  1.00  0.00    -0.066 A  
HETATM   12  I   UNK A   0      -6.913   3.686  70.863  1.00  0.00    -0.033 I  
HETATM   13  C   UNK A   0      -8.353   5.233  68.512  1.00  0.00    -0.089 A  
HETATM   14  I   UNK A   0      -6.886   9.756  69.972  1.00  0.00    -0.144 I  
HETATM   15  C   UNK A   0      -9.049   6.377  68.023  1.00  0.00    -0.113 A  
HETATM   16  I   UNK A   0     -10.907   5.994  66.939  1.00  0.00    -0.001 I  
HETATM   17  C   UNK A   0      -7.699   7.829  69.420  1.00  0.00    -0.106 A  
HETATM   18  C   UNK A   0      -8.728   7.699  68.457  1.00  0.00    -0.128 A  
BRANCH  13  19
HETATM   19  C   UNK A   0      -8.467   3.941  67.764  1.00  0.00    -0.095 C  
HETATM   20  O   UNK A   0      -9.530   3.174  68.038  1.00  0.00    -0.200 OA 
HETATM   21  H   UNK A   0      -9.602   2.354  67.563  1.00  0.00     0.000 HD 
BRANCH  19  22
ATOM     22  N   SER A   1      -7.606   3.565  66.885  1.00  0.00    -0.079 NA 
ATOM     23  H   SER A   1      -6.987   2.773  67.059  1.00  0.00     0.000 HD 
BRANCH  22  24
ATOM     24  CA  SER A   1      -7.542   4.323  65.604  1.00  0.00    -0.085 C  
BRANCH  24  25
ATOM     25  C   SER A   1      -8.355   3.526  64.567  1.00  0.00    -0.093 C  
ATOM     26  H   SER A   1      -9.147   3.851  62.795  1.00  0.00     0.000 HD 
ATOM     27  O   SER A   1      -8.644   4.342  63.434  1.00  0.00    -0.102 OA 
ENDBRANCH  24  25
BRANCH  24  28
ATOM     28  CB  SER A   1      -6.101   4.474  65.073  1.00  0.00    -0.026 C  
ATOM     29  OG  SER A   1      -5.696   3.440  64.177  1.00  0.00    -0.013 OA 
ATOM     30  HG  SER A   1      -4.809   3.533  63.850  1.00  0.00     0.000 HD 
ENDBRANCH  24  28
ENDBRANCH  22  24
ENDBRANCH  19  22
ENDBRANCH  13  19
BRANCH  18  31
HETATM   31  C   UNK A   0      -9.509   8.885  67.947  1.00  0.00    -0.142 C  
HETATM   32  H   UNK A   0     -11.217   9.798  68.178  1.00  0.00     0.000 HD 
HETATM   33  O   UNK A   0     -10.726   9.051  68.499  1.00  0.00    -0.186 OA 
BRANCH  31  34
ATOM     34  N   SER A   1      -9.110   9.675  67.009  1.00  0.00    -0.134 NA 
ATOM     35  H   SER A   1      -8.580  10.521  67.218  1.00  0.00     0.000 HD 
BRANCH  34  36
ATOM     36  CA  SER A   1      -9.456   9.301  65.604  1.00  0.00    -0.256 C  
BRANCH  36  37
ATOM     37  CB  SER A   1     -10.027  10.541  64.912  1.00  0.00    -0.334 C  
ATOM     38  HG  SER A   1     -10.024  12.490  65.205  1.00  0.00     0.000 HD 
ATOM     39  OG  SER A   1      -9.669  11.720  65.634  1.00  0.00    -0.229 OA 
ENDBRANCH  36  37
BRANCH  36  40
ATOM     40  C   SER A   1      -8.185   8.821  64.878  1.00  0.00    -0.159 C  
ATOM     41  H   SER A   1      -7.400   7.104  64.311  1.00  0.00     0.000 HD 
ATOM     42  O   SER A   1      -8.183   7.399  64.759  1.00  0.00    -0.126 OA 
ENDBRANCH  36  40
ENDBRANCH  34  36
ENDBRANCH  31  34
ENDBRANCH  18  31
ENDBRANCH   8  10
ENDBRANCH   5   8
ENDBRANCH   1   5
TORSDOF 13
ENDMDL
MODEL      205
REMARK 921   NORMALIZED FREE ENERGY PREDICTED BY IDOCK:   -2.04 KCAL/MOL
REMARK 922        TOTAL FREE ENERGY PREDICTED BY IDOCK:   -4.52 KCAL/MOL
REMARK 923 INTER-LIGAND FREE ENERGY PREDICTED BY IDOCK:   -4.46 KCAL/MOL
REMARK 924 INTRA-LIGAND FREE ENERGY PREDICTED BY IDOCK:   -0.06 KCAL/MOL
REMARK 927      BINDING AFFINITY PREDICTED BY RF-SCORE:    0.00 PKD
ROOT
HETATM    1  C   UNK A   0     -11.471   6.670  70.460  1.00  0.00    -0.376 C  
HETATM    2  O   UNK A   0     -12.891   6.624  70.684  1.00  0.00    -0.333 OA 
HETATM    3  C   UNK A   0     -11.064   8.098  70.176  1.00  0.00    -0.187 C  
HETATM    4  H   UNK A   0     -13.147   5.727  70.863  1.00  0.00     0.000 HD 
ENDROOT
BRANCH   1   5
HETATM    5  C   UNK A   0     -10.808   6.183  71.738  1.00  0.00    -0.255 C  
HETATM    6  O   UNK A   0     -11.560   6.407  72.840  1.00  0.00    -0.475 OA 
HETATM    7  H   UNK A   0     -11.146   6.103  73.640  1.00  0.00     0.000 HD 
BRANCH   5   8
HETATM    8  N   UNK A   0      -9.670   5.571  71.758  1.00  0.00    -0.161 NA 
HETATM    9  H   UNK A   0      -9.539   4.751  72.349  1.00  0.00     0.000 HD 
BRANCH   8  10
HETATM   10  C   UNK A   0      -8.597   6.053  70.948  1.00  0.00    -0.131 A  
HETATM   11  C   UNK A   0      -8.220   5.410  69.745  1.00  0.00    -0.100 A  
HETATM   12  I   UNK A   0      -9.421   3.698  69.084  1.00  0.00     0.011 I  
HETATM   13  C   UNK A   0      -7.212   5.953  68.921  1.00  0.00    -0.082 A  
HETATM   14  I   UNK A   0      -8.414   8.087  73.250  1.00  0.00    -0.256 I  
HETATM   15  C   UNK A   0      -6.780   7.287  69.178  1.00  0.00    -0.049 A  
HETATM   16  I   UNK A   0      -5.913   8.369  67.489  1.00  0.00    -0.049 I  
HETATM   17  C   UNK A   0      -7.992   7.304  71.277  1.00  0.00    -0.098 A  
HETATM   18  C   UNK A   0      -7.150   7.985  70.366  1.00  0.00    -0.045 A  
BRANCH  13  19
HETATM   19  C   UNK A   0      -6.506   5.152  67.871  1.00  0.00    -0.048 C  
HETATM   20  O   UNK A   0      -5.556   4.305  68.290  1.00  0.00    -0.015 OA 
HETATM   21  H   UNK A   0      -5.109   3.797  67.624  1.00  0.00     0.000 HD 
BRANCH  19  22
ATOM     22  N   SER A   1      -6.786   5.241  66.618  1.00  0.00    -0.061 NA 
ATOM     23  H   SER A   1      -6.452   6.026  66.059  1.00  0.00     0.000 HD 
BRANCH  22  24
ATOM     24  CA  SER A   1      -7.615   4.162  66.011  1.00  0.00    -0.089 C  
BRANCH  24  25
ATOM     25  C   SER A   1      -6.700   3.373  65.057  1.00  0.00    -0.041 C  
ATOM     26  H   SER A   1      -5.868   3.651  63.295  1.00  0.00     0.000 HD 
ATOM     27  O   SER A   1      -6.433   4.138  63.884  1.00  0.00    -0.035 OA 
ENDBRANCH  24  25
BRANCH  24  28
ATOM     28  CB  SER A   1      -8.803   4.712  65.194  1.00  0.00    -0.147 C  
ATOM     29  OG  SER A   1      -9.653   3.706  64.648  1.00  0.00    -0.152 OA 
ATOM     30  HG  SER A   1     -10.384   4.045  64.144  1.00  0.00     0.000 HD 
ENDBRANCH  24  28
ENDBRANCH  22  24
ENDBRANCH  19  22
ENDBRANCH  13  19
BRANCH  18  31
HETATM   31  C   UNK A   0      -6.705   9.409  70.591  1.00  0.00    -0.097 C  
HETATM   32  H   UNK A   0      -5.191  10.445  71.255  1.00  0.00     0.000 HD 
HETATM   33  O   UNK A   0      -5.472   9.549  71.113  1.00  0.00    -0.047 OA 
BRANCH  31  34
ATOM     34  N   SER A   1      -7.437  10.448  70.373  1.00  0.00    -0.445 NA 
ATOM     35  H   SER A   1      -7.903  10.938  71.137  1.00  0.00     0.000 HD 
BRANCH  34  36
ATOM     36  CA  SER A   1      -7.575  10.906  68.957  1.00  0.00    -0.135 C  
BRANCH  36  37
ATOM     37  CB  SER A   1      -9.063  10.884  68.597  1.00  0.00    -0.175 C  
ATOM     38  HG  SER A   1     -10.161  11.102  66.975  1.00  0.00     0.000 HD 
ATOM     39  OG  SER A   1      -9.237  11.115  67.199  1.00  0.00    -0.156 OA 
ENDBRANCH  36  37
BRANCH  36  40
ATOM     40  C   SER A   1      -7.013  12.334  68.827  1.00  0.00    -0.098 C  
ATOM     41  H   SER A   1      -5.828  13.526  69.858  1.00  0.00     0.000 HD 
ATOM     42  O   SER A   1      -6.174  12.645  69.938  1.00  0.00    -0.132 OA 
ENDBRANCH  36  40
ENDBRANCH  34  36
ENDBRANCH  31  34
ENDBRANCH  18  31
ENDBRANCH   8  10
ENDBRANCH   5   8
ENDBRANCH   1   5
TORSDOF 13
ENDMDL
MODEL      206
REMARK 921   NORMALIZED FREE ENERGY PREDICTED BY IDOCK:   -2.03 KCAL/MOL
REMARK 922        TOTAL FREE ENERGY PREDICTED BY IDOCK:   -4.50 KCAL/MOL
REMARK 923 INTER-LIGAND FREE ENERGY PREDICTED BY IDOCK:   -4.00 KCAL/MOL
REMARK 924 INTRA-LIGAND FREE ENERGY PREDICTED BY IDOCK:   -0.50 KCAL/MOL
REMARK 927      BINDING AFFINITY PREDICTED BY RF-SCORE:    0.00 PKD
ROOT
HETATM    1  C   UNK A   0      -7.862   7.818  72.772  1.00  0.00    -0.112 C  
HETATM    2  O   UNK A   0      -9.004   8.686  72.875  1.00  0.00    -0.343 OA 
HETATM    3  C   UNK A   0      -7.636   7.144  74.107  1.00  0.00    -0.126 C  
HETATM    4  H   UNK A   0      -9.146   9.110  72.036  1.00  0.00     0.000 HD 
ENDROOT
BRANCH   1   5
HETATM    5  C   UNK A   0      -8.192   6.780  71.713  1.00  0.00    -0.106 C  
HETATM    6  O   UNK A   0      -9.480   6.369  71.761  1.00  0.00    -0.154 OA 
HETATM    7  H   UNK A   0      -9.687   5.719  71.099  1.00  0.00     0.000 HD 
BRANCH   5   8
HETATM    8  N   UNK A   0      -7.343   6.375  70.827  1.00  0.00    -0.074 NA 
HETATM    9  H   UNK A   0      -6.351   6.315  71.056  1.00  0.00     0.000 HD 
BRANCH   8  10
HETATM   10  C   UNK A   0      -7.803   6.013  69.523  1.00  0.00    -0.099 A  
HETATM   11  C   UNK A   0      -8.020   4.665  69.154  1.00  0.00    -0.070 A  
HETATM   12  I   UNK A   0      -7.742   3.127  70.693  1.00  0.00    -0.050 I  
HETATM   13  C   UNK A   0      -8.553   4.339  67.888  1.00  0.00    -0.109 A  
HETATM   14  I   UNK A   0      -7.598   9.059  69.135  1.00  0.00    -0.076 I  
HETATM   15  C   UNK A   0      -9.120   5.389  67.108  1.00  0.00    -0.111 A  
HETATM   16  I   UNK A   0     -10.628   4.801  65.639  1.00  0.00     0.314 I  
HETATM   17  C   UNK A   0      -8.205   7.046  68.623  1.00  0.00    -0.122 A  
HETATM   18  C   UNK A   0      -8.947   6.763  67.452  1.00  0.00    -0.115 A  
BRANCH  13  19
HETATM   19  C   UNK A   0      -8.446   2.970  67.293  1.00  0.00    -0.094 C  
HETATM   20  O   UNK A   0      -9.593   2.315  67.067  1.00  0.00    -0.393 OA 
HETATM   21  H   UNK A   0      -9.525   1.446  66.689  1.00  0.00     0.000 HD 
BRANCH  19  22
ATOM     22  N   SER A   1      -7.320   2.426  66.989  1.00  0.00    -0.060 NA 
ATOM     23  H   SER A   1      -6.607   2.260  67.700  1.00  0.00     0.000 HD 
BRANCH  22  24
ATOM     24  CA  SER A   1      -7.090   2.048  65.567  1.00  0.00    -0.052 C  
BRANCH  24  25
ATOM     25  C   SER A   1      -5.568   1.911  65.377  1.00  0.00    -0.012 C  
ATOM     26  H   SER A   1      -4.189   2.650  64.182  1.00  0.00     0.000 HD 
ATOM     27  O   SER A   1      -5.128   2.735  64.300  1.00  0.00    -0.007 OA 
ENDBRANCH  24  25
BRANCH  24  28
ATOM     28  CB  SER A   1      -7.603   3.115  64.577  1.00  0.00    -0.076 C  
ATOM     29  OG  SER A   1      -7.766   2.643  63.240  1.00  0.00    -0.061 OA 
ATOM     30  HG  SER A   1      -8.083   3.300  62.631  1.00  0.00     0.000 HD 
ENDBRANCH  24  28
ENDBRANCH  22  24
ENDBRANCH  19  22
ENDBRANCH  13  19
BRANCH  18  31
HETATM   31  C   UNK A   0      -9.591   7.849  66.624  1.00  0.00    -0.226 C  
HETATM   32  H   UNK A   0     -11.172   8.990  66.574  1.00  0.00     0.000 HD 
HETATM   33  O   UNK A   0     -10.767   8.307  67.094  1.00  0.00    -0.302 OA 
BRANCH  31  34
ATOM     34  N   SER A   1      -9.121   8.296  65.510  1.00  0.00    -0.395 NA 
ATOM     35  H   SER A   1      -8.969   7.677  64.713  1.00  0.00     0.000 HD 
BRANCH  34  36
ATOM     36  CA  SER A   1      -8.810   9.755  65.433  1.00  0.00    -0.169 C  
BRANCH  36  37
ATOM     37  CB  SER A   1      -7.394   9.906  64.871  1.00  0.00    -0.136 C  
ATOM     38  HG  SER A   1      -5.681   8.939  64.987  1.00  0.00     0.000 HD 
ATOM     39  OG  SER A   1      -6.560   8.845  65.336  1.00  0.00    -0.066 OA 
ENDBRANCH  36  37
BRANCH  36  40
ATOM     40  C   SER A   1      -9.830  10.445  64.507  1.00  0.00    -0.339 C  
ATOM     41  H   SER A   1     -10.015  10.824  62.581  1.00  0.00     0.000 HD 
ATOM     42  O   SER A   1      -9.386  10.398  63.152  1.00  0.00    -0.259 OA 
ENDBRANCH  36  40
ENDBRANCH  34  36
ENDBRANCH  31  34
ENDBRANCH  18  31
ENDBRANCH   8  10
ENDBRANCH   5   8
ENDBRANCH   1   5
TORSDOF 13
ENDMDL
MODEL      207
REMARK 921   NORMALIZED FREE ENERGY PREDICTED BY IDOCK:   -2.01 KCAL/MOL
REMARK 922        TOTAL FREE ENERGY PREDICTED BY IDOCK:   -4.47 KCAL/MOL
REMARK 923 INTER-LIGAND FREE ENERGY PREDICTED BY IDOCK:   -4.04 KCAL/MOL
REMARK 924 INTRA-LIGAND FREE ENERGY PREDICTED BY IDOCK:   -0.43 KCAL/MOL
REMARK 927      BINDING AFFINITY PREDICTED BY RF-SCORE:    0.00 PKD
ROOT
HETATM    1  C   UNK A   0      -9.224   4.315  64.411  1.00  0.00    -0.155 C  
HETATM    2  O   UNK A   0      -7.921   4.402  63.807  1.00  0.00    -0.085 OA 
HETATM    3  C   UNK A   0      -9.427   2.913  64.940  1.00  0.00    -0.123 C  
HETATM    4  H   UNK A   0      -7.793   5.283  63.475  1.00  0.00     0.000 HD 
ENDROOT
BRANCH   1   5
HETATM    5  C   UNK A   0      -9.246   5.313  65.556  1.00  0.00    -0.112 C  
HETATM    6  O   UNK A   0     -10.492   5.540  66.033  1.00  0.00    -0.439 OA 
HETATM    7  H   UNK A   0     -10.506   6.165  66.749  1.00  0.00     0.000 HD 
BRANCH   5   8
HETATM    8  N   UNK A   0      -8.179   5.845  66.054  1.00  0.00    -0.118 NA 
HETATM    9  H   UNK A   0      -7.274   5.392  65.931  1.00  0.00     0.000 HD 
BRANCH   8  10
HETATM   10  C   UNK A   0      -8.277   7.072  66.780  1.00  0.00    -0.111 A  
HETATM   11  C   UNK A   0      -8.395   7.100  68.190  1.00  0.00    -0.124 A  
HETATM   12  I   UNK A   0      -8.304   5.188  69.260  1.00  0.00    -0.096 I  
HETATM   13  C   UNK A   0      -8.405   8.326  68.890  1.00  0.00    -0.127 A  
HETATM   14  I   UNK A   0      -8.191   8.208  63.922  1.00  0.00     0.168 I  
HETATM   15  C   UNK A   0      -8.021   9.505  68.186  1.00  0.00    -0.094 A  
HETATM   16  I   UNK A   0      -7.243  11.148  69.397  1.00  0.00     0.102 I  
HETATM   17  C   UNK A   0      -8.091   8.303  66.081  1.00  0.00    -0.111 A  
HETATM   18  C   UNK A   0      -7.868   9.521  66.767  1.00  0.00    -0.101 A  
BRANCH  13  19
HETATM   19  C   UNK A   0      -8.907   8.451  70.295  1.00  0.00    -0.142 C  
HETATM   20  O   UNK A   0     -10.069   9.095  70.469  1.00  0.00    -0.201 OA 
HETATM   21  H   UNK A   0     -10.387   9.174  71.361  1.00  0.00     0.000 HD 
BRANCH  19  22
ATOM     22  N   SER A   1      -8.279   7.963  71.307  1.00  0.00    -0.098 NA 
ATOM     23  H   SER A   1      -8.769   7.418  72.017  1.00  0.00     0.000 HD 
BRANCH  22  24
ATOM     24  CA  SER A   1      -6.815   8.218  71.408  1.00  0.00    -0.062 C  
BRANCH  24  25
ATOM     25  C   SER A   1      -6.141   6.866  71.708  1.00  0.00    -0.038 C  
ATOM     26  H   SER A   1      -6.068   5.590  73.205  1.00  0.00     0.000 HD 
ATOM     27  O   SER A   1      -6.484   6.424  73.020  1.00  0.00    -0.065 OA 
ENDBRANCH  24  25
BRANCH  24  28
ATOM     28  CB  SER A   1      -6.459   9.196  72.547  1.00  0.00     0.238 C  
ATOM     29  OG  SER A   1      -7.389   9.201  73.628  1.00  0.00    -0.187 OA 
ATOM     30  HG  SER A   1      -7.170   9.803  74.329  1.00  0.00     0.000 HD 
ENDBRANCH  24  28
ENDBRANCH  22  24
ENDBRANCH  19  22
ENDBRANCH  13  19
BRANCH  18  31
HETATM   31  C   UNK A   0      -7.426  10.776  66.057  1.00  0.00    -0.125 C  
HETATM   32  H   UNK A   0      -5.971  11.474  64.961  1.00  0.00     0.000 HD 
HETATM   33  O   UNK A   0      -6.249  10.684  65.409  1.00  0.00    -0.124 OA 
BRANCH  31  34
ATOM     34  N   SER A   1      -8.061  11.898  66.089  1.00  0.00    -0.365 NA 
ATOM     35  H   SER A   1      -7.572  12.779  66.249  1.00  0.00     0.000 HD 
BRANCH  34  36
ATOM     36  CA  SER A   1      -9.540  11.855  65.881  1.00  0.00    -0.231 C  
BRANCH  36  37
ATOM     37  CB  SER A   1     -10.115  13.212  66.299  1.00  0.00    -0.285 C  
ATOM     38  HG  SER A   1     -10.251  14.277  67.951  1.00  0.00     0.000 HD 
ATOM     39  OG  SER A   1      -9.895  13.436  67.692  1.00  0.00    -0.217 OA 
ENDBRANCH  36  37
BRANCH  36  40
ATOM     40  C   SER A   1      -9.838  11.583  64.395  1.00  0.00    -0.241 C  
ATOM     41  H   SER A   1     -10.356  12.628  62.805  1.00  0.00     0.000 HD 
ATOM     42  O   SER A   1     -10.172  12.795  63.721  1.00  0.00    -0.378 OA 
ENDBRANCH  36  40
ENDBRANCH  34  36
ENDBRANCH  31  34
ENDBRANCH  18  31
ENDBRANCH   8  10
ENDBRANCH   5   8
ENDBRANCH   1   5
TORSDOF 13
ENDMDL
MODEL      208
REMARK 921   NORMALIZED FREE ENERGY PREDICTED BY IDOCK:   -2.01 KCAL/MOL
REMARK 922        TOTAL FREE ENERGY PREDICTED BY IDOCK:   -4.46 KCAL/MOL
REMARK 923 INTER-LIGAND FREE ENERGY PREDICTED BY IDOCK:   -6.05 KCAL/MOL
REMARK 924 INTRA-LIGAND FREE ENERGY PREDICTED BY IDOCK:    1.59 KCAL/MOL
REMARK 927      BINDING AFFINITY PREDICTED BY RF-SCORE:    0.00 PKD
ROOT
HETATM    1  C   UNK A   0     -11.320  15.997  69.604  1.00  0.00    -0.332 C  
HETATM    2  O   UNK A   0     -11.475  16.060  71.033  1.00  0.00    -0.386 OA 
HETATM    3  C   UNK A   0     -10.290  17.018  69.176  1.00  0.00    -0.313 C  
HETATM    4  H   UNK A   0     -12.123  15.419  71.301  1.00  0.00     0.000 HD 
ENDROOT
BRANCH   1   5
HETATM    5  C   UNK A   0     -10.832  14.596  69.276  1.00  0.00    -0.258 C  
HETATM    6  O   UNK A   0      -9.540  14.392  69.624  1.00  0.00    -0.353 OA 
HETATM    7  H   UNK A   0      -9.235  13.516  69.419  1.00  0.00     0.000 HD 
BRANCH   5   8
HETATM    8  N   UNK A   0     -11.590  13.681  68.769  1.00  0.00    -0.299 NA 
HETATM    9  H   UNK A   0     -12.604  13.749  68.853  1.00  0.00     0.000 HD 
BRANCH   8  10
HETATM   10  C   UNK A   0     -10.999  12.573  68.088  1.00  0.00    -0.228 A  
HETATM   11  C   UNK A   0     -10.354  12.720  66.837  1.00  0.00    -0.238 A  
HETATM   12  I   UNK A   0     -10.179  14.744  66.011  1.00  0.00    -0.394 I  
HETATM   13  C   UNK A   0      -9.705  11.626  66.225  1.00  0.00    -0.241 A  
HETATM   14  I   UNK A   0     -12.146  11.086  70.525  1.00  0.00    -0.434 I  
HETATM   15  C   UNK A   0      -9.476  10.457  67.009  1.00  0.00    -0.163 A  
HETATM   16  I   UNK A   0      -7.814   9.182  66.385  1.00  0.00    -0.100 I  
HETATM   17  C   UNK A   0     -10.917  11.315  68.760  1.00  0.00    -0.220 A  
HETATM   18  C   UNK A   0     -10.086  10.272  68.285  1.00  0.00    -0.176 A  
BRANCH  13  19
HETATM   19  C   UNK A   0      -9.354  11.604  64.770  1.00  0.00     0.018 C  
HETATM   20  O   UNK A   0      -8.053  11.517  64.461  1.00  0.00     0.196 OA 
HETATM   21  H   UNK A   0      -7.831  11.503  63.537  1.00  0.00     0.000 HD 
BRANCH  19  22
ATOM     22  N   SER A   1     -10.239  11.652  63.837  1.00  0.00    -0.327 NA 
ATOM     23  H   SER A   1     -10.094  11.172  62.949  1.00  0.00     0.000 HD 
BRANCH  22  24
ATOM     24  CA  SER A   1     -11.483  12.430  64.096  1.00  0.00    -0.381 C  
BRANCH  24  25
ATOM     25  C   SER A   1     -12.653  11.428  64.086  1.00  0.00     0.623 C  
ATOM     26  H   SER A   1     -14.233  11.064  62.970  1.00  0.00     0.000 HD 
ATOM     27  O   SER A   1     -13.511  11.682  62.976  1.00  0.00    -0.237 OA 
ENDBRANCH  24  25
BRANCH  24  28
ATOM     28  CB  SER A   1     -11.754  13.496  63.015  1.00  0.00     0.655 C  
ATOM     29  OG  SER A   1     -12.526  14.607  63.468  1.00  0.00    -1.069 OA 
ATOM     30  HG  SER A   1     -12.693  15.263  62.802  1.00  0.00     0.000 HD 
ENDBRANCH  24  28
ENDBRANCH  22  24
ENDBRANCH  19  22
ENDBRANCH  13  19
BRANCH  18  31
HETATM   31  C   UNK A   0      -9.794   9.039  69.105  1.00  0.00    -0.175 C  
HETATM   32  H   UNK A   0      -9.226   8.496  70.890  1.00  0.00     0.000 HD 
HETATM   33  O   UNK A   0      -9.410   9.272  70.374  1.00  0.00    -0.211 OA 
BRANCH  31  34
ATOM     34  N   SER A   1      -9.834   7.833  68.652  1.00  0.00    -0.164 NA 
ATOM     35  H   SER A   1      -8.987   7.353  68.346  1.00  0.00     0.000 HD 
BRANCH  34  36
ATOM     36  CA  SER A   1     -11.170   7.166  68.594  1.00  0.00     0.149 C  
BRANCH  36  37
ATOM     37  CB  SER A   1     -11.127   6.117  67.479  1.00  0.00    -0.215 C  
ATOM     38  HG  SER A   1      -9.858   5.542  66.085  1.00  0.00     0.000 HD 
ATOM     39  OG  SER A   1      -9.886   6.192  66.777  1.00  0.00    -0.150 OA 
ENDBRANCH  36  37
BRANCH  36  40
ATOM     40  C   SER A   1     -11.463   6.494  69.949  1.00  0.00    -0.403 C  
ATOM     41  H   SER A   1     -10.533   5.286  71.199  1.00  0.00     0.000 HD 
ATOM     42  O   SER A   1     -10.353   5.699  70.364  1.00  0.00    -0.221 OA 
ENDBRANCH  36  40
ENDBRANCH  34  36
ENDBRANCH  31  34
ENDBRANCH  18  31
ENDBRANCH   8  10
ENDBRANCH   5   8
ENDBRANCH   1   5
TORSDOF 13
ENDMDL
MODEL      209
REMARK 921   NORMALIZED FREE ENERGY PREDICTED BY IDOCK:   -2.00 KCAL/MOL
REMARK 922        TOTAL FREE ENERGY PREDICTED BY IDOCK:   -4.44 KCAL/MOL
REMARK 923 INTER-LIGAND FREE ENERGY PREDICTED BY IDOCK:   -6.32 KCAL/MOL
REMARK 924 INTRA-LIGAND FREE ENERGY PREDICTED BY IDOCK:    1.88 KCAL/MOL
REMARK 927      BINDING AFFINITY PREDICTED BY RF-SCORE:    0.00 PKD
ROOT
HETATM    1  C   UNK A   0      -8.916   7.177  66.251  1.00  0.00    -0.155 C  
HETATM    2  O   UNK A   0     -10.275   7.530  65.939  1.00  0.00    -0.108 OA 
HETATM    3  C   UNK A   0      -8.844   5.690  66.519  1.00  0.00    -0.123 C  
HETATM    4  H   UNK A   0     -10.320   8.464  65.771  1.00  0.00     0.000 HD 
ENDROOT
BRANCH   1   5
HETATM    5  C   UNK A   0      -8.079   7.528  65.032  1.00  0.00    -0.127 C  
HETATM    6  O   UNK A   0      -8.181   6.613  64.041  1.00  0.00    -0.285 OA 
HETATM    7  H   UNK A   0      -7.658   6.832  63.279  1.00  0.00     0.000 HD 
BRANCH   5   8
HETATM    8  N   UNK A   0      -7.388   8.615  64.936  1.00  0.00    -0.088 NA 
HETATM    9  H   UNK A   0      -6.651   8.695  64.235  1.00  0.00     0.000 HD 
BRANCH   8  10
HETATM   10  C   UNK A   0      -7.661   9.705  65.819  1.00  0.00    -0.106 A  
HETATM   11  C   UNK A   0      -8.470  10.798  65.429  1.00  0.00    -0.132 A  
HETATM   12  I   UNK A   0      -9.406  10.721  63.447  1.00  0.00    -0.381 I  
HETATM   13  C   UNK A   0      -8.794  11.821  66.346  1.00  0.00    -0.170 A  
HETATM   14  I   UNK A   0      -5.790   8.072  67.635  1.00  0.00    -0.044 I  
HETATM   15  C   UNK A   0      -8.524  11.594  67.728  1.00  0.00    -0.144 A  
HETATM   16  I   UNK A   0      -9.737  12.725  69.151  1.00  0.00     1.125 I  
HETATM   17  C   UNK A   0      -7.239   9.613  67.179  1.00  0.00    -0.087 A  
HETATM   18  C   UNK A   0      -7.732  10.494  68.172  1.00  0.00    -0.096 A  
BRANCH  13  19
HETATM   19  C   UNK A   0      -9.298  13.164  65.917  1.00  0.00     0.081 C  
HETATM   20  O   UNK A   0      -8.561  14.228  66.263  1.00  0.00    -0.398 OA 
HETATM   21  H   UNK A   0      -8.882  15.080  65.990  1.00  0.00     0.000 HD 
BRANCH  19  22
ATOM     22  N   SER A   1     -10.379  13.319  65.235  1.00  0.00    -0.307 NA 
ATOM     23  H   SER A   1     -10.630  12.668  64.491  1.00  0.00     0.000 HD 
BRANCH  22  24
ATOM     24  CA  SER A   1     -11.252  14.479  65.568  1.00  0.00    -0.335 C  
BRANCH  24  25
ATOM     25  C   SER A   1     -12.642  14.182  64.976  1.00  0.00    -0.380 C  
ATOM     26  H   SER A   1     -13.397  13.747  63.211  1.00  0.00     0.000 HD 
ATOM     27  O   SER A   1     -12.539  13.930  63.576  1.00  0.00    -0.842 OA 
ENDBRANCH  24  25
BRANCH  24  28
ATOM     28  CB  SER A   1     -10.742  15.802  64.958  1.00  0.00    -0.421 C  
ATOM     29  OG  SER A   1     -11.464  16.232  63.806  1.00  0.00    -1.475 OA 
ATOM     30  HG  SER A   1     -11.150  17.047  63.431  1.00  0.00     0.000 HD 
ENDBRANCH  24  28
ENDBRANCH  22  24
ENDBRANCH  19  22
ENDBRANCH  13  19
BRANCH  18  31
HETATM   31  C   UNK A   0      -7.495  10.262  69.644  1.00  0.00    -0.158 C  
HETATM   32  H   UNK A   0      -6.069   9.856  70.912  1.00  0.00     0.000 HD 
HETATM   33  O   UNK A   0      -6.218  10.002  69.985  1.00  0.00    -0.050 OA 
BRANCH  31  34
ATOM     34  N   SER A   1      -8.421  10.242  70.540  1.00  0.00    -0.226 NA 
ATOM     35  H   SER A   1      -8.701  11.091  71.033  1.00  0.00     0.000 HD 
BRANCH  34  36
ATOM     36  CA  SER A   1      -9.069   8.927  70.827  1.00  0.00    -0.213 C  
BRANCH  36  37
ATOM     37  CB  SER A   1     -10.526   9.006  70.362  1.00  0.00    -0.213 C  
ATOM     38  HG  SER A   1     -11.537   8.643  68.710  1.00  0.00     0.000 HD 
ATOM     39  OG  SER A   1     -10.634   8.594  68.999  1.00  0.00    -0.217 OA 
ENDBRANCH  36  37
BRANCH  36  40
ATOM     40  C   SER A   1      -8.324   7.815  70.065  1.00  0.00    -0.130 C  
ATOM     41  H   SER A   1      -7.673   5.991  70.433  1.00  0.00     0.000 HD 
ATOM     42  O   SER A   1      -8.132   6.676  70.903  1.00  0.00    -0.115 OA 
ENDBRANCH  36  40
ENDBRANCH  34  36
ENDBRANCH  31  34
ENDBRANCH  18  31
ENDBRANCH   8  10
ENDBRANCH   5   8
ENDBRANCH   1   5
TORSDOF 13
ENDMDL
MODEL      210
REMARK 921   NORMALIZED FREE ENERGY PREDICTED BY IDOCK:   -1.99 KCAL/MOL
REMARK 922        TOTAL FREE ENERGY PREDICTED BY IDOCK:   -4.43 KCAL/MOL
REMARK 923 INTER-LIGAND FREE ENERGY PREDICTED BY IDOCK:   -4.05 KCAL/MOL
REMARK 924 INTRA-LIGAND FREE ENERGY PREDICTED BY IDOCK:   -0.38 KCAL/MOL
REMARK 927      BINDING AFFINITY PREDICTED BY RF-SCORE:    0.00 PKD
ROOT
HETATM    1  C   UNK A   0     -12.200  15.681  72.484  1.00  0.00    -0.440 C  
HETATM    2  O   UNK A   0     -11.888  16.855  73.255  1.00  0.00    -0.367 OA 
HETATM    3  C   UNK A   0     -13.674  15.693  72.146  1.00  0.00    -0.554 C  
HETATM    4  H   UNK A   0     -10.962  16.847  73.467  1.00  0.00     0.000 HD 
ENDROOT
BRANCH   1   5
HETATM    5  C   UNK A   0     -11.373  15.755  71.213  1.00  0.00    -0.376 C  
HETATM    6  O   UNK A   0     -11.782  16.735  70.374  1.00  0.00    -0.244 OA 
HETATM    7  H   UNK A   0     -11.265  16.782  69.578  1.00  0.00     0.000 HD 
BRANCH   5   8
HETATM    8  N   UNK A   0     -10.352  14.997  70.985  1.00  0.00    -0.200 NA 
HETATM    9  H   UNK A   0      -9.731  14.729  71.749  1.00  0.00     0.000 HD 
BRANCH   8  10
HETATM   10  C   UNK A   0     -10.098  14.536  69.657  1.00  0.00     0.178 A  
HETATM   11  C   UNK A   0     -10.824  13.466  69.084  1.00  0.00    -0.114 A  
HETATM   12  I   UNK A   0     -12.456  12.593  70.262  1.00  0.00     0.147 I  
HETATM   13  C   UNK A   0     -10.612  13.085  67.742  1.00  0.00    -0.235 A  
HETATM   14  I   UNK A   0      -7.931  16.714  69.834  1.00  0.00     2.087 I  
HETATM   15  C   UNK A   0      -9.864  13.963  66.904  1.00  0.00    -0.268 A  
HETATM   16  I   UNK A   0     -10.249  13.819  64.758  1.00  0.00     0.194 I  
HETATM   17  C   UNK A   0      -9.199  15.277  68.830  1.00  0.00    -0.211 A  
HETATM   18  C   UNK A   0      -9.133  15.069  67.432  1.00  0.00    -0.194 A  
BRANCH  13  19
HETATM   19  C   UNK A   0     -11.040  11.756  67.200  1.00  0.00    -0.296 C  
HETATM   20  O   UNK A   0     -12.137  11.739  66.432  1.00  0.00    -0.467 OA 
HETATM   21  H   UNK A   0     -12.408  10.896  66.088  1.00  0.00     0.000 HD 
BRANCH  19  22
ATOM     22  N   SER A   1     -10.396  10.666  67.434  1.00  0.00    -0.207 NA 
ATOM     23  H   SER A   1      -9.805  10.241  66.720  1.00  0.00     0.000 HD 
BRANCH  22  24
ATOM     24  CA  SER A   1     -10.543  10.046  68.780  1.00  0.00    -0.217 C  
BRANCH  24  25
ATOM     25  C   SER A   1      -9.208  10.249  69.519  1.00  0.00    -0.170 C  
ATOM     26  H   SER A   1      -7.903   9.130  70.478  1.00  0.00     0.000 HD 
ATOM     27  O   SER A   1      -8.727   9.004  70.022  1.00  0.00    -0.133 OA 
ENDBRANCH  24  25
BRANCH  24  28
ATOM     28  CB  SER A   1     -10.828   8.531  68.710  1.00  0.00     0.043 C  
ATOM     29  OG  SER A   1     -10.063   7.836  67.727  1.00  0.00    -0.168 OA 
ATOM     30  HG  SER A   1     -10.239   6.903  67.684  1.00  0.00     0.000 HD 
ENDBRANCH  24  28
ENDBRANCH  22  24
ENDBRANCH  19  22
ENDBRANCH  13  19
BRANCH  18  31
HETATM   31  C   UNK A   0      -8.381  16.001  66.514  1.00  0.00    -0.313 C  
HETATM   32  H   UNK A   0      -6.583  16.356  65.843  1.00  0.00     0.000 HD 
HETATM   33  O   UNK A   0      -7.057  15.770  66.421  1.00  0.00     0.050 OA 
BRANCH  31  34
ATOM     34  N   SER A   1      -8.909  16.998  65.890  1.00  0.00    -0.532 NA 
ATOM     35  H   SER A   1      -8.846  17.081  64.875  1.00  0.00     0.000 HD 
BRANCH  34  36
ATOM     36  CA  SER A   1      -9.616  18.025  66.713  1.00  0.00    -0.303 C  
BRANCH  36  37
ATOM     37  CB  SER A   1      -8.832  19.336  66.606  1.00  0.00    -0.334 C  
ATOM     38  HG  SER A   1      -9.131  21.237  67.030  1.00  0.00     0.000 HD 
ATOM     39  OG  SER A   1      -9.617  20.424  67.097  1.00  0.00    -0.412 OA 
ENDBRANCH  36  37
BRANCH  36  40
ATOM     40  C   SER A   1     -11.047  18.212  66.174  1.00  0.00     0.548 C  
ATOM     41  H   SER A   1     -11.926  18.365  64.415  1.00  0.00     0.000 HD 
ATOM     42  O   SER A   1     -11.043  18.250  64.748  1.00  0.00    -0.542 OA 
ENDBRANCH  36  40
ENDBRANCH  34  36
ENDBRANCH  31  34
ENDBRANCH  18  31
ENDBRANCH   8  10
ENDBRANCH   5   8
ENDBRANCH   1   5
TORSDOF 13
ENDMDL
MODEL      211
REMARK 921   NORMALIZED FREE ENERGY PREDICTED BY IDOCK:   -1.99 KCAL/MOL
REMARK 922        TOTAL FREE ENERGY PREDICTED BY IDOCK:   -4.43 KCAL/MOL
REMARK 923 INTER-LIGAND FREE ENERGY PREDICTED BY IDOCK:   -4.92 KCAL/MOL
REMARK 924 INTRA-LIGAND FREE ENERGY PREDICTED BY IDOCK:    0.49 KCAL/MOL
REMARK 927      BINDING AFFINITY PREDICTED BY RF-SCORE:    0.00 PKD
ROOT
HETATM    1  C   UNK A   0      -9.983  19.198  66.085  1.00  0.00    -0.381 C  
HETATM    2  O   UNK A   0      -8.621  19.471  65.710  1.00  0.00    -0.407 OA 
HETATM    3  C   UNK A   0     -10.903  20.089  65.280  1.00  0.00     0.065 C  
HETATM    4  H   UNK A   0      -8.044  18.912  66.216  1.00  0.00     0.000 HD 
ENDROOT
BRANCH   1   5
HETATM    5  C   UNK A   0     -10.247  17.739  65.751  1.00  0.00    -0.136 C  
HETATM    6  O   UNK A   0     -11.151  17.581  64.756  1.00  0.00    -0.959 OA 
HETATM    7  H   UNK A   0     -11.316  16.669  64.547  1.00  0.00     0.000 HD 
BRANCH   5   8
HETATM    8  N   UNK A   0      -9.630  16.758  66.322  1.00  0.00    -0.281 NA 
HETATM    9  H   UNK A   0      -8.621  16.656  66.217  1.00  0.00     0.000 HD 
BRANCH   8  10
HETATM   10  C   UNK A   0     -10.371  15.817  67.100  1.00  0.00    -0.291 A  
HETATM   11  C   UNK A   0     -10.696  14.530  66.609  1.00  0.00    -0.305 A  
HETATM   12  I   UNK A   0      -9.919  13.965  64.637  1.00  0.00     1.204 I  
HETATM   13  C   UNK A   0     -11.357  13.590  67.427  1.00  0.00    -0.338 A  
HETATM   14  I   UNK A   0     -10.381  18.183  69.067  1.00  0.00     0.534 I  
HETATM   15  C   UNK A   0     -11.441  13.857  68.825  1.00  0.00    -0.292 A  
HETATM   16  I   UNK A   0     -11.668  12.122  70.134  1.00  0.00     0.147 I  
HETATM   17  C   UNK A   0     -10.655  16.122  68.466  1.00  0.00    -0.284 A  
HETATM   18  C   UNK A   0     -11.104  15.132  69.371  1.00  0.00    -0.283 A  
BRANCH  13  19
HETATM   19  C   UNK A   0     -12.062  12.390  66.875  1.00  0.00    -0.026 C  
HETATM   20  O   UNK A   0     -13.022  12.616  65.967  1.00  0.00     0.057 OA 
HETATM   21  H   UNK A   0     -13.469  11.854  65.616  1.00  0.00     0.000 HD 
BRANCH  19  22
ATOM     22  N   SER A   1     -11.775  11.186  67.227  1.00  0.00    -0.506 NA 
ATOM     23  H   SER A   1     -12.403  10.648  67.824  1.00  0.00     0.000 HD 
BRANCH  22  24
ATOM     24  CA  SER A   1     -10.495  10.604  66.736  1.00  0.00    -0.247 C  
BRANCH  24  25
ATOM     25  C   SER A   1     -10.766  10.043  65.327  1.00  0.00     0.650 C  
ATOM     26  H   SER A   1      -9.705   9.363  63.815  1.00  0.00     0.000 HD 
ATOM     27  O   SER A   1      -9.538   9.709  64.684  1.00  0.00    -0.247 OA 
ENDBRANCH  24  25
BRANCH  24  28
ATOM     28  CB  SER A   1      -9.986   9.450  67.624  1.00  0.00    -0.190 C  
ATOM     29  OG  SER A   1     -10.989   8.857  68.446  1.00  0.00    -0.451 OA 
ATOM     30  HG  SER A   1     -10.675   8.146  68.992  1.00  0.00     0.000 HD 
ENDBRANCH  24  28
ENDBRANCH  22  24
ENDBRANCH  19  22
ENDBRANCH  13  19
BRANCH  18  31
HETATM   31  C   UNK A   0     -11.171  15.372  70.860  1.00  0.00    -0.358 C  
HETATM   32  H   UNK A   0     -10.096  15.201  72.479  1.00  0.00     0.000 HD 
HETATM   33  O   UNK A   0     -10.055  15.051  71.542  1.00  0.00     0.986 OA 
BRANCH  31  34
ATOM     34  N   SER A   1     -12.215  15.792  71.488  1.00  0.00    -0.418 NA 
ATOM     35  H   SER A   1     -12.710  16.633  71.190  1.00  0.00     0.000 HD 
BRANCH  34  36
ATOM     36  CA  SER A   1     -12.670  14.999  72.669  1.00  0.00    -0.376 C  
BRANCH  36  37
ATOM     37  CB  SER A   1     -12.542  15.886  73.911  1.00  0.00    -0.623 C  
ATOM     38  HG  SER A   1     -11.692  17.600  74.381  1.00  0.00     0.000 HD 
ATOM     39  OG  SER A   1     -11.772  17.050  73.611  1.00  0.00    -0.173 OA 
ENDBRANCH  36  37
BRANCH  36  40
ATOM     40  C   SER A   1     -14.137  14.576  72.464  1.00  0.00    -0.337 C  
ATOM     41  H   SER A   1     -15.160  12.893  72.362  1.00  0.00     0.000 HD 
ATOM     42  O   SER A   1     -14.256  13.154  72.489  1.00  0.00    -0.654 OA 
ENDBRANCH  36  40
ENDBRANCH  34  36
ENDBRANCH  31  34
ENDBRANCH  18  31
ENDBRANCH   8  10
ENDBRANCH   5   8
ENDBRANCH   1   5
TORSDOF 13
ENDMDL
MODEL      212
REMARK 921   NORMALIZED FREE ENERGY PREDICTED BY IDOCK:   -1.94 KCAL/MOL
REMARK 922        TOTAL FREE ENERGY PREDICTED BY IDOCK:   -4.35 KCAL/MOL
REMARK 923 INTER-LIGAND FREE ENERGY PREDICTED BY IDOCK:   -4.34 KCAL/MOL
REMARK 924 INTRA-LIGAND FREE ENERGY PREDICTED BY IDOCK:   -0.01 KCAL/MOL
REMARK 927      BINDING AFFINITY PREDICTED BY RF-SCORE:    0.00 PKD
ROOT
HETATM    1  C   UNK A   0     -10.201  10.412  64.982  1.00  0.00    -0.264 C  
HETATM    2  O   UNK A   0      -9.795   9.603  63.864  1.00  0.00    -0.425 OA 
HETATM    3  C   UNK A   0     -10.495   9.511  66.160  1.00  0.00    -0.077 C  
HETATM    4  H   UNK A   0      -9.610  10.169  63.124  1.00  0.00     0.000 HD 
ENDROOT
BRANCH   1   5
HETATM    5  C   UNK A   0      -9.036  11.331  65.306  1.00  0.00    -0.068 C  
HETATM    6  O   UNK A   0      -9.404  12.628  65.426  1.00  0.00    -0.448 OA 
HETATM    7  H   UNK A   0      -8.676  13.203  65.629  1.00  0.00     0.000 HD 
BRANCH   5   8
HETATM    8  N   UNK A   0      -7.831  10.908  65.500  1.00  0.00    -0.351 NA 
HETATM    9  H   UNK A   0      -7.050  11.332  65.000  1.00  0.00     0.000 HD 
BRANCH   8  10
HETATM   10  C   UNK A   0      -7.599   9.839  66.420  1.00  0.00    -0.099 A  
HETATM   11  C   UNK A   0      -7.224   8.546  65.986  1.00  0.00    -0.077 A  
HETATM   12  I   UNK A   0      -6.887   8.247  63.839  1.00  0.00    -0.079 I  
HETATM   13  C   UNK A   0      -6.920   7.531  66.918  1.00  0.00    -0.079 A  
HETATM   14  I   UNK A   0      -8.430  12.025  68.420  1.00  0.00     0.005 I  
HETATM   15  C   UNK A   0      -6.731   7.904  68.281  1.00  0.00    -0.063 A  
HETATM   16  I   UNK A   0      -5.487   6.574  69.488  1.00  0.00    -0.015 I  
HETATM   17  C   UNK A   0      -7.590  10.124  67.820  1.00  0.00    -0.090 A  
HETATM   18  C   UNK A   0      -7.073   9.203  68.762  1.00  0.00    -0.073 A  
BRANCH  13  19
HETATM   19  C   UNK A   0      -6.901   6.078  66.555  1.00  0.00    -0.062 C  
HETATM   20  O   UNK A   0      -5.719   5.558  66.198  1.00  0.00    -0.016 OA 
HETATM   21  H   UNK A   0      -5.707   4.636  65.968  1.00  0.00     0.000 HD 
BRANCH  19  22
ATOM     22  N   SER A   1      -7.951   5.336  66.588  1.00  0.00    -0.104 NA 
ATOM     23  H   SER A   1      -8.788   5.584  66.059  1.00  0.00     0.000 HD 
BRANCH  22  24
ATOM     24  CA  SER A   1      -7.907   4.103  67.422  1.00  0.00    -0.091 C  
BRANCH  24  25
ATOM     25  C   SER A   1      -8.663   3.007  66.648  1.00  0.00    -0.129 C  
ATOM     26  H   SER A   1      -8.494   2.083  64.918  1.00  0.00     0.000 HD 
ATOM     27  O   SER A   1      -8.028   2.759  65.396  1.00  0.00    -0.080 OA 
ENDBRANCH  24  25
BRANCH  24  28
ATOM     28  CB  SER A   1      -8.595   4.285  68.791  1.00  0.00    -0.085 C  
ATOM     29  OG  SER A   1      -9.459   5.417  68.867  1.00  0.00    -0.122 OA 
ATOM     30  HG  SER A   1      -9.882   5.529  69.710  1.00  0.00     0.000 HD 
ENDBRANCH  24  28
ENDBRANCH  22  24
ENDBRANCH  19  22
ENDBRANCH  13  19
BRANCH  18  31
HETATM   31  C   UNK A   0      -6.827   9.578  70.203  1.00  0.00    -0.085 C  
HETATM   32  H   UNK A   0      -5.522  10.477  71.341  1.00  0.00     0.000 HD 
HETATM   33  O   UNK A   0      -5.677  10.241  70.434  1.00  0.00    -0.060 OA 
BRANCH  31  34
ATOM     34  N   SER A   1      -7.597   9.257  71.185  1.00  0.00    -0.309 NA 
ATOM     35  H   SER A   1      -7.360   9.500  72.147  1.00  0.00     0.000 HD 
BRANCH  34  36
ATOM     36  CA  SER A   1      -8.853   8.515  70.858  1.00  0.00    -0.171 C  
BRANCH  36  37
ATOM     37  CB  SER A   1      -8.943   7.305  71.791  1.00  0.00    -0.127 C  
ATOM     38  HG  SER A   1     -10.005   5.649  71.913  1.00  0.00     0.000 HD 
ATOM     39  OG  SER A   1      -9.948   6.400  71.333  1.00  0.00    -0.183 OA 
ENDBRANCH  36  37
BRANCH  36  40
ATOM     40  C   SER A   1     -10.063   9.445  71.069  1.00  0.00    -0.283 C  
ATOM     41  H   SER A   1     -11.791   9.799  70.187  1.00  0.00     0.000 HD 
ATOM     42  O   SER A   1     -11.045   9.226  70.057  1.00  0.00    -0.235 OA 
ENDBRANCH  36  40
ENDBRANCH  34  36
ENDBRANCH  31  34
ENDBRANCH  18  31
ENDBRANCH   8  10
ENDBRANCH   5   8
ENDBRANCH   1   5
TORSDOF 13
ENDMDL
MODEL      213
REMARK 921   NORMALIZED FREE ENERGY PREDICTED BY IDOCK:   -1.94 KCAL/MOL
REMARK 922        TOTAL FREE ENERGY PREDICTED BY IDOCK:   -4.35 KCAL/MOL
REMARK 923 INTER-LIGAND FREE ENERGY PREDICTED BY IDOCK:   -5.59 KCAL/MOL
REMARK 924 INTRA-LIGAND FREE ENERGY PREDICTED BY IDOCK:    1.24 KCAL/MOL
REMARK 927      BINDING AFFINITY PREDICTED BY RF-SCORE:    0.00 PKD
ROOT
HETATM    1  C   UNK A   0      -9.623   9.865  69.562  1.00  0.00    -0.225 C  
HETATM    2  O   UNK A   0      -8.881   8.972  70.411  1.00  0.00    -0.162 OA 
HETATM    3  C   UNK A   0      -8.888  10.019  68.249  1.00  0.00    -0.116 C  
HETATM    4  H   UNK A   0      -9.342   8.876  71.236  1.00  0.00     0.000 HD 
ENDROOT
BRANCH   1   5
HETATM    5  C   UNK A   0     -10.980   9.223  69.328  1.00  0.00    -0.085 C  
HETATM    6  O   UNK A   0     -12.011  10.042  69.640  1.00  0.00    -0.468 OA 
HETATM    7  H   UNK A   0     -12.860   9.641  69.495  1.00  0.00     0.000 HD 
BRANCH   5   8
HETATM    8  N   UNK A   0     -11.129   8.040  68.831  1.00  0.00    -0.407 NA 
HETATM    9  H   UNK A   0     -11.665   7.907  67.974  1.00  0.00     0.000 HD 
BRANCH   8  10
HETATM   10  C   UNK A   0     -10.539   6.919  69.492  1.00  0.00    -0.236 A  
HETATM   11  C   UNK A   0     -10.849   6.593  70.833  1.00  0.00    -0.252 A  
HETATM   12  I   UNK A   0     -12.372   7.799  71.852  1.00  0.00    -0.324 I  
HETATM   13  C   UNK A   0     -10.317   5.433  71.436  1.00  0.00    -0.294 A  
HETATM   14  I   UNK A   0      -9.084   6.706  66.789  1.00  0.00    -0.184 I  
HETATM   15  C   UNK A   0      -9.694   4.464  70.596  1.00  0.00    -0.213 A  
HETATM   16  I   UNK A   0      -9.652   2.412  71.346  1.00  0.00    -0.114 I  
HETATM   17  C   UNK A   0      -9.738   6.014  68.732  1.00  0.00    -0.131 A  
HETATM   18  C   UNK A   0      -9.380   4.738  69.231  1.00  0.00    -0.196 A  
BRANCH  13  19
HETATM   19  C   UNK A   0     -10.281   5.236  72.920  1.00  0.00    -0.183 C  
HETATM   20  O   UNK A   0     -11.454   5.283  73.567  1.00  0.00    -0.482 OA 
HETATM   21  H   UNK A   0     -11.431   5.157  74.508  1.00  0.00     0.000 HD 
BRANCH  19  22
ATOM     22  N   SER A   1      -9.192   5.016  73.570  1.00  0.00    -0.126 NA 
ATOM     23  H   SER A   1      -8.934   4.074  73.861  1.00  0.00     0.000 HD 
BRANCH  22  24
ATOM     24  CA  SER A   1      -8.320   6.183  73.882  1.00  0.00    -0.116 C  
BRANCH  24  25
ATOM     25  C   SER A   1      -9.157   7.452  73.631  1.00  0.00    -0.226 C  
ATOM     26  H   SER A   1      -8.819   9.357  73.274  1.00  0.00     0.000 HD 
ATOM     27  O   SER A   1      -8.303   8.575  73.428  1.00  0.00    -0.374 OA 
ENDBRANCH  24  25
BRANCH  24  28
ATOM     28  CB  SER A   1      -7.068   6.249  72.984  1.00  0.00    -0.079 C  
ATOM     29  OG  SER A   1      -7.319   6.721  71.661  1.00  0.00    -0.083 OA 
ATOM     30  HG  SER A   1      -6.548   6.761  71.109  1.00  0.00     0.000 HD 
ENDBRANCH  24  28
ENDBRANCH  22  24
ENDBRANCH  19  22
ENDBRANCH  13  19
BRANCH  18  31
HETATM   31  C   UNK A   0      -8.753   3.679  68.359  1.00  0.00    -0.103 C  
HETATM   32  H   UNK A   0      -9.102   2.623  66.756  1.00  0.00     0.000 HD 
HETATM   33  O   UNK A   0      -9.496   3.290  67.305  1.00  0.00    -0.203 OA 
BRANCH  31  34
ATOM     34  N   SER A   1      -7.620   3.111  68.597  1.00  0.00    -0.049 NA 
ATOM     35  H   SER A   1      -7.552   2.300  69.211  1.00  0.00     0.000 HD 
BRANCH  34  36
ATOM     36  CA  SER A   1      -6.411   3.690  67.936  1.00  0.00    -0.037 C  
BRANCH  36  37
ATOM     37  CB  SER A   1      -6.716   3.843  66.443  1.00  0.00    -0.053 C  
ATOM     38  HG  SER A   1      -6.027   4.896  64.927  1.00  0.00     0.000 HD 
ATOM     39  OG  SER A   1      -5.838   4.801  65.853  1.00  0.00    -0.021 OA 
ENDBRANCH  36  37
BRANCH  36  40
ATOM     40  C   SER A   1      -6.098   5.063  68.560  1.00  0.00    -0.030 C  
ATOM     41  H   SER A   1      -5.628   5.773  70.339  1.00  0.00     0.000 HD 
ATOM     42  O   SER A   1      -5.821   4.927  69.953  1.00  0.00    -0.015 OA 
ENDBRANCH  36  40
ENDBRANCH  34  36
ENDBRANCH  31  34
ENDBRANCH  18  31
ENDBRANCH   8  10
ENDBRANCH   5   8
ENDBRANCH   1   5
TORSDOF 13
ENDMDL
MODEL      214
REMARK 921   NORMALIZED FREE ENERGY PREDICTED BY IDOCK:   -1.94 KCAL/MOL
REMARK 922        TOTAL FREE ENERGY PREDICTED BY IDOCK:   -4.35 KCAL/MOL
REMARK 923 INTER-LIGAND FREE ENERGY PREDICTED BY IDOCK:   -3.66 KCAL/MOL
REMARK 924 INTRA-LIGAND FREE ENERGY PREDICTED BY IDOCK:   -0.69 KCAL/MOL
REMARK 927      BINDING AFFINITY PREDICTED BY RF-SCORE:    0.00 PKD
ROOT
HETATM    1  C   UNK A   0      -6.596  12.139  69.695  1.00  0.00    -0.029 C  
HETATM    2  O   UNK A   0      -6.311  12.991  70.819  1.00  0.00    -0.497 OA 
HETATM    3  C   UNK A   0      -5.381  12.090  68.796  1.00  0.00    -0.050 C  
HETATM    4  H   UNK A   0      -7.075  13.023  71.383  1.00  0.00     0.000 HD 
ENDROOT
BRANCH   1   5
HETATM    5  C   UNK A   0      -6.888  10.757  70.254  1.00  0.00     0.034 C  
HETATM    6  O   UNK A   0      -6.029  10.392  71.234  1.00  0.00    -0.304 OA 
HETATM    7  H   UNK A   0      -6.211   9.528  71.584  1.00  0.00     0.000 HD 
BRANCH   5   8
HETATM    8  N   UNK A   0      -7.885  10.032  69.869  1.00  0.00    -0.172 NA 
HETATM    9  H   UNK A   0      -8.473   9.560  70.556  1.00  0.00     0.000 HD 
BRANCH   8  10
HETATM   10  C   UNK A   0      -8.160   9.896  68.473  1.00  0.00    -0.101 A  
HETATM   11  C   UNK A   0      -9.100  10.721  67.812  1.00  0.00    -0.151 A  
HETATM   12  I   UNK A   0     -10.054  12.318  68.974  1.00  0.00     0.514 I  
HETATM   13  C   UNK A   0      -9.292  10.622  66.417  1.00  0.00    -0.195 A  
HETATM   14  I   UNK A   0      -6.138   7.598  68.794  1.00  0.00    -0.033 I  
HETATM   15  C   UNK A   0      -8.339   9.882  65.658  1.00  0.00    -0.137 A  
HETATM   16  I   UNK A   0      -8.152  10.418  63.548  1.00  0.00     0.061 I  
HETATM   17  C   UNK A   0      -7.352   9.013  67.694  1.00  0.00    -0.084 A  
HETATM   18  C   UNK A   0      -7.358   9.053  66.280  1.00  0.00    -0.091 A  
BRANCH  13  19
HETATM   19  C   UNK A   0     -10.506  11.163  65.727  1.00  0.00    -0.246 C  
HETATM   20  O   UNK A   0     -11.601  10.390  65.731  1.00  0.00     0.846 OA 
HETATM   21  H   UNK A   0     -12.371  10.733  65.293  1.00  0.00     0.000 HD 
BRANCH  19  22
ATOM     22  N   SER A   1     -10.531  12.317  65.160  1.00  0.00    -0.279 NA 
ATOM     23  H   SER A   1      -9.943  12.520  64.352  1.00  0.00     0.000 HD 
BRANCH  22  24
ATOM     24  CA  SER A   1     -11.447  13.349  65.721  1.00  0.00    -0.320 C  
BRANCH  24  25
ATOM     25  C   SER A   1     -12.649  13.454  64.764  1.00  0.00    -0.314 C  
ATOM     26  H   SER A   1     -12.940  13.638  62.826  1.00  0.00     0.000 HD 
ATOM     27  O   SER A   1     -12.199  13.573  63.416  1.00  0.00    -0.641 OA 
ENDBRANCH  24  25
BRANCH  24  28
ATOM     28  CB  SER A   1     -10.788  14.741  65.819  1.00  0.00    -0.331 C  
ATOM     29  OG  SER A   1      -9.402  14.758  65.480  1.00  0.00    -0.483 OA 
ATOM     30  HG  SER A   1      -8.997  15.615  65.541  1.00  0.00     0.000 HD 
ENDBRANCH  24  28
ENDBRANCH  22  24
ENDBRANCH  19  22
ENDBRANCH  13  19
BRANCH  18  31
HETATM   31  C   UNK A   0      -6.341   8.311  65.448  1.00  0.00    -0.048 C  
HETATM   32  H   UNK A   0      -4.565   8.523  64.669  1.00  0.00     0.000 HD 
HETATM   33  O   UNK A   0      -5.206   8.989  65.192  1.00  0.00    -0.037 OA 
BRANCH  31  34
ATOM     34  N   SER A   1      -6.522   7.139  64.945  1.00  0.00    -0.037 NA 
ATOM     35  H   SER A   1      -5.736   6.571  64.628  1.00  0.00     0.000 HD 
BRANCH  34  36
ATOM     36  CA  SER A   1      -7.929   6.644  64.845  1.00  0.00    -0.121 C  
BRANCH  36  37
ATOM     37  CB  SER A   1      -8.144   6.118  63.423  1.00  0.00    -0.068 C  
ATOM     38  HG  SER A   1      -8.547   4.390  62.567  1.00  0.00     0.000 HD 
ATOM     39  OG  SER A   1      -8.413   4.716  63.449  1.00  0.00    -0.106 OA 
ENDBRANCH  36  37
BRANCH  36  40
ATOM     40  C   SER A   1      -8.146   5.517  65.871  1.00  0.00    -0.110 C  
ATOM     41  H   SER A   1      -9.332   5.162  67.406  1.00  0.00     0.000 HD 
ATOM     42  O   SER A   1      -9.198   5.857  66.773  1.00  0.00    -0.126 OA 
ENDBRANCH  36  40
ENDBRANCH  34  36
ENDBRANCH  31  34
ENDBRANCH  18  31
ENDBRANCH   8  10
ENDBRANCH   5   8
ENDBRANCH   1   5
TORSDOF 13
ENDMDL
MODEL      215
REMARK 921   NORMALIZED FREE ENERGY PREDICTED BY IDOCK:   -1.94 KCAL/MOL
REMARK 922        TOTAL FREE ENERGY PREDICTED BY IDOCK:   -4.34 KCAL/MOL
REMARK 923 INTER-LIGAND FREE ENERGY PREDICTED BY IDOCK:   -4.64 KCAL/MOL
REMARK 924 INTRA-LIGAND FREE ENERGY PREDICTED BY IDOCK:    0.30 KCAL/MOL
REMARK 927      BINDING AFFINITY PREDICTED BY RF-SCORE:    0.00 PKD
ROOT
HETATM    1  C   UNK A   0     -12.268  13.167  71.189  1.00  0.00    -0.076 C  
HETATM    2  O   UNK A   0     -13.250  13.637  72.131  1.00  0.00    -0.393 OA 
HETATM    3  C   UNK A   0     -12.383  11.664  71.070  1.00  0.00    -0.405 C  
HETATM    4  H   UNK A   0     -13.178  14.581  72.206  1.00  0.00     0.000 HD 
ENDROOT
BRANCH   1   5
HETATM    5  C   UNK A   0     -12.588  13.822  69.856  1.00  0.00    -0.092 C  
HETATM    6  O   UNK A   0     -13.451  14.858  69.971  1.00  0.00    -0.320 OA 
HETATM    7  H   UNK A   0     -13.651  15.268  69.138  1.00  0.00     0.000 HD 
BRANCH   5   8
HETATM    8  N   UNK A   0     -12.048  13.459  68.740  1.00  0.00    -0.310 NA 
HETATM    9  H   UNK A   0     -12.634  13.211  67.943  1.00  0.00     0.000 HD 
BRANCH   8  10
HETATM   10  C   UNK A   0     -10.624  13.408  68.630  1.00  0.00    -0.241 A  
HETATM   11  C   UNK A   0      -9.817  14.552  68.835  1.00  0.00    -0.191 A  
HETATM   12  I   UNK A   0     -10.811  16.407  69.453  1.00  0.00    -0.211 I  
HETATM   13  C   UNK A   0      -8.409  14.457  68.803  1.00  0.00    -0.126 A  
HETATM   14  I   UNK A   0     -11.270  10.493  67.888  1.00  0.00     0.011 I  
HETATM   15  C   UNK A   0      -7.822  13.158  68.835  1.00  0.00     0.118 A  
HETATM   16  I   UNK A   0      -5.785  13.033  69.616  1.00  0.00    -0.130 I  
HETATM   17  C   UNK A   0      -9.990  12.140  68.465  1.00  0.00    -0.175 A  
HETATM   18  C   UNK A   0      -8.598  11.974  68.654  1.00  0.00    -0.011 A  
BRANCH  13  19
HETATM   19  C   UNK A   0      -7.521  15.649  68.623  1.00  0.00    -0.130 C  
HETATM   20  O   UNK A   0      -6.882  16.099  69.712  1.00  0.00    -0.188 OA 
HETATM   21  H   UNK A   0      -6.319  16.856  69.598  1.00  0.00     0.000 HD 
BRANCH  19  22
ATOM     22  N   SER A   1      -7.350  16.228  67.487  1.00  0.00    -0.139 NA 
ATOM     23  H   SER A   1      -6.717  15.840  66.788  1.00  0.00     0.000 HD 
BRANCH  22  24
ATOM     24  CA  SER A   1      -8.106  17.485  67.225  1.00  0.00    -0.203 C  
BRANCH  24  25
ATOM     25  C   SER A   1      -8.810  17.314  65.866  1.00  0.00     0.043 C  
ATOM     26  H   SER A   1      -9.780  15.891  64.912  1.00  0.00     0.000 HD 
ATOM     27  O   SER A   1      -9.346  15.997  65.751  1.00  0.00    -0.348 OA 
ENDBRANCH  24  25
BRANCH  24  28
ATOM     28  CB  SER A   1      -7.190  18.724  67.139  1.00  0.00    -0.209 C  
ATOM     29  OG  SER A   1      -5.849  18.435  66.745  1.00  0.00    -0.143 OA 
ATOM     30  HG  SER A   1      -5.286  19.198  66.692  1.00  0.00     0.000 HD 
ENDBRANCH  24  28
ENDBRANCH  22  24
ENDBRANCH  19  22
ENDBRANCH  13  19
BRANCH  18  31
HETATM   31  C   UNK A   0      -7.951  10.613  68.729  1.00  0.00    -0.135 C  
HETATM   32  H   UNK A   0      -7.513   9.203  70.004  1.00  0.00     0.000 HD 
HETATM   33  O   UNK A   0      -7.920  10.060  69.957  1.00  0.00    -0.175 OA 
BRANCH  31  34
ATOM     34  N   SER A   1      -7.398  10.009  67.733  1.00  0.00    -0.088 NA 
ATOM     35  H   SER A   1      -7.161  10.508  66.876  1.00  0.00     0.000 HD 
BRANCH  34  36
ATOM     36  CA  SER A   1      -7.119   8.549  67.886  1.00  0.00    -0.086 C  
BRANCH  36  37
ATOM     37  CB  SER A   1      -7.766   7.818  66.707  1.00  0.00    -0.099 C  
ATOM     38  HG  SER A   1      -9.439   6.838  66.356  1.00  0.00     0.000 HD 
ATOM     39  OG  SER A   1      -9.037   7.291  67.088  1.00  0.00    -0.125 OA 
ENDBRANCH  36  37
BRANCH  36  40
ATOM     40  C   SER A   1      -5.595   8.319  67.886  1.00  0.00    -0.035 C  
ATOM     41  H   SER A   1      -4.186   7.942  69.213  1.00  0.00     0.000 HD 
ATOM     42  O   SER A   1      -5.125   8.083  69.213  1.00  0.00    -0.025 OA 
ENDBRANCH  36  40
ENDBRANCH  34  36
ENDBRANCH  31  34
ENDBRANCH  18  31
ENDBRANCH   8  10
ENDBRANCH   5   8
ENDBRANCH   1   5
TORSDOF 13
ENDMDL
MODEL      216
REMARK 921   NORMALIZED FREE ENERGY PREDICTED BY IDOCK:   -1.88 KCAL/MOL
REMARK 922        TOTAL FREE ENERGY PREDICTED BY IDOCK:   -4.24 KCAL/MOL
REMARK 923 INTER-LIGAND FREE ENERGY PREDICTED BY IDOCK:   -3.35 KCAL/MOL
REMARK 924 INTRA-LIGAND FREE ENERGY PREDICTED BY IDOCK:   -0.89 KCAL/MOL
REMARK 927      BINDING AFFINITY PREDICTED BY RF-SCORE:    0.00 PKD
ROOT
HETATM    1  C   UNK A   0      -6.820   8.315  63.442  1.00  0.00    -0.085 C  
HETATM    2  O   UNK A   0      -7.805   8.095  62.416  1.00  0.00    -0.123 OA 
HETATM    3  C   UNK A   0      -6.638   9.804  63.636  1.00  0.00    -0.119 C  
HETATM    4  H   UNK A   0      -7.918   7.160  62.294  1.00  0.00     0.000 HD 
ENDROOT
BRANCH   1   5
HETATM    5  C   UNK A   0      -7.362   7.686  64.714  1.00  0.00    -0.076 C  
HETATM    6  O   UNK A   0      -8.593   7.148  64.554  1.00  0.00    -0.345 OA 
HETATM    7  H   UNK A   0      -8.932   6.754  65.349  1.00  0.00     0.000 HD 
BRANCH   5   8
HETATM    8  N   UNK A   0      -6.690   7.625  65.817  1.00  0.00    -0.045 NA 
HETATM    9  H   UNK A   0      -5.721   7.940  65.846  1.00  0.00     0.000 HD 
BRANCH   8  10
HETATM   10  C   UNK A   0      -7.315   7.111  66.994  1.00  0.00    -0.089 A  
HETATM   11  C   UNK A   0      -8.135   7.917  67.819  1.00  0.00    -0.128 A  
HETATM   12  I   UNK A   0      -8.526   9.975  67.170  1.00  0.00    -0.130 I  
HETATM   13  C   UNK A   0      -8.808   7.364  68.930  1.00  0.00    -0.131 A  
HETATM   14  I   UNK A   0      -5.764   4.596  66.135  1.00  0.00    -0.024 I  
HETATM   15  C   UNK A   0      -8.866   5.944  69.042  1.00  0.00    -0.119 A  
HETATM   16  I   UNK A   0     -10.533   5.129  70.197  1.00  0.00     0.129 I  
HETATM   17  C   UNK A   0      -7.239   5.710  67.260  1.00  0.00    -0.075 A  
HETATM   18  C   UNK A   0      -8.074   5.089  68.219  1.00  0.00    -0.086 A  
BRANCH  13  19
HETATM   19  C   UNK A   0      -9.358   8.202  70.041  1.00  0.00    -0.159 C  
HETATM   20  O   UNK A   0     -10.612   8.653  69.899  1.00  0.00    -0.219 OA 
HETATM   21  H   UNK A   0     -10.961   9.184  70.604  1.00  0.00     0.000 HD 
BRANCH  19  22
ATOM     22  N   SER A   1      -8.687   8.484  71.103  1.00  0.00    -0.157 NA 
ATOM     23  H   SER A   1      -8.073   9.298  71.137  1.00  0.00     0.000 HD 
BRANCH  22  24
ATOM     24  CA  SER A   1      -8.834   7.582  72.279  1.00  0.00    -0.129 C  
BRANCH  24  25
ATOM     25  C   SER A   1      -9.999   8.130  73.125  1.00  0.00    -0.163 C  
ATOM     26  H   SER A   1     -11.964   8.024  73.115  1.00  0.00     0.000 HD 
ATOM     27  O   SER A   1     -11.246   7.686  72.594  1.00  0.00    -0.312 OA 
ENDBRANCH  24  25
BRANCH  24  28
ATOM     28  CB  SER A   1      -7.572   7.548  73.165  1.00  0.00    -0.096 C  
ATOM     29  OG  SER A   1      -7.552   8.535  74.195  1.00  0.00    -0.328 OA 
ATOM     30  HG  SER A   1      -6.775   8.513  74.741  1.00  0.00     0.000 HD 
ENDBRANCH  24  28
ENDBRANCH  22  24
ENDBRANCH  19  22
ENDBRANCH  13  19
BRANCH  18  31
HETATM   31  C   UNK A   0      -8.186   3.589  68.339  1.00  0.00    -0.077 C  
HETATM   32  H   UNK A   0      -9.095   2.060  67.537  1.00  0.00     0.000 HD 
HETATM   33  O   UNK A   0      -9.024   3.004  67.461  1.00  0.00    -0.130 OA 
BRANCH  31  34
ATOM     34  N   SER A   1      -7.593   2.880  69.237  1.00  0.00    -0.047 NA 
ATOM     35  H   SER A   1      -7.964   1.975  69.529  1.00  0.00     0.000 HD 
BRANCH  34  36
ATOM     36  CA  SER A   1      -6.340   3.436  69.833  1.00  0.00    -0.028 C  
BRANCH  36  37
ATOM     37  CB  SER A   1      -6.584   3.652  71.329  1.00  0.00    -0.026 C  
ATOM     38  HG  SER A   1      -6.016   4.930  72.716  1.00  0.00     0.000 HD 
ATOM     39  OG  SER A   1      -5.865   4.797  71.788  1.00  0.00    -0.011 OA 
ENDBRANCH  36  37
BRANCH  36  40
ATOM     40  C   SER A   1      -5.187   2.437  69.618  1.00  0.00    -0.011 C  
ATOM     41  H   SER A   1      -4.609   1.169  68.223  1.00  0.00     0.000 HD 
ATOM     42  O   SER A   1      -5.320   1.785  68.356  1.00  0.00    -0.012 OA 
ENDBRANCH  36  40
ENDBRANCH  34  36
ENDBRANCH  31  34
ENDBRANCH  18  31
ENDBRANCH   8  10
ENDBRANCH   5   8
ENDBRANCH   1   5
TORSDOF 13
ENDMDL
MODEL      217
REMARK 921   NORMALIZED FREE ENERGY PREDICTED BY IDOCK:   -1.84 KCAL/MOL
REMARK 922        TOTAL FREE ENERGY PREDICTED BY IDOCK:   -4.17 KCAL/MOL
REMARK 923 INTER-LIGAND FREE ENERGY PREDICTED BY IDOCK:   -5.94 KCAL/MOL
REMARK 924 INTRA-LIGAND FREE ENERGY PREDICTED BY IDOCK:    1.77 KCAL/MOL
REMARK 927      BINDING AFFINITY PREDICTED BY RF-SCORE:    0.00 PKD
ROOT
HETATM    1  C   UNK A   0     -11.468  12.119  66.855  1.00  0.00    -0.351 C  
HETATM    2  O   UNK A   0     -10.401  12.576  66.005  1.00  0.00    -0.247 OA 
HETATM    3  C   UNK A   0     -11.229  10.667  67.205  1.00  0.00    -0.237 C  
HETATM    4  H   UNK A   0     -10.552  13.488  65.785  1.00  0.00     0.000 HD 
ENDROOT
BRANCH   1   5
HETATM    5  C   UNK A   0     -11.427  12.972  68.111  1.00  0.00    -0.319 C  
HETATM    6  O   UNK A   0     -12.508  13.776  68.238  1.00  0.00    -0.378 OA 
HETATM    7  H   UNK A   0     -12.482  14.310  69.023  1.00  0.00     0.000 HD 
BRANCH   5   8
HETATM    8  N   UNK A   0     -10.484  12.894  68.991  1.00  0.00    -0.437 NA 
HETATM    9  H   UNK A   0     -10.355  13.642  69.673  1.00  0.00     0.000 HD 
BRANCH   8  10
HETATM   10  C   UNK A   0      -9.622  11.755  69.002  1.00  0.00     0.165 A  
HETATM   11  C   UNK A   0      -8.356  11.769  68.370  1.00  0.00    -0.153 A  
HETATM   12  I   UNK A   0      -7.688  13.651  67.462  1.00  0.00    -0.066 I  
HETATM   13  C   UNK A   0      -7.488  10.660  68.466  1.00  0.00    -0.093 A  
HETATM   14  I   UNK A   0     -12.021  10.558  70.510  1.00  0.00    -0.477 I  
HETATM   15  C   UNK A   0      -7.791   9.651  69.427  1.00  0.00    -0.104 A  
HETATM   16  I   UNK A   0      -6.107   8.456  70.143  1.00  0.00    -0.031 I  
HETATM   17  C   UNK A   0      -9.977  10.628  69.803  1.00  0.00     0.044 A  
HETATM   18  C   UNK A   0      -9.045   9.607  70.105  1.00  0.00    -0.280 A  
BRANCH  13  19
HETATM   19  C   UNK A   0      -6.339  10.448  67.530  1.00  0.00    -0.058 C  
HETATM   20  O   UNK A   0      -5.146  10.920  67.918  1.00  0.00    -0.040 OA 
HETATM   21  H   UNK A   0      -4.416  10.785  67.325  1.00  0.00     0.000 HD 
BRANCH  19  22
ATOM     22  N   SER A   1      -6.457   9.834  66.406  1.00  0.00    -0.069 NA 
ATOM     23  H   SER A   1      -5.763   9.950  65.667  1.00  0.00     0.000 HD 
BRANCH  22  24
ATOM     24  CA  SER A   1      -7.640   8.949  66.217  1.00  0.00    -0.095 C  
BRANCH  24  25
ATOM     25  C   SER A   1      -7.107   7.569  65.787  1.00  0.00    -0.065 C  
ATOM     26  H   SER A   1      -5.777   6.270  66.433  1.00  0.00     0.000 HD 
ATOM     27  O   SER A   1      -6.106   7.121  66.698  1.00  0.00    -0.036 OA 
ENDBRANCH  24  25
BRANCH  24  28
ATOM     28  CB  SER A   1      -8.595   9.458  65.118  1.00  0.00    -0.167 C  
ATOM     29  OG  SER A   1      -8.407  10.828  64.767  1.00  0.00    -0.325 OA 
ATOM     30  HG  SER A   1      -8.996  11.141  64.090  1.00  0.00     0.000 HD 
ENDBRANCH  24  28
ENDBRANCH  22  24
ENDBRANCH  19  22
ENDBRANCH  13  19
BRANCH  18  31
HETATM   31  C   UNK A   0      -9.321   8.546  71.143  1.00  0.00    -0.196 C  
HETATM   32  H   UNK A   0      -9.269   8.252  73.071  1.00  0.00     0.000 HD 
HETATM   33  O   UNK A   0      -9.096   8.919  72.417  1.00  0.00    -0.372 OA 
BRANCH  31  34
ATOM     34  N   SER A   1      -9.685   7.339  70.877  1.00  0.00    -0.171 NA 
ATOM     35  H   SER A   1      -9.132   6.538  71.183  1.00  0.00     0.000 HD 
BRANCH  34  36
ATOM     36  CA  SER A   1     -10.951   7.160  70.103  1.00  0.00    -0.267 C  
BRANCH  36  37
ATOM     37  CB  SER A   1     -10.687   6.133  68.998  1.00  0.00    -0.312 C  
ATOM     38  HG  SER A   1     -10.238   4.218  68.881  1.00  0.00     0.000 HD 
ATOM     39  OG  SER A   1     -10.402   4.855  69.567  1.00  0.00    -0.224 OA 
ENDBRANCH  36  37
BRANCH  36  40
ATOM     40  C   SER A   1     -12.058   6.655  71.048  1.00  0.00    -0.327 C  
ATOM     41  H   SER A   1     -12.609   6.942  72.919  1.00  0.00     0.000 HD 
ATOM     42  O   SER A   1     -11.927   7.253  72.336  1.00  0.00    -0.251 OA 
ENDBRANCH  36  40
ENDBRANCH  34  36
ENDBRANCH  31  34
ENDBRANCH  18  31
ENDBRANCH   8  10
ENDBRANCH   5   8
ENDBRANCH   1   5
TORSDOF 13
ENDMDL
MODEL      218
REMARK 921   NORMALIZED FREE ENERGY PREDICTED BY IDOCK:   -1.81 KCAL/MOL
REMARK 922        TOTAL FREE ENERGY PREDICTED BY IDOCK:   -4.11 KCAL/MOL
REMARK 923 INTER-LIGAND FREE ENERGY PREDICTED BY IDOCK:   -6.20 KCAL/MOL
REMARK 924 INTRA-LIGAND FREE ENERGY PREDICTED BY IDOCK:    2.09 KCAL/MOL
REMARK 927      BINDING AFFINITY PREDICTED BY RF-SCORE:    0.00 PKD
ROOT
HETATM    1  C   UNK A   0      -6.695   9.347  66.718  1.00  0.00    -0.072 C  
HETATM    2  O   UNK A   0      -5.842  10.249  67.446  1.00  0.00    -0.048 OA 
HETATM    3  C   UNK A   0      -5.980   8.898  65.464  1.00  0.00    -0.051 C  
HETATM    4  H   UNK A   0      -6.292  10.531  68.233  1.00  0.00     0.000 HD 
ENDROOT
BRANCH   1   5
HETATM    5  C   UNK A   0      -6.953   8.156  67.626  1.00  0.00    -0.078 C  
HETATM    6  O   UNK A   0      -5.892   7.851  68.409  1.00  0.00    -0.034 OA 
HETATM    7  H   UNK A   0      -6.053   7.106  68.976  1.00  0.00     0.000 HD 
BRANCH   5   8
HETATM    8  N   UNK A   0      -8.086   7.538  67.680  1.00  0.00    -0.117 NA 
HETATM    9  H   UNK A   0      -8.334   6.857  66.963  1.00  0.00     0.000 HD 
BRANCH   8  10
HETATM   10  C   UNK A   0      -8.990   7.815  68.752  1.00  0.00    -0.141 A  
HETATM   11  C   UNK A   0      -9.950   8.850  68.672  1.00  0.00    -0.177 A  
HETATM   12  I   UNK A   0     -10.100   9.960  66.786  1.00  0.00    -0.277 I  
HETATM   13  C   UNK A   0     -10.886   9.049  69.710  1.00  0.00    -0.215 A  
HETATM   14  I   UNK A   0      -7.374   5.544  70.058  1.00  0.00    -0.072 I  
HETATM   15  C   UNK A   0     -11.022   8.030  70.697  1.00  0.00    -0.245 A  
HETATM   16  I   UNK A   0     -12.943   7.933  71.734  1.00  0.00    -0.254 I  
HETATM   17  C   UNK A   0      -9.030   6.924  69.867  1.00  0.00    -0.142 A  
HETATM   18  C   UNK A   0     -10.091   6.954  70.804  1.00  0.00    -0.208 A  
BRANCH  13  19
HETATM   19  C   UNK A   0     -11.651  10.325  69.875  1.00  0.00    -0.256 C  
HETATM   20  O   UNK A   0     -12.988  10.239  69.847  1.00  0.00    -0.541 OA 
HETATM   21  H   UNK A   0     -13.474  11.049  69.953  1.00  0.00     0.000 HD 
BRANCH  19  22
ATOM     22  N   SER A   1     -11.080  11.465  70.051  1.00  0.00    -0.480 NA 
ATOM     23  H   SER A   1     -10.182  11.535  70.531  1.00  0.00     0.000 HD 
BRANCH  22  24
ATOM     24  CA  SER A   1     -11.771  12.678  69.532  1.00  0.00    -0.308 C  
BRANCH  24  25
ATOM     25  C   SER A   1     -10.703  13.546  68.841  1.00  0.00    -0.201 C  
ATOM     26  H   SER A   1     -10.611  15.319  67.992  1.00  0.00     0.000 HD 
ATOM     27  O   SER A   1     -11.270  14.784  68.419  1.00  0.00    -0.260 OA 
ENDBRANCH  24  25
BRANCH  24  28
ATOM     28  CB  SER A   1     -12.421  13.518  70.652  1.00  0.00    -0.333 C  
ATOM     29  OG  SER A   1     -11.568  14.518  71.205  1.00  0.00    -0.471 OA 
ATOM     30  HG  SER A   1     -11.968  15.035  71.894  1.00  0.00     0.000 HD 
ENDBRANCH  24  28
ENDBRANCH  22  24
ENDBRANCH  19  22
ENDBRANCH  13  19
BRANCH  18  31
HETATM   31  C   UNK A   0     -10.284   5.871  71.837  1.00  0.00    -0.203 C  
HETATM   32  H   UNK A   0     -11.686   4.923  72.807  1.00  0.00     0.000 HD 
HETATM   33  O   UNK A   0     -11.565   5.605  72.156  1.00  0.00    -0.240 OA 
BRANCH  31  34
ATOM     34  N   SER A   1      -9.325   5.260  72.445  1.00  0.00    -0.140 NA 
ATOM     35  H   SER A   1      -8.861   4.454  72.026  1.00  0.00     0.000 HD 
BRANCH  34  36
ATOM     36  CA  SER A   1      -8.921   5.780  73.786  1.00  0.00    -0.127 C  
BRANCH  36  37
ATOM     37  CB  SER A   1      -8.175   4.663  74.521  1.00  0.00    -0.094 C  
ATOM     38  HG  SER A   1      -8.260   2.697  74.630  1.00  0.00     0.000 HD 
ATOM     39  OG  SER A   1      -8.722   3.390  74.174  1.00  0.00    -0.086 OA 
ENDBRANCH  36  37
BRANCH  36  40
ATOM     40  C   SER A   1      -8.005   7.005  73.603  1.00  0.00    -0.104 C  
ATOM     41  H   SER A   1      -7.834   8.815  74.366  1.00  0.00     0.000 HD 
ATOM     42  O   SER A   1      -8.399   8.060  74.479  1.00  0.00    -0.225 OA 
ENDBRANCH  36  40
ENDBRANCH  34  36
ENDBRANCH  31  34
ENDBRANCH  18  31
ENDBRANCH   8  10
ENDBRANCH   5   8
ENDBRANCH   1   5
TORSDOF 13
ENDMDL
MODEL      219
REMARK 921   NORMALIZED FREE ENERGY PREDICTED BY IDOCK:   -1.80 KCAL/MOL
REMARK 922        TOTAL FREE ENERGY PREDICTED BY IDOCK:   -4.09 KCAL/MOL
REMARK 923 INTER-LIGAND FREE ENERGY PREDICTED BY IDOCK:   -5.64 KCAL/MOL
REMARK 924 INTRA-LIGAND FREE ENERGY PREDICTED BY IDOCK:    1.55 KCAL/MOL
REMARK 927      BINDING AFFINITY PREDICTED BY RF-SCORE:    0.00 PKD
ROOT
HETATM    1  C   UNK A   0     -12.927  14.211  71.313  1.00  0.00    -0.356 C  
HETATM    2  O   UNK A   0     -14.088  14.861  70.765  1.00  0.00    -0.598 OA 
HETATM    3  C   UNK A   0     -13.059  12.718  71.112  1.00  0.00    -0.155 C  
HETATM    4  H   UNK A   0     -14.005  15.799  70.892  1.00  0.00     0.000 HD 
ENDROOT
BRANCH   1   5
HETATM    5  C   UNK A   0     -11.726  14.736  70.545  1.00  0.00    -0.293 C  
HETATM    6  O   UNK A   0     -10.750  15.210  71.353  1.00  0.00    -0.497 OA 
HETATM    7  H   UNK A   0      -9.998  15.539  70.873  1.00  0.00     0.000 HD 
BRANCH   5   8
HETATM    8  N   UNK A   0     -11.629  14.683  69.257  1.00  0.00    -0.284 NA 
HETATM    9  H   UNK A   0     -12.468  14.673  68.679  1.00  0.00     0.000 HD 
BRANCH   8  10
HETATM   10  C   UNK A   0     -10.336  14.638  68.650  1.00  0.00    -0.246 A  
HETATM   11  C   UNK A   0      -9.620  15.814  68.327  1.00  0.00    -0.201 A  
HETATM   12  I   UNK A   0     -10.504  17.738  68.900  1.00  0.00     0.311 I  
HETATM   13  C   UNK A   0      -8.311  15.743  67.804  1.00  0.00    -0.163 A  
HETATM   14  I   UNK A   0     -10.923  11.620  68.760  1.00  0.00    -0.329 I  
HETATM   15  C   UNK A   0      -7.630  14.492  67.867  1.00  0.00    -0.145 A  
HETATM   16  I   UNK A   0      -5.446  14.573  67.863  1.00  0.00     0.101 I  
HETATM   17  C   UNK A   0      -9.684  13.376  68.509  1.00  0.00    -0.156 A  
HETATM   18  C   UNK A   0      -8.304  13.281  68.208  1.00  0.00    -0.154 A  
BRANCH  13  19
HETATM   19  C   UNK A   0      -7.659  16.887  67.092  1.00  0.00    -0.179 C  
HETATM   20  O   UNK A   0      -7.009  16.604  65.955  1.00  0.00     0.015 OA 
HETATM   21  H   UNK A   0      -6.596  17.331  65.504  1.00  0.00     0.000 HD 
BRANCH  19  22
ATOM     22  N   SER A   1      -7.716  18.100  67.521  1.00  0.00    -0.216 NA 
ATOM     23  H   SER A   1      -8.533  18.683  67.344  1.00  0.00     0.000 HD 
BRANCH  22  24
ATOM     24  CA  SER A   1      -6.548  18.623  68.283  1.00  0.00    -0.222 C  
BRANCH  24  25
ATOM     25  C   SER A   1      -5.289  18.303  67.457  1.00  0.00    -0.139 C  
ATOM     26  H   SER A   1      -4.371  19.040  65.880  1.00  0.00     0.000 HD 
ATOM     27  O   SER A   1      -5.148  19.238  66.390  1.00  0.00    -0.157 OA 
ENDBRANCH  24  25
BRANCH  24  28
ATOM     28  CB  SER A   1      -6.395  17.961  69.669  1.00  0.00    -0.171 C  
ATOM     29  OG  SER A   1      -5.267  18.415  70.414  1.00  0.00    -0.215 OA 
ATOM     30  HG  SER A   1      -5.173  18.007  71.266  1.00  0.00     0.000 HD 
ENDBRANCH  24  28
ENDBRANCH  22  24
ENDBRANCH  19  22
ENDBRANCH  13  19
BRANCH  18  31
HETATM   31  C   UNK A   0      -7.547  11.979  68.300  1.00  0.00    -0.117 C  
HETATM   32  H   UNK A   0      -6.357  10.833  67.263  1.00  0.00     0.000 HD 
HETATM   33  O   UNK A   0      -6.834  11.653  67.205  1.00  0.00    -0.106 OA 
BRANCH  31  34
ATOM     34  N   SER A   1      -7.595  11.174  69.305  1.00  0.00    -0.295 NA 
ATOM     35  H   SER A   1      -8.472  10.986  69.792  1.00  0.00     0.000 HD 
BRANCH  34  36
ATOM     36  CA  SER A   1      -6.316  10.526  69.727  1.00  0.00    -0.091 C  
BRANCH  36  37
ATOM     37  CB  SER A   1      -5.363  11.628  70.200  1.00  0.00    -0.097 C  
ATOM     38  HG  SER A   1      -5.124  12.739  71.809  1.00  0.00     0.000 HD 
ATOM     39  OG  SER A   1      -5.715  12.056  71.515  1.00  0.00    -0.364 OA 
ENDBRANCH  36  37
BRANCH  36  40
ATOM     40  C   SER A   1      -6.601   9.537  70.873  1.00  0.00    -0.090 C  
ATOM     41  H   SER A   1      -6.149   7.671  71.324  1.00  0.00     0.000 HD 
ATOM     42  O   SER A   1      -5.974   8.281  70.617  1.00  0.00    -0.032 OA 
ENDBRANCH  36  40
ENDBRANCH  34  36
ENDBRANCH  31  34
ENDBRANCH  18  31
ENDBRANCH   8  10
ENDBRANCH   5   8
ENDBRANCH   1   5
TORSDOF 13
ENDMDL
MODEL      220
REMARK 921   NORMALIZED FREE ENERGY PREDICTED BY IDOCK:   -1.68 KCAL/MOL
REMARK 922        TOTAL FREE ENERGY PREDICTED BY IDOCK:   -3.89 KCAL/MOL
REMARK 923 INTER-LIGAND FREE ENERGY PREDICTED BY IDOCK:   -5.35 KCAL/MOL
REMARK 924 INTRA-LIGAND FREE ENERGY PREDICTED BY IDOCK:    1.46 KCAL/MOL
REMARK 927      BINDING AFFINITY PREDICTED BY RF-SCORE:    0.00 PKD
ROOT
HETATM    1  C   UNK A   0     -10.519   7.225  69.997  1.00  0.00    -0.224 C  
HETATM    2  O   UNK A   0     -11.066   6.642  71.193  1.00  0.00    -0.255 OA 
HETATM    3  C   UNK A   0     -10.915   6.376  68.810  1.00  0.00    -0.404 C  
HETATM    4  H   UNK A   0     -10.816   7.176  71.938  1.00  0.00     0.000 HD 
ENDROOT
BRANCH   1   5
HETATM    5  C   UNK A   0     -11.121   8.614  69.869  1.00  0.00    -0.116 C  
HETATM    6  O   UNK A   0     -11.628   9.078  71.034  1.00  0.00    -0.277 OA 
HETATM    7  H   UNK A   0     -12.006   9.947  70.955  1.00  0.00     0.000 HD 
BRANCH   5   8
HETATM    8  N   UNK A   0     -11.100   9.299  68.773  1.00  0.00    -0.453 NA 
HETATM    9  H   UNK A   0     -11.681   9.020  67.983  1.00  0.00     0.000 HD 
BRANCH   8  10
HETATM   10  C   UNK A   0     -10.256  10.448  68.676  1.00  0.00    -0.181 A  
HETATM   11  C   UNK A   0      -8.969  10.384  68.092  1.00  0.00    -0.132 A  
HETATM   12  I   UNK A   0      -8.338   8.473  67.219  1.00  0.00    -0.117 I  
HETATM   13  C   UNK A   0      -8.190  11.550  67.933  1.00  0.00    -0.134 A  
HETATM   14  I   UNK A   0     -12.633  11.718  70.161  1.00  0.00     0.249 I  
HETATM   15  C   UNK A   0      -8.825  12.813  68.114  1.00  0.00    -0.194 A  
HETATM   16  I   UNK A   0      -7.916  14.513  67.085  1.00  0.00     0.175 I  
HETATM   17  C   UNK A   0     -10.787  11.725  69.033  1.00  0.00    -0.195 A  
HETATM   18  C   UNK A   0     -10.130  12.927  68.679  1.00  0.00    -0.136 A  
BRANCH  13  19
HETATM   19  C   UNK A   0      -6.712  11.509  67.695  1.00  0.00    -0.079 C  
HETATM   20  O   UNK A   0      -6.304  11.441  66.420  1.00  0.00    -0.263 OA 
HETATM   21  H   UNK A   0      -5.366  11.415  66.270  1.00  0.00     0.000 HD 
BRANCH  19  22
ATOM     22  N   SER A   1      -5.849  11.549  68.649  1.00  0.00    -0.042 NA 
ATOM     23  H   SER A   1      -5.601  12.431  69.097  1.00  0.00     0.000 HD 
BRANCH  22  24
ATOM     24  CA  SER A   1      -5.226  10.266  69.079  1.00  0.00    -0.035 C  
BRANCH  24  25
ATOM     25  C   SER A   1      -5.170   9.354  67.839  1.00  0.00    -0.037 C  
ATOM     26  H   SER A   1      -5.214   7.422  67.465  1.00  0.00     0.000 HD 
ATOM     27  O   SER A   1      -5.249   7.985  68.230  1.00  0.00    -0.030 OA 
ENDBRANCH  24  25
BRANCH  24  28
ATOM     28  CB  SER A   1      -6.042   9.543  70.171  1.00  0.00    -0.049 C  
ATOM     29  OG  SER A   1      -5.251   8.983  71.218  1.00  0.00    -0.032 OA 
ATOM     30  HG  SER A   1      -5.754   8.538  71.890  1.00  0.00     0.000 HD 
ENDBRANCH  24  28
ENDBRANCH  22  24
ENDBRANCH  19  22
ENDBRANCH  13  19
BRANCH  18  31
HETATM   31  C   UNK A   0     -10.789  14.277  68.824  1.00  0.00    -0.253 C  
HETATM   32  H   UNK A   0     -10.937  15.774  70.067  1.00  0.00     0.000 HD 
HETATM   33  O   UNK A   0     -10.522  14.924  69.975  1.00  0.00    -0.153 OA 
BRANCH  31  34
ATOM     34  N   SER A   1     -11.603  14.791  67.967  1.00  0.00    -0.333 NA 
ATOM     35  H   SER A   1     -12.411  15.337  68.265  1.00  0.00     0.000 HD 
BRANCH  34  36
ATOM     36  CA  SER A   1     -11.316  14.552  66.520  1.00  0.00    -0.352 C  
BRANCH  36  37
ATOM     37  CB  SER A   1     -12.300  13.495  66.011  1.00  0.00    -0.433 C  
ATOM     38  HG  SER A   1     -14.051  13.465  65.108  1.00  0.00     0.000 HD 
ATOM     39  OG  SER A   1     -13.440  14.121  65.423  1.00  0.00    -0.648 OA 
ENDBRANCH  36  37
BRANCH  36  40
ATOM     40  C   SER A   1     -11.497  15.869  65.742  1.00  0.00     0.309 C  
ATOM     41  H   SER A   1     -10.771  16.700  64.108  1.00  0.00     0.000 HD 
ATOM     42  O   SER A   1     -10.659  15.888  64.587  1.00  0.00    -0.525 OA 
ENDBRANCH  36  40
ENDBRANCH  34  36
ENDBRANCH  31  34
ENDBRANCH  18  31
ENDBRANCH   8  10
ENDBRANCH   5   8
ENDBRANCH   1   5
TORSDOF 13
ENDMDL
MODEL      221
REMARK 921   NORMALIZED FREE ENERGY PREDICTED BY IDOCK:   -1.68 KCAL/MOL
REMARK 922        TOTAL FREE ENERGY PREDICTED BY IDOCK:   -3.88 KCAL/MOL
REMARK 923 INTER-LIGAND FREE ENERGY PREDICTED BY IDOCK:   -6.04 KCAL/MOL
REMARK 924 INTRA-LIGAND FREE ENERGY PREDICTED BY IDOCK:    2.16 KCAL/MOL
REMARK 927      BINDING AFFINITY PREDICTED BY RF-SCORE:    0.00 PKD
ROOT
HETATM    1  C   UNK A   0      -8.853  18.702  67.986  1.00  0.00    -0.306 C  
HETATM    2  O   UNK A   0      -9.597  19.781  67.393  1.00  0.00    -0.320 OA 
HETATM    3  C   UNK A   0      -7.971  19.257  69.081  1.00  0.00    -0.222 C  
HETATM    4  H   UNK A   0     -10.151  19.432  66.705  1.00  0.00     0.000 HD 
ENDROOT
BRANCH   1   5
HETATM    5  C   UNK A   0      -9.869  17.737  68.573  1.00  0.00    -0.355 C  
HETATM    6  O   UNK A   0     -11.089  17.841  67.997  1.00  0.00    -0.195 OA 
HETATM    7  H   UNK A   0     -11.724  17.237  68.364  1.00  0.00     0.000 HD 
BRANCH   5   8
HETATM    8  N   UNK A   0      -9.579  16.871  69.487  1.00  0.00     0.043 NA 
HETATM    9  H   UNK A   0      -9.140  17.172  70.358  1.00  0.00     0.000 HD 
BRANCH   8  10
HETATM   10  C   UNK A   0      -9.876  15.491  69.271  1.00  0.00    -0.270 A  
HETATM   11  C   UNK A   0     -10.872  14.814  70.015  1.00  0.00    -0.116 A  
HETATM   12  I   UNK A   0     -12.048  15.986  71.449  1.00  0.00    -0.118 I  
HETATM   13  C   UNK A   0     -11.205  13.474  69.725  1.00  0.00    -0.067 A  
HETATM   14  I   UNK A   0      -7.572  15.808  67.257  1.00  0.00    -0.242 I  
HETATM   15  C   UNK A   0     -10.723  12.910  68.508  1.00  0.00    -0.254 A  
HETATM   16  I   UNK A   0     -11.874  11.244  67.687  1.00  0.00     0.762 I  
HETATM   17  C   UNK A   0      -9.265  14.818  68.170  1.00  0.00    -0.195 A  
HETATM   18  C   UNK A   0      -9.735  13.563  67.712  1.00  0.00    -0.226 A  
BRANCH  13  19
HETATM   19  C   UNK A   0     -11.940  12.596  70.689  1.00  0.00    -0.106 C  
HETATM   20  O   UNK A   0     -13.182  12.971  71.025  1.00  0.00    -0.096 OA 
HETATM   21  H   UNK A   0     -13.649  12.414  71.637  1.00  0.00     0.000 HD 
BRANCH  19  22
ATOM     22  N   SER A   1     -11.435  11.519  71.179  1.00  0.00     0.374 NA 
ATOM     23  H   SER A   1     -10.625  11.551  71.798  1.00  0.00     0.000 HD 
BRANCH  22  24
ATOM     24  CA  SER A   1     -12.071  10.222  70.814  1.00  0.00    -0.353 C  
BRANCH  24  25
ATOM     25  C   SER A   1     -12.993   9.826  71.983  1.00  0.00    -0.423 C  
ATOM     26  H   SER A   1     -13.091   8.386  73.320  1.00  0.00     0.000 HD 
ATOM     27  O   SER A   1     -12.522   8.630  72.599  1.00  0.00    -0.375 OA 
ENDBRANCH  24  25
BRANCH  24  28
ATOM     28  CB  SER A   1     -11.042   9.091  70.609  1.00  0.00    -0.265 C  
ATOM     29  OG  SER A   1     -11.585   7.901  70.039  1.00  0.00    -0.475 OA 
ATOM     30  HG  SER A   1     -10.952   7.205  69.913  1.00  0.00     0.000 HD 
ENDBRANCH  24  28
ENDBRANCH  22  24
ENDBRANCH  19  22
ENDBRANCH  13  19
BRANCH  18  31
HETATM   31  C   UNK A   0      -9.272  12.956  66.411  1.00  0.00    -0.137 C  
HETATM   32  H   UNK A   0      -7.650  12.400  65.481  1.00  0.00     0.000 HD 
HETATM   33  O   UNK A   0      -7.941  12.782  66.300  1.00  0.00     0.534 OA 
BRANCH  31  34
ATOM     34  N   SER A   1     -10.047  12.666  65.422  1.00  0.00    -0.324 NA 
ATOM     35  H   SER A   1     -10.355  11.709  65.253  1.00  0.00     0.000 HD 
BRANCH  34  36
ATOM     36  CA  SER A   1     -10.475  13.790  64.534  1.00  0.00    -0.356 C  
BRANCH  36  37
ATOM     37  CB  SER A   1     -11.607  13.277  63.638  1.00  0.00    -0.325 C  
ATOM     38  HG  SER A   1     -13.574  13.197  63.699  1.00  0.00     0.000 HD 
ATOM     39  OG  SER A   1     -12.872  13.515  64.254  1.00  0.00    -0.632 OA 
ENDBRANCH  36  37
BRANCH  36  40
ATOM     40  C   SER A   1     -10.969  14.964  65.400  1.00  0.00    -0.364 C  
ATOM     41  H   SER A   1     -11.272  16.900  65.181  1.00  0.00     0.000 HD 
ATOM     42  O   SER A   1     -10.968  16.176  64.647  1.00  0.00    -0.642 OA 
ENDBRANCH  36  40
ENDBRANCH  34  36
ENDBRANCH  31  34
ENDBRANCH  18  31
ENDBRANCH   8  10
ENDBRANCH   5   8
ENDBRANCH   1   5
TORSDOF 13
ENDMDL
MODEL      222
REMARK 921   NORMALIZED FREE ENERGY PREDICTED BY IDOCK:   -1.56 KCAL/MOL
REMARK 922        TOTAL FREE ENERGY PREDICTED BY IDOCK:   -3.67 KCAL/MOL
REMARK 923 INTER-LIGAND FREE ENERGY PREDICTED BY IDOCK:   -5.05 KCAL/MOL
REMARK 924 INTRA-LIGAND FREE ENERGY PREDICTED BY IDOCK:    1.38 KCAL/MOL
REMARK 927      BINDING AFFINITY PREDICTED BY RF-SCORE:    0.00 PKD
ROOT
HETATM    1  C   UNK A   0     -10.434   7.302  70.864  1.00  0.00    -0.213 C  
HETATM    2  O   UNK A   0     -10.600   5.961  70.371  1.00  0.00    -0.242 OA 
HETATM    3  C   UNK A   0      -9.059   7.800  70.480  1.00  0.00    -0.154 C  
HETATM    4  H   UNK A   0     -11.464   5.648  70.613  1.00  0.00     0.000 HD 
ENDROOT
BRANCH   1   5
HETATM    5  C   UNK A   0     -11.502   8.152  70.196  1.00  0.00     0.006 C  
HETATM    6  O   UNK A   0     -12.085   9.029  71.045  1.00  0.00    -0.312 OA 
HETATM    7  H   UNK A   0     -12.753   9.560  70.628  1.00  0.00     0.000 HD 
BRANCH   5   8
HETATM    8  N   UNK A   0     -11.782   8.079  68.937  1.00  0.00     0.635 NA 
HETATM    9  H   UNK A   0     -12.661   7.663  68.630  1.00  0.00     0.000 HD 
BRANCH   8  10
HETATM   10  C   UNK A   0     -10.851   8.583  67.978  1.00  0.00     0.043 A  
HETATM   11  C   UNK A   0     -10.140   7.727  67.104  1.00  0.00    -0.258 A  
HETATM   12  I   UNK A   0     -10.597   5.583  67.178  1.00  0.00    -0.067 I  
HETATM   13  C   UNK A   0      -9.289   8.255  66.109  1.00  0.00    -0.254 A  
HETATM   14  I   UNK A   0     -11.644  11.235  69.320  1.00  0.00    -0.486 I  
HETATM   15  C   UNK A   0      -9.372   9.650  65.825  1.00  0.00    -0.228 A  
HETATM   16  I   UNK A   0      -8.737  10.273  63.829  1.00  0.00    -0.245 I  
HETATM   17  C   UNK A   0     -10.753   9.995  67.788  1.00  0.00    -0.280 A  
HETATM   18  C   UNK A   0     -10.094  10.550  66.664  1.00  0.00    -0.275 A  
BRANCH  13  19
HETATM   19  C   UNK A   0      -8.235   7.438  65.428  1.00  0.00    -0.134 C  
HETATM   20  O   UNK A   0      -8.608   6.750  64.341  1.00  0.00    -0.340 OA 
HETATM   21  H   UNK A   0      -7.939   6.232  63.909  1.00  0.00     0.000 HD 
BRANCH  19  22
ATOM     22  N   SER A   1      -7.016   7.390  65.838  1.00  0.00    -0.060 NA 
ATOM     23  H   SER A   1      -6.557   8.215  66.224  1.00  0.00     0.000 HD 
BRANCH  22  24
ATOM     24  CA  SER A   1      -6.295   6.091  65.729  1.00  0.00    -0.042 C  
BRANCH  24  25
ATOM     25  C   SER A   1      -7.317   4.981  66.042  1.00  0.00    -0.078 C  
ATOM     26  H   SER A   1      -8.007   3.364  65.158  1.00  0.00     0.000 HD 
ATOM     27  O   SER A   1      -7.377   4.048  64.965  1.00  0.00    -0.069 OA 
ENDBRANCH  24  25
BRANCH  24  28
ATOM     28  CB  SER A   1      -5.131   5.969  66.734  1.00  0.00    -0.005 C  
ATOM     29  OG  SER A   1      -5.381   6.582  67.997  1.00  0.00    -0.007 OA 
ATOM     30  HG  SER A   1      -4.664   6.507  68.616  1.00  0.00     0.000 HD 
ENDBRANCH  24  28
ENDBRANCH  22  24
ENDBRANCH  19  22
ENDBRANCH  13  19
BRANCH  18  31
HETATM   31  C   UNK A   0     -10.192  12.014  66.316  1.00  0.00    -0.222 C  
HETATM   32  H   UNK A   0     -11.447  13.332  65.611  1.00  0.00     0.000 HD 
HETATM   33  O   UNK A   0     -11.385  12.409  65.830  1.00  0.00    -0.322 OA 
BRANCH  31  34
ATOM     34  N   SER A   1      -9.218  12.854  66.399  1.00  0.00    -0.404 NA 
ATOM     35  H   SER A   1      -8.470  12.869  65.705  1.00  0.00     0.000 HD 
BRANCH  34  36
ATOM     36  CA  SER A   1      -9.227  13.803  67.554  1.00  0.00    -0.216 C  
BRANCH  36  37
ATOM     37  CB  SER A   1      -7.780  14.000  68.014  1.00  0.00    -0.149 C  
ATOM     38  HG  SER A   1      -6.847  14.860  69.522  1.00  0.00     0.000 HD 
ATOM     39  OG  SER A   1      -7.745  14.737  69.237  1.00  0.00    -0.153 OA 
ENDBRANCH  36  37
BRANCH  36  40
ATOM     40  C   SER A   1      -9.832  15.146  67.104  1.00  0.00    -0.228 C  
ATOM     41  H   SER A   1     -11.164  16.434  67.778  1.00  0.00     0.000 HD 
ATOM     42  O   SER A   1     -10.791  15.606  68.056  1.00  0.00    -0.287 OA 
ENDBRANCH  36  40
ENDBRANCH  34  36
ENDBRANCH  31  34
ENDBRANCH  18  31
ENDBRANCH   8  10
ENDBRANCH   5   8
ENDBRANCH   1   5
TORSDOF 13
ENDMDL
MODEL      223
REMARK 921   NORMALIZED FREE ENERGY PREDICTED BY IDOCK:   -1.50 KCAL/MOL
REMARK 922        TOTAL FREE ENERGY PREDICTED BY IDOCK:   -3.57 KCAL/MOL
REMARK 923 INTER-LIGAND FREE ENERGY PREDICTED BY IDOCK:   -5.40 KCAL/MOL
REMARK 924 INTRA-LIGAND FREE ENERGY PREDICTED BY IDOCK:    1.84 KCAL/MOL
REMARK 927      BINDING AFFINITY PREDICTED BY RF-SCORE:    0.00 PKD
ROOT
HETATM    1  C   UNK A   0      -5.772  14.155  71.026  1.00  0.00    -0.215 C  
HETATM    2  O   UNK A   0      -6.626  14.414  72.154  1.00  0.00     0.153 OA 
HETATM    3  C   UNK A   0      -5.130  12.796  71.196  1.00  0.00    -0.159 C  
HETATM    4  H   UNK A   0      -7.029  15.267  72.047  1.00  0.00     0.000 HD 
ENDROOT
BRANCH   1   5
HETATM    5  C   UNK A   0      -6.658  14.162  69.792  1.00  0.00    -0.104 C  
HETATM    6  O   UNK A   0      -7.956  14.417  70.076  1.00  0.00    -0.179 OA 
HETATM    7  H   UNK A   0      -8.510  14.421  69.305  1.00  0.00     0.000 HD 
BRANCH   5   8
HETATM    8  N   UNK A   0      -6.206  13.997  68.592  1.00  0.00    -0.083 NA 
HETATM    9  H   UNK A   0      -5.345  14.459  68.300  1.00  0.00     0.000 HD 
BRANCH   8  10
HETATM   10  C   UNK A   0      -6.920  13.161  67.679  1.00  0.00    -0.154 A  
HETATM   11  C   UNK A   0      -6.698  11.766  67.611  1.00  0.00    -0.091 A  
HETATM   12  I   UNK A   0      -5.292  10.884  69.046  1.00  0.00    -0.039 I  
HETATM   13  C   UNK A   0      -7.474  10.951  66.760  1.00  0.00    -0.134 A  
HETATM   14  I   UNK A   0      -8.105  15.884  66.871  1.00  0.00    -0.258 I  
HETATM   15  C   UNK A   0      -8.654  11.511  66.187  1.00  0.00    -0.094 A  
HETATM   16  I   UNK A   0     -10.220  10.098  65.615  1.00  0.00     0.030 I  
HETATM   17  C   UNK A   0      -7.997  13.723  66.929  1.00  0.00     0.230 A  
HETATM   18  C   UNK A   0      -8.933  12.909  66.248  1.00  0.00     0.069 A  
BRANCH  13  19
HETATM   19  C   UNK A   0      -7.052   9.574  66.350  1.00  0.00    -0.088 C  
HETATM   20  O   UNK A   0      -6.472   9.450  65.148  1.00  0.00    -0.071 OA 
HETATM   21  H   UNK A   0      -6.204   8.576  64.889  1.00  0.00     0.000 HD 
BRANCH  19  22
ATOM     22  N   SER A   1      -7.214   8.542  67.101  1.00  0.00    -0.079 NA 
ATOM     23  H   SER A   1      -7.175   8.618  68.117  1.00  0.00     0.000 HD 
BRANCH  22  24
ATOM     24  CA  SER A   1      -7.460   7.231  66.438  1.00  0.00    -0.084 C  
BRANCH  24  25
ATOM     25  C   SER A   1      -8.733   6.637  67.071  1.00  0.00    -0.113 C  
ATOM     26  H   SER A   1      -9.196   5.597  68.676  1.00  0.00     0.000 HD 
ATOM     27  O   SER A   1      -8.411   5.963  68.286  1.00  0.00    -0.114 OA 
ENDBRANCH  24  25
BRANCH  24  28
ATOM     28  CB  SER A   1      -6.306   6.230  66.651  1.00  0.00    -0.041 C  
ATOM     29  OG  SER A   1      -5.986   5.450  65.499  1.00  0.00    -0.024 OA 
ATOM     30  HG  SER A   1      -5.275   4.834  65.630  1.00  0.00     0.000 HD 
ENDBRANCH  24  28
ENDBRANCH  22  24
ENDBRANCH  19  22
ENDBRANCH  13  19
BRANCH  18  31
HETATM   31  C   UNK A   0     -10.208  13.464  65.662  1.00  0.00    -0.292 C  
HETATM   32  H   UNK A   0     -11.977  14.096  66.189  1.00  0.00     0.000 HD 
HETATM   33  O   UNK A   0     -11.174  13.747  66.557  1.00  0.00    -0.303 OA 
BRANCH  31  34
ATOM     34  N   SER A   1     -10.429  13.617  64.402  1.00  0.00    -0.592 NA 
ATOM     35  H   SER A   1      -9.682  13.506  63.715  1.00  0.00     0.000 HD 
BRANCH  34  36
ATOM     36  CA  SER A   1     -11.823  13.961  63.986  1.00  0.00    -0.337 C  
BRANCH  36  37
ATOM     37  CB  SER A   1     -12.751  12.848  64.480  1.00  0.00    -0.286 C  
ATOM     38  HG  SER A   1     -13.638  11.262  63.718  1.00  0.00     0.000 HD 
ATOM     39  OG  SER A   1     -13.062  11.953  63.412  1.00  0.00    -0.710 OA 
ENDBRANCH  36  37
BRANCH  36  40
ATOM     40  C   SER A   1     -12.223  15.309  64.615  1.00  0.00    -0.138 C  
ATOM     41  H   SER A   1     -11.866  17.222  64.293  1.00  0.00     0.000 HD 
ATOM     42  O   SER A   1     -11.619  16.390  63.906  1.00  0.00    -1.100 OA 
ENDBRANCH  36  40
ENDBRANCH  34  36
ENDBRANCH  31  34
ENDBRANCH  18  31
ENDBRANCH   8  10
ENDBRANCH   5   8
ENDBRANCH   1   5
TORSDOF 13
ENDMDL
MODEL      224
REMARK 921   NORMALIZED FREE ENERGY PREDICTED BY IDOCK:   -1.42 KCAL/MOL
REMARK 922        TOTAL FREE ENERGY PREDICTED BY IDOCK:   -3.43 KCAL/MOL
REMARK 923 INTER-LIGAND FREE ENERGY PREDICTED BY IDOCK:   -5.27 KCAL/MOL
REMARK 924 INTRA-LIGAND FREE ENERGY PREDICTED BY IDOCK:    1.84 KCAL/MOL
REMARK 927      BINDING AFFINITY PREDICTED BY RF-SCORE:    0.00 PKD
ROOT
HETATM    1  C   UNK A   0     -11.995  12.993  70.535  1.00  0.00    -0.212 C  
HETATM    2  O   UNK A   0     -12.603  13.412  71.770  1.00  0.00    -0.249 OA 
HETATM    3  C   UNK A   0     -12.535  11.632  70.159  1.00  0.00    -0.209 C  
HETATM    4  H   UNK A   0     -12.263  14.267  72.006  1.00  0.00     0.000 HD 
ENDROOT
BRANCH   1   5
HETATM    5  C   UNK A   0     -12.385  14.017  69.483  1.00  0.00    -0.229 C  
HETATM    6  O   UNK A   0     -13.189  14.991  69.968  1.00  0.00    -0.582 OA 
HETATM    7  H   UNK A   0     -13.434  15.632  69.310  1.00  0.00     0.000 HD 
BRANCH   5   8
HETATM    8  N   UNK A   0     -11.948  13.988  68.267  1.00  0.00    -0.446 NA 
HETATM    9  H   UNK A   0     -12.602  14.007  67.486  1.00  0.00     0.000 HD 
BRANCH   8  10
HETATM   10  C   UNK A   0     -10.541  13.926  68.026  1.00  0.00    -0.248 A  
HETATM   11  C   UNK A   0      -9.629  14.778  68.693  1.00  0.00    -0.218 A  
HETATM   12  I   UNK A   0     -10.430  16.136  70.218  1.00  0.00     0.439 I  
HETATM   13  C   UNK A   0      -8.238  14.641  68.499  1.00  0.00    -0.152 A  
HETATM   14  I   UNK A   0     -11.469  11.790  66.015  1.00  0.00     0.110 I  
HETATM   15  C   UNK A   0      -7.763  13.467  67.844  1.00  0.00    -0.153 A  
HETATM   16  I   UNK A   0      -5.708  12.872  68.289  1.00  0.00    -0.111 I  
HETATM   17  C   UNK A   0     -10.026  12.873  67.210  1.00  0.00    -0.224 A  
HETATM   18  C   UNK A   0      -8.645  12.566  67.176  1.00  0.00    -0.200 A  
BRANCH  13  19
HETATM   19  C   UNK A   0      -7.262  15.721  68.849  1.00  0.00    -0.147 C  
HETATM   20  O   UNK A   0      -6.776  15.718  70.098  1.00  0.00    -0.060 OA 
HETATM   21  H   UNK A   0      -6.156  16.404  70.320  1.00  0.00     0.000 HD 
BRANCH  19  22
ATOM     22  N   SER A   1      -6.879  16.616  68.008  1.00  0.00    -0.140 NA 
ATOM     23  H   SER A   1      -6.385  16.358  67.153  1.00  0.00     0.000 HD 
BRANCH  22  24
ATOM     24  CA  SER A   1      -7.178  18.041  68.322  1.00  0.00    -0.248 C  
BRANCH  24  25
ATOM     25  C   SER A   1      -7.975  18.608  67.132  1.00  0.00    -0.242 C  
ATOM     26  H   SER A   1      -9.609  18.145  66.138  1.00  0.00     0.000 HD 
ATOM     27  O   SER A   1      -9.117  17.796  66.872  1.00  0.00    -0.245 OA 
ENDBRANCH  24  25
BRANCH  24  28
ATOM     28  CB  SER A   1      -5.903  18.893  68.496  1.00  0.00    -0.205 C  
ATOM     29  OG  SER A   1      -6.092  20.079  69.265  1.00  0.00    -0.270 OA 
ATOM     30  HG  SER A   1      -5.307  20.604  69.372  1.00  0.00     0.000 HD 
ENDBRANCH  24  28
ENDBRANCH  22  24
ENDBRANCH  19  22
ENDBRANCH  13  19
BRANCH  18  31
HETATM   31  C   UNK A   0      -8.114  11.314  66.523  1.00  0.00    -0.160 C  
HETATM   32  H   UNK A   0      -8.024   9.382  66.781  1.00  0.00     0.000 HD 
HETATM   33  O   UNK A   0      -8.358  10.171  67.192  1.00  0.00    -0.124 OA 
BRANCH  31  34
ATOM     34  N   SER A   1      -7.419  11.293  65.438  1.00  0.00    -0.172 NA 
ATOM     35  H   SER A   1      -6.650  11.946  65.288  1.00  0.00     0.000 HD 
BRANCH  34  36
ATOM     36  CA  SER A   1      -7.784  10.272  64.409  1.00  0.00    -0.104 C  
BRANCH  36  37
ATOM     37  CB  SER A   1      -6.550   9.404  64.146  1.00  0.00    -0.095 C  
ATOM     38  HG  SER A   1      -5.548   8.753  62.579  1.00  0.00     0.000 HD 
ATOM     39  OG  SER A   1      -6.314   9.291  62.743  1.00  0.00    -0.094 OA 
ENDBRANCH  36  37
BRANCH  36  40
ATOM     40  C   SER A   1      -8.942   9.406  64.940  1.00  0.00    -0.209 C  
ATOM     41  H   SER A   1      -9.340   7.486  65.149  1.00  0.00     0.000 HD 
ATOM     42  O   SER A   1      -8.626   8.020  64.822  1.00  0.00    -0.073 OA 
ENDBRANCH  36  40
ENDBRANCH  34  36
ENDBRANCH  31  34
ENDBRANCH  18  31
ENDBRANCH   8  10
ENDBRANCH   5   8
ENDBRANCH   1   5
TORSDOF 13
ENDMDL
MODEL      225
REMARK 921   NORMALIZED FREE ENERGY PREDICTED BY IDOCK:   -1.28 KCAL/MOL
REMARK 922        TOTAL FREE ENERGY PREDICTED BY IDOCK:   -3.18 KCAL/MOL
REMARK 923 INTER-LIGAND FREE ENERGY PREDICTED BY IDOCK:   -4.06 KCAL/MOL
REMARK 924 INTRA-LIGAND FREE ENERGY PREDICTED BY IDOCK:    0.88 KCAL/MOL
REMARK 927      BINDING AFFINITY PREDICTED BY RF-SCORE:    0.00 PKD
ROOT
HETATM    1  C   UNK A   0     -10.203  19.932  66.193  1.00  0.00    -0.503 C  
HETATM    2  O   UNK A   0     -11.142  20.262  67.232  1.00  0.00     0.107 OA 
HETATM    3  C   UNK A   0      -8.804  20.245  66.677  1.00  0.00    -0.334 C  
HETATM    4  H   UNK A   0     -12.020  20.066  66.927  1.00  0.00     0.000 HD 
ENDROOT
BRANCH   1   5
HETATM    5  C   UNK A   0     -10.342  18.442  65.930  1.00  0.00    -0.301 C  
HETATM    6  O   UNK A   0     -11.128  18.166  64.864  1.00  0.00    -0.673 OA 
HETATM    7  H   UNK A   0     -11.216  17.235  64.699  1.00  0.00     0.000 HD 
BRANCH   5   8
HETATM    8  N   UNK A   0      -9.729  17.539  66.622  1.00  0.00    -0.286 NA 
HETATM    9  H   UNK A   0      -8.722  17.601  66.768  1.00  0.00     0.000 HD 
BRANCH   8  10
HETATM   10  C   UNK A   0     -10.472  16.453  67.179  1.00  0.00    -0.297 A  
HETATM   11  C   UNK A   0     -10.950  15.387  66.382  1.00  0.00    -0.277 A  
HETATM   12  I   UNK A   0     -10.412  15.381  64.255  1.00  0.00     2.831 I  
HETATM   13  C   UNK A   0     -11.609  14.285  66.969  1.00  0.00    -0.406 A  
HETATM   14  I   UNK A   0     -10.096  18.138  69.726  1.00  0.00     1.568 I  
HETATM   15  C   UNK A   0     -11.539  14.136  68.385  1.00  0.00    -0.318 A  
HETATM   16  I   UNK A   0     -11.789  12.110  69.162  1.00  0.00    -0.225 I  
HETATM   17  C   UNK A   0     -10.599  16.361  68.598  1.00  0.00    -0.305 A  
HETATM   18  C   UNK A   0     -11.045  15.175  69.229  1.00  0.00    -0.279 A  
BRANCH  13  19
HETATM   19  C   UNK A   0     -12.463  13.340  66.182  1.00  0.00    -0.268 C  
HETATM   20  O   UNK A   0     -13.636  13.810  65.736  1.00  0.00    -0.395 OA 
HETATM   21  H   UNK A   0     -14.177  13.210  65.236  1.00  0.00     0.000 HD 
BRANCH  19  22
ATOM     22  N   SER A   1     -12.108  12.131  65.919  1.00  0.00    -0.571 NA 
ATOM     23  H   SER A   1     -12.445  11.349  66.481  1.00  0.00     0.000 HD 
BRANCH  22  24
ATOM     24  CA  SER A   1     -11.189  11.909  64.768  1.00  0.00    -0.297 C  
BRANCH  24  25
ATOM     25  C   SER A   1     -12.069  11.684  63.525  1.00  0.00    -0.250 C  
ATOM     26  H   SER A   1     -13.038  12.796  62.221  1.00  0.00     0.000 HD 
ATOM     27  O   SER A   1     -12.495  12.935  62.988  1.00  0.00    -0.534 OA 
ENDBRANCH  24  25
BRANCH  24  28
ATOM     28  CB  SER A   1     -10.292  10.668  64.953  1.00  0.00    -0.277 C  
ATOM     29  OG  SER A   1      -8.945  10.967  65.314  1.00  0.00    -0.199 OA 
ATOM     30  HG  SER A   1      -8.393  10.203  65.428  1.00  0.00     0.000 HD 
ENDBRANCH  24  28
ENDBRANCH  22  24
ENDBRANCH  19  22
ENDBRANCH  13  19
BRANCH  18  31
HETATM   31  C   UNK A   0     -10.951  14.973  70.721  1.00  0.00    -0.137 C  
HETATM   32  H   UNK A   0      -9.641  14.849  72.162  1.00  0.00     0.000 HD 
HETATM   33  O   UNK A   0      -9.701  14.976  71.223  1.00  0.00     1.324 OA 
BRANCH  31  34
ATOM     34  N   SER A   1     -11.957  14.747  71.494  1.00  0.00    -0.345 NA 
ATOM     35  H   SER A   1     -12.265  13.796  71.700  1.00  0.00     0.000 HD 
BRANCH  34  36
ATOM     36  CA  SER A   1     -12.654  15.933  72.078  1.00  0.00    -0.452 C  
BRANCH  36  37
ATOM     37  CB  SER A   1     -14.132  15.573  72.254  1.00  0.00    -0.544 C  
ATOM     38  HG  SER A   1     -15.325  14.084  71.761  1.00  0.00     0.000 HD 
ATOM     39  OG  SER A   1     -14.408  14.308  71.652  1.00  0.00    -0.425 OA 
ENDBRANCH  36  37
BRANCH  36  40
ATOM     40  C   SER A   1     -12.022  16.277  73.439  1.00  0.00    -0.399 C  
ATOM     41  H   SER A   1     -12.027  15.539  75.268  1.00  0.00     0.000 HD 
ATOM     42  O   SER A   1     -12.417  15.327  74.428  1.00  0.00    -0.589 OA 
ENDBRANCH  36  40
ENDBRANCH  34  36
ENDBRANCH  31  34
ENDBRANCH  18  31
ENDBRANCH   8  10
ENDBRANCH   5   8
ENDBRANCH   1   5
TORSDOF 13
ENDMDL
MODEL      226
REMARK 921   NORMALIZED FREE ENERGY PREDICTED BY IDOCK:   -1.23 KCAL/MOL
REMARK 922        TOTAL FREE ENERGY PREDICTED BY IDOCK:   -3.10 KCAL/MOL
REMARK 923 INTER-LIGAND FREE ENERGY PREDICTED BY IDOCK:   -4.21 KCAL/MOL
REMARK 924 INTRA-LIGAND FREE ENERGY PREDICTED BY IDOCK:    1.10 KCAL/MOL
REMARK 927      BINDING AFFINITY PREDICTED BY RF-SCORE:    0.00 PKD
ROOT
HETATM    1  C   UNK A   0      -7.679   6.381  70.246  1.00  0.00    -0.098 C  
HETATM    2  O   UNK A   0      -8.211   5.202  69.617  1.00  0.00    -0.090 OA 
HETATM    3  C   UNK A   0      -6.388   6.765  69.559  1.00  0.00    -0.042 C  
HETATM    4  H   UNK A   0      -9.022   4.960  70.049  1.00  0.00     0.000 HD 
ENDROOT
BRANCH   1   5
HETATM    5  C   UNK A   0      -8.713   7.480  70.065  1.00  0.00    -0.140 C  
HETATM    6  O   UNK A   0      -8.700   8.387  71.068  1.00  0.00    -0.133 OA 
HETATM    7  H   UNK A   0      -9.346   9.074  70.955  1.00  0.00     0.000 HD 
BRANCH   5   8
HETATM    8  N   UNK A   0      -9.484   7.565  69.031  1.00  0.00    -0.146 NA 
HETATM    9  H   UNK A   0     -10.498   7.567  69.146  1.00  0.00     0.000 HD 
BRANCH   8  10
HETATM   10  C   UNK A   0      -8.908   7.655  67.727  1.00  0.00    -0.125 A  
HETATM   11  C   UNK A   0      -9.041   6.615  66.777  1.00  0.00    -0.142 A  
HETATM   12  I   UNK A   0     -10.273   4.884  67.323  1.00  0.00    -0.002 I  
HETATM   13  C   UNK A   0      -8.534   6.763  65.468  1.00  0.00    -0.124 A  
HETATM   14  I   UNK A   0      -7.905  10.325  68.882  1.00  0.00    -0.135 I  
HETATM   15  C   UNK A   0      -8.138   8.065  65.044  1.00  0.00    -0.145 A  
HETATM   16  I   UNK A   0      -8.175   8.438  62.891  1.00  0.00     0.009 I  
HETATM   17  C   UNK A   0      -8.319   8.889  67.317  1.00  0.00    -0.104 A  
HETATM   18  C   UNK A   0      -8.010   9.151  65.961  1.00  0.00    -0.103 A  
BRANCH  13  19
HETATM   19  C   UNK A   0      -8.293   5.600  64.557  1.00  0.00    -0.108 C  
HETATM   20  O   UNK A   0      -9.066   5.513  63.466  1.00  0.00    -0.328 OA 
HETATM   21  H   UNK A   0      -8.913   4.774  62.888  1.00  0.00     0.000 HD 
BRANCH  19  22
ATOM     22  N   SER A   1      -7.384   4.715  64.779  1.00  0.00    -0.070 NA 
ATOM     23  H   SER A   1      -6.394   4.943  64.684  1.00  0.00     0.000 HD 
BRANCH  22  24
ATOM     24  CA  SER A   1      -7.824   3.349  65.177  1.00  0.00    -0.082 C  
BRANCH  24  25
ATOM     25  C   SER A   1      -6.855   2.864  66.271  1.00  0.00    -0.048 C  
ATOM     26  H   SER A   1      -5.049   2.087  66.360  1.00  0.00     0.000 HD 
ATOM     27  O   SER A   1      -5.647   2.386  65.684  1.00  0.00    -0.015 OA 
ENDBRANCH  24  25
BRANCH  24  28
ATOM     28  CB  SER A   1      -7.773   2.343  64.009  1.00  0.00    -0.071 C  
ATOM     29  OG  SER A   1      -6.918   2.734  62.936  1.00  0.00    -0.030 OA 
ATOM     30  HG  SER A   1      -6.887   2.114  62.217  1.00  0.00     0.000 HD 
ENDBRANCH  24  28
ENDBRANCH  22  24
ENDBRANCH  19  22
ENDBRANCH  13  19
BRANCH  18  31
HETATM   31  C   UNK A   0      -7.624  10.526  65.474  1.00  0.00    -0.120 C  
HETATM   32  H   UNK A   0      -6.056  11.638  65.138  1.00  0.00     0.000 HD 
HETATM   33  O   UNK A   0      -6.300  10.773  65.445  1.00  0.00    -0.088 OA 
BRANCH  31  34
ATOM     34  N   SER A   1      -8.462  11.453  65.156  1.00  0.00    -0.353 NA 
ATOM     35  H   SER A   1      -8.184  12.240  64.569  1.00  0.00     0.000 HD 
BRANCH  34  36
ATOM     36  CA  SER A   1      -9.855  11.327  65.682  1.00  0.00    -0.234 C  
BRANCH  36  37
ATOM     37  CB  SER A   1     -10.118  12.517  66.610  1.00  0.00    -0.230 C  
ATOM     38  HG  SER A   1      -9.216  14.200  67.093  1.00  0.00     0.000 HD 
ATOM     39  OG  SER A   1      -9.053  13.462  66.517  1.00  0.00    -0.211 OA 
ENDBRANCH  36  37
BRANCH  36  40
ATOM     40  C   SER A   1     -10.847  11.339  64.503  1.00  0.00    -0.284 C  
ATOM     41  H   SER A   1     -10.809  11.776  62.581  1.00  0.00     0.000 HD 
ATOM     42  O   SER A   1     -10.198  11.769  63.308  1.00  0.00    -0.412 OA 
ENDBRANCH  36  40
ENDBRANCH  34  36
ENDBRANCH  31  34
ENDBRANCH  18  31
ENDBRANCH   8  10
ENDBRANCH   5   8
ENDBRANCH   1   5
TORSDOF 13
ENDMDL
MODEL      227
REMARK 921   NORMALIZED FREE ENERGY PREDICTED BY IDOCK:   -1.14 KCAL/MOL
REMARK 922        TOTAL FREE ENERGY PREDICTED BY IDOCK:   -2.94 KCAL/MOL
REMARK 923 INTER-LIGAND FREE ENERGY PREDICTED BY IDOCK:   -3.39 KCAL/MOL
REMARK 924 INTRA-LIGAND FREE ENERGY PREDICTED BY IDOCK:    0.45 KCAL/MOL
REMARK 927      BINDING AFFINITY PREDICTED BY RF-SCORE:    0.00 PKD
ROOT
HETATM    1  C   UNK A   0     -10.965   6.436  66.984  1.00  0.00    -0.389 C  
HETATM    2  O   UNK A   0     -12.115   6.697  66.160  1.00  0.00     1.393 OA 
HETATM    3  C   UNK A   0      -9.864   5.860  66.123  1.00  0.00    -0.058 C  
HETATM    4  H   UNK A   0     -12.807   7.058  66.701  1.00  0.00     0.000 HD 
ENDROOT
BRANCH   1   5
HETATM    5  C   UNK A   0     -10.529   7.769  67.566  1.00  0.00    -0.268 C  
HETATM    6  O   UNK A   0     -11.283   8.158  68.619  1.00  0.00    -0.326 OA 
HETATM    7  H   UNK A   0     -11.011   8.992  68.983  1.00  0.00     0.000 HD 
BRANCH   5   8
HETATM    8  N   UNK A   0      -9.509   8.433  67.131  1.00  0.00    -0.154 NA 
HETATM    9  H   UNK A   0      -9.217   8.347  66.158  1.00  0.00     0.000 HD 
BRANCH   8  10
HETATM   10  C   UNK A   0      -8.792   9.288  68.024  1.00  0.00    -0.128 A  
HETATM   11  C   UNK A   0      -7.782   8.794  68.883  1.00  0.00    -0.095 A  
HETATM   12  I   UNK A   0      -7.254   6.671  68.724  1.00  0.00    -0.089 I  
HETATM   13  C   UNK A   0      -7.031   9.671  69.695  1.00  0.00    -0.071 A  
HETATM   14  I   UNK A   0     -10.717  11.361  66.814  1.00  0.00    -0.324 I  
HETATM   15  C   UNK A   0      -7.118  11.070  69.432  1.00  0.00    -0.128 A  
HETATM   16  I   UNK A   0      -5.412  12.283  70.060  1.00  0.00    -0.154 I  
HETATM   17  C   UNK A   0      -8.988  10.699  67.934  1.00  0.00    -0.138 A  
HETATM   18  C   UNK A   0      -8.105  11.614  68.556  1.00  0.00    -0.145 A  
BRANCH  13  19
HETATM   19  C   UNK A   0      -6.245   9.204  70.880  1.00  0.00    -0.062 C  
HETATM   20  O   UNK A   0      -5.213   8.383  70.639  1.00  0.00    -0.022 OA 
HETATM   21  H   UNK A   0      -4.714   8.087  71.391  1.00  0.00     0.000 HD 
BRANCH  19  22
ATOM     22  N   SER A   1      -6.515   9.567  72.085  1.00  0.00    -0.262 NA 
ATOM     23  H   SER A   1      -6.323  10.516  72.405  1.00  0.00     0.000 HD 
BRANCH  22  24
ATOM     24  CA  SER A   1      -7.117   8.555  72.998  1.00  0.00    -0.010 C  
BRANCH  24  25
ATOM     25  C   SER A   1      -6.033   8.171  74.023  1.00  0.00    -0.092 C  
ATOM     26  H   SER A   1      -4.508   9.045  74.907  1.00  0.00     0.000 HD 
ATOM     27  O   SER A   1      -5.176   9.282  74.275  1.00  0.00    -0.117 OA 
ENDBRANCH  24  25
BRANCH  24  28
ATOM     28  CB  SER A   1      -7.557   7.273  72.261  1.00  0.00    -0.084 C  
ATOM     29  OG  SER A   1      -8.882   7.325  71.736  1.00  0.00    -0.117 OA 
ATOM     30  HG  SER A   1      -9.152   6.536  71.282  1.00  0.00     0.000 HD 
ENDBRANCH  24  28
ENDBRANCH  22  24
ENDBRANCH  19  22
ENDBRANCH  13  19
BRANCH  18  31
HETATM   31  C   UNK A   0      -8.147  13.095  68.272  1.00  0.00    -0.152 C  
HETATM   32  H   UNK A   0      -7.410  14.434  67.059  1.00  0.00     0.000 HD 
HETATM   33  O   UNK A   0      -7.384  13.502  67.239  1.00  0.00    -0.140 OA 
BRANCH  31  34
ATOM     34  N   SER A   1      -8.799  13.957  68.974  1.00  0.00    -0.372 NA 
ATOM     35  H   SER A   1      -9.431  13.665  69.719  1.00  0.00     0.000 HD 
BRANCH  34  36
ATOM     36  CA  SER A   1      -8.591  15.402  68.652  1.00  0.00    -0.179 C  
BRANCH  36  37
ATOM     37  CB  SER A   1      -9.551  16.221  69.518  1.00  0.00    -0.102 C  
ATOM     38  HG  SER A   1     -11.122  17.378  69.238  1.00  0.00     0.000 HD 
ATOM     39  OG  SER A   1     -10.526  16.869  68.700  1.00  0.00    -0.307 OA 
ENDBRANCH  36  37
BRANCH  36  40
ATOM     40  C   SER A   1      -7.132  15.787  68.959  1.00  0.00    -0.159 C  
ATOM     41  H   SER A   1      -5.784  17.042  68.255  1.00  0.00     0.000 HD 
ATOM     42  O   SER A   1      -6.684  16.805  68.065  1.00  0.00    -0.137 OA 
ENDBRANCH  36  40
ENDBRANCH  34  36
ENDBRANCH  31  34
ENDBRANCH  18  31
ENDBRANCH   8  10
ENDBRANCH   5   8
ENDBRANCH   1   5
TORSDOF 13
ENDMDL
MODEL      228
REMARK 921   NORMALIZED FREE ENERGY PREDICTED BY IDOCK:   -1.06 KCAL/MOL
REMARK 922        TOTAL FREE ENERGY PREDICTED BY IDOCK:   -2.80 KCAL/MOL
REMARK 923 INTER-LIGAND FREE ENERGY PREDICTED BY IDOCK:   -4.16 KCAL/MOL
REMARK 924 INTRA-LIGAND FREE ENERGY PREDICTED BY IDOCK:    1.35 KCAL/MOL
REMARK 927      BINDING AFFINITY PREDICTED BY RF-SCORE:    0.00 PKD
ROOT
HETATM    1  C   UNK A   0     -10.620  11.468  65.931  1.00  0.00    -0.268 C  
HETATM    2  O   UNK A   0     -11.798  12.217  66.280  1.00  0.00    -0.553 OA 
HETATM    3  C   UNK A   0     -10.503  11.410  64.425  1.00  0.00    -0.388 C  
HETATM    4  H   UNK A   0     -11.871  12.253  67.226  1.00  0.00     0.000 HD 
ENDROOT
BRANCH   1   5
HETATM    5  C   UNK A   0      -9.434  12.214  66.518  1.00  0.00    -0.231 C  
HETATM    6  O   UNK A   0      -9.138  13.348  65.842  1.00  0.00    -0.454 OA 
HETATM    7  H   UNK A   0      -8.396  13.815  66.209  1.00  0.00     0.000 HD 
BRANCH   5   8
HETATM    8  N   UNK A   0      -8.811  11.831  67.584  1.00  0.00    -0.157 NA 
HETATM    9  H   UNK A   0      -8.341  12.514  68.177  1.00  0.00     0.000 HD 
BRANCH   8  10
HETATM   10  C   UNK A   0      -8.786  10.444  67.925  1.00  0.00    -0.125 A  
HETATM   11  C   UNK A   0      -7.680   9.617  67.617  1.00  0.00    -0.095 A  
HETATM   12  I   UNK A   0      -5.928  10.559  66.693  1.00  0.00    -0.104 I  
HETATM   13  C   UNK A   0      -7.645   8.271  68.038  1.00  0.00    -0.102 A  
HETATM   14  I   UNK A   0     -11.607  11.139  68.939  1.00  0.00    -0.385 I  
HETATM   15  C   UNK A   0      -8.603   7.844  69.004  1.00  0.00    -0.135 A  
HETATM   16  I   UNK A   0      -8.045   6.122  70.229  1.00  0.00    -0.115 I  
HETATM   17  C   UNK A   0      -9.835   9.915  68.738  1.00  0.00    -0.171 A  
HETATM   18  C   UNK A   0      -9.723   8.651  69.364  1.00  0.00    -0.176 A  
BRANCH  13  19
HETATM   19  C   UNK A   0      -6.724   7.258  67.434  1.00  0.00    -0.068 C  
HETATM   20  O   UNK A   0      -5.442   7.294  67.823  1.00  0.00    -0.022 OA 
HETATM   21  H   UNK A   0      -4.857   6.651  67.439  1.00  0.00     0.000 HD 
BRANCH  19  22
ATOM     22  N   SER A   1      -7.118   6.372  66.588  1.00  0.00    -0.067 NA 
ATOM     23  H   SER A   1      -7.294   6.616  65.613  1.00  0.00     0.000 HD 
BRANCH  22  24
ATOM     24  CA  SER A   1      -7.308   4.977  67.077  1.00  0.00    -0.082 C  
BRANCH  24  25
ATOM     25  C   SER A   1      -6.598   4.047  66.077  1.00  0.00    -0.041 C  
ATOM     26  H   SER A   1      -7.022   3.174  64.364  1.00  0.00     0.000 HD 
ATOM     27  O   SER A   1      -7.461   3.749  64.982  1.00  0.00    -0.071 OA 
ENDBRANCH  24  25
BRANCH  24  28
ATOM     28  CB  SER A   1      -8.794   4.567  67.143  1.00  0.00    -0.109 C  
ATOM     29  OG  SER A   1      -9.707   5.622  66.843  1.00  0.00    -0.131 OA 
ATOM     30  HG  SER A   1     -10.622   5.369  66.884  1.00  0.00     0.000 HD 
ENDBRANCH  24  28
ENDBRANCH  22  24
ENDBRANCH  19  22
ENDBRANCH  13  19
BRANCH  18  31
HETATM   31  C   UNK A   0     -10.699   8.184  70.416  1.00  0.00    -0.232 C  
HETATM   32  H   UNK A   0     -12.292   7.079  70.633  1.00  0.00     0.000 HD 
HETATM   33  O   UNK A   0     -11.677   7.373  69.971  1.00  0.00    -0.083 OA 
BRANCH  31  34
ATOM     34  N   SER A   1     -10.678   8.556  71.651  1.00  0.00    -0.258 NA 
ATOM     35  H   SER A   1      -9.958   9.187  72.002  1.00  0.00     0.000 HD 
BRANCH  34  36
ATOM     36  CA  SER A   1     -11.751   8.024  72.545  1.00  0.00    -0.387 C  
BRANCH  36  37
ATOM     37  CB  SER A   1     -11.082   7.174  73.630  1.00  0.00     0.186 C  
ATOM     38  HG  SER A   1      -9.327   7.088  74.522  1.00  0.00     0.000 HD 
ATOM     39  OG  SER A   1      -9.742   7.615  73.849  1.00  0.00    -0.260 OA 
ENDBRANCH  36  37
BRANCH  36  40
ATOM     40  C   SER A   1     -12.512   9.201  73.183  1.00  0.00     1.294 C  
ATOM     41  H   SER A   1     -14.389   9.762  73.407  1.00  0.00     0.000 HD 
ATOM     42  O   SER A   1     -13.919   9.036  73.014  1.00  0.00    -0.367 OA 
ENDBRANCH  36  40
ENDBRANCH  34  36
ENDBRANCH  31  34
ENDBRANCH  18  31
ENDBRANCH   8  10
ENDBRANCH   5   8
ENDBRANCH   1   5
TORSDOF 13
ENDMDL
MODEL      229
REMARK 921   NORMALIZED FREE ENERGY PREDICTED BY IDOCK:   -1.05 KCAL/MOL
REMARK 922        TOTAL FREE ENERGY PREDICTED BY IDOCK:   -2.78 KCAL/MOL
REMARK 923 INTER-LIGAND FREE ENERGY PREDICTED BY IDOCK:   -5.00 KCAL/MOL
REMARK 924 INTRA-LIGAND FREE ENERGY PREDICTED BY IDOCK:    2.22 KCAL/MOL
REMARK 927      BINDING AFFINITY PREDICTED BY RF-SCORE:    0.00 PKD
ROOT
HETATM    1  C   UNK A   0     -11.230  15.895  65.668  1.00  0.00     0.003 C  
HETATM    2  O   UNK A   0     -11.526  16.189  67.045  1.00  0.00     0.110 OA 
HETATM    3  C   UNK A   0      -9.732  15.938  65.468  1.00  0.00    -0.215 C  
HETATM    4  H   UNK A   0     -12.467  16.163  67.171  1.00  0.00     0.000 HD 
ENDROOT
BRANCH   1   5
HETATM    5  C   UNK A   0     -11.753  14.495  65.395  1.00  0.00    -0.354 C  
HETATM    6  O   UNK A   0     -12.340  14.379  64.181  1.00  0.00    -0.643 OA 
HETATM    7  H   UNK A   0     -12.667  13.504  64.010  1.00  0.00     0.000 HD 
BRANCH   5   8
HETATM    8  N   UNK A   0     -11.603  13.509  66.216  1.00  0.00    -0.331 NA 
HETATM    9  H   UNK A   0     -12.414  13.094  66.674  1.00  0.00     0.000 HD 
BRANCH   8  10
HETATM   10  C   UNK A   0     -10.292  13.004  66.479  1.00  0.00    -0.274 A  
HETATM   11  C   UNK A   0      -9.628  13.248  67.704  1.00  0.00    -0.213 A  
HETATM   12  I   UNK A   0     -10.724  14.339  69.260  1.00  0.00    -0.005 I  
HETATM   13  C   UNK A   0      -8.369  12.669  67.971  1.00  0.00    -0.175 A  
HETATM   14  I   UNK A   0     -10.633  11.985  63.596  1.00  0.00    -0.494 I  
HETATM   15  C   UNK A   0      -7.913  11.627  67.112  1.00  0.00    -0.163 A  
HETATM   16  I   UNK A   0      -6.473  10.224  67.968  1.00  0.00    -0.061 I  
HETATM   17  C   UNK A   0      -9.703  12.098  65.546  1.00  0.00    -0.181 A  
HETATM   18  C   UNK A   0      -8.562  11.328  65.877  1.00  0.00    -0.096 A  
BRANCH  13  19
HETATM   19  C   UNK A   0      -7.454  13.179  69.041  1.00  0.00     0.093 C  
HETATM   20  O   UNK A   0      -6.793  12.262  69.761  1.00  0.00    -0.348 OA 
HETATM   21  H   UNK A   0      -6.212  12.586  70.440  1.00  0.00     0.000 HD 
BRANCH  19  22
ATOM     22  N   SER A   1      -7.281  14.433  69.274  1.00  0.00    -0.194 NA 
ATOM     23  H   SER A   1      -8.065  15.034  69.526  1.00  0.00     0.000 HD 
BRANCH  22  24
ATOM     24  CA  SER A   1      -5.899  14.977  69.162  1.00  0.00    -0.097 C  
BRANCH  24  25
ATOM     25  C   SER A   1      -5.864  16.288  69.970  1.00  0.00    -0.185 C  
ATOM     26  H   SER A   1      -7.020  17.861  70.221  1.00  0.00     0.000 HD 
ATOM     27  O   SER A   1      -7.042  17.052  69.723  1.00  0.00     0.026 OA 
ENDBRANCH  24  25
BRANCH  24  28
ATOM     28  CB  SER A   1      -5.502  15.299  67.706  1.00  0.00    -0.084 C  
ATOM     29  OG  SER A   1      -6.516  15.013  66.745  1.00  0.00    -0.095 OA 
ATOM     30  HG  SER A   1      -6.271  15.211  65.849  1.00  0.00     0.000 HD 
ENDBRANCH  24  28
ENDBRANCH  22  24
ENDBRANCH  19  22
ENDBRANCH  13  19
BRANCH  18  31
HETATM   31  C   UNK A   0      -8.075  10.195  65.008  1.00  0.00    -0.149 C  
HETATM   32  H   UNK A   0      -6.647   9.737  63.760  1.00  0.00     0.000 HD 
HETATM   33  O   UNK A   0      -6.954  10.450  64.307  1.00  0.00    -0.090 OA 
BRANCH  31  34
ATOM     34  N   SER A   1      -8.686   9.068  64.864  1.00  0.00    -0.239 NA 
ATOM     35  H   SER A   1      -9.680   9.029  64.639  1.00  0.00     0.000 HD 
BRANCH  34  36
ATOM     36  CA  SER A   1      -7.878   7.823  65.040  1.00  0.00    -0.125 C  
BRANCH  36  37
ATOM     37  CB  SER A   1      -8.311   7.161  66.351  1.00  0.00    -0.125 C  
ATOM     38  HG  SER A   1     -10.002   6.622  67.208  1.00  0.00     0.000 HD 
ATOM     39  OG  SER A   1      -9.733   7.033  66.394  1.00  0.00    -0.156 OA 
ENDBRANCH  36  37
BRANCH  36  40
ATOM     40  C   SER A   1      -8.136   6.877  63.852  1.00  0.00     0.001 C  
ATOM     41  H   SER A   1      -8.395   7.034  61.903  1.00  0.00     0.000 HD 
ATOM     42  O   SER A   1      -8.236   7.617  62.636  1.00  0.00    -0.136 OA 
ENDBRANCH  36  40
ENDBRANCH  34  36
ENDBRANCH  31  34
ENDBRANCH  18  31
ENDBRANCH   8  10
ENDBRANCH   5   8
ENDBRANCH   1   5
TORSDOF 13
ENDMDL
MODEL      230
REMARK 921   NORMALIZED FREE ENERGY PREDICTED BY IDOCK:   -1.03 KCAL/MOL
REMARK 922        TOTAL FREE ENERGY PREDICTED BY IDOCK:   -2.75 KCAL/MOL
REMARK 923 INTER-LIGAND FREE ENERGY PREDICTED BY IDOCK:   -4.44 KCAL/MOL
REMARK 924 INTRA-LIGAND FREE ENERGY PREDICTED BY IDOCK:    1.69 KCAL/MOL
REMARK 927      BINDING AFFINITY PREDICTED BY RF-SCORE:    0.00 PKD
ROOT
HETATM    1  C   UNK A   0      -9.600  18.561  67.088  1.00  0.00    -0.295 C  
HETATM    2  O   UNK A   0     -10.015  19.355  68.214  1.00  0.00    -0.369 OA 
HETATM    3  C   UNK A   0      -8.091  18.590  66.996  1.00  0.00    -0.254 C  
HETATM    4  H   UNK A   0     -10.963  19.337  68.271  1.00  0.00     0.000 HD 
ENDROOT
BRANCH   1   5
HETATM    5  C   UNK A   0     -10.079  17.143  67.350  1.00  0.00    -0.301 C  
HETATM    6  O   UNK A   0     -10.998  16.723  66.450  1.00  0.00    -0.058 OA 
HETATM    7  H   UNK A   0     -11.298  15.836  66.613  1.00  0.00     0.000 HD 
BRANCH   5   8
HETATM    8  N   UNK A   0      -9.614  16.401  68.300  1.00  0.00    -0.216 NA 
HETATM    9  H   UNK A   0      -9.099  16.821  69.074  1.00  0.00     0.000 HD 
BRANCH   8  10
HETATM   10  C   UNK A   0      -9.826  14.989  68.259  1.00  0.00    -0.219 A  
HETATM   11  C   UNK A   0      -8.872  14.105  67.703  1.00  0.00    -0.194 A  
HETATM   12  I   UNK A   0      -6.977  14.958  67.000  1.00  0.00     1.333 I  
HETATM   13  C   UNK A   0      -9.067  12.708  67.750  1.00  0.00    -0.192 A  
HETATM   14  I   UNK A   0     -12.500  15.841  69.521  1.00  0.00     0.888 I  
HETATM   15  C   UNK A   0     -10.092  12.201  68.600  1.00  0.00    -0.151 A  
HETATM   16  I   UNK A   0      -9.844  10.146  69.302  1.00  0.00    -0.240 I  
HETATM   17  C   UNK A   0     -10.956  14.441  68.938  1.00  0.00    -0.255 A  
HETATM   18  C   UNK A   0     -11.065  13.054  69.202  1.00  0.00    -0.245 A  
BRANCH  13  19
HETATM   19  C   UNK A   0      -8.323  11.756  66.865  1.00  0.00    -0.170 C  
HETATM   20  O   UNK A   0      -7.502  10.884  67.466  1.00  0.00    -0.093 OA 
HETATM   21  H   UNK A   0      -7.030  10.281  66.904  1.00  0.00     0.000 HD 
BRANCH  19  22
ATOM     22  N   SER A   1      -8.455  11.744  65.585  1.00  0.00    -0.323 NA 
ATOM     23  H   SER A   1      -7.776  12.206  64.981  1.00  0.00     0.000 HD 
BRANCH  22  24
ATOM     24  CA  SER A   1      -9.633  11.032  65.013  1.00  0.00    -0.247 C  
BRANCH  24  25
ATOM     25  C   SER A   1      -9.107   9.739  64.364  1.00  0.00    -0.248 C  
ATOM     26  H   SER A   1      -8.375   8.014  64.967  1.00  0.00     0.000 HD 
ATOM     27  O   SER A   1      -8.700   8.812  65.368  1.00  0.00    -0.171 OA 
ENDBRANCH  24  25
BRANCH  24  28
ATOM     28  CB  SER A   1     -10.356  11.856  63.927  1.00  0.00    -0.389 C  
ATOM     29  OG  SER A   1      -9.749  11.787  62.638  1.00  0.00    -0.456 OA 
ATOM     30  HG  SER A   1     -10.195  12.294  61.970  1.00  0.00     0.000 HD 
ENDBRANCH  24  28
ENDBRANCH  22  24
ENDBRANCH  19  22
ENDBRANCH  13  19
BRANCH  18  31
HETATM   31  C   UNK A   0     -12.116  12.490  70.126  1.00  0.00    -0.292 C  
HETATM   32  H   UNK A   0     -13.655  11.291  70.131  1.00  0.00     0.000 HD 
HETATM   33  O   UNK A   0     -12.993  11.647  69.549  1.00  0.00     0.359 OA 
BRANCH  31  34
ATOM     34  N   SER A   1     -12.245  12.808  71.368  1.00  0.00    -0.175 NA 
ATOM     35  H   SER A   1     -11.896  12.201  72.110  1.00  0.00     0.000 HD 
BRANCH  34  36
ATOM     36  CA  SER A   1     -12.927  14.102  71.678  1.00  0.00    -0.347 C  
BRANCH  36  37
ATOM     37  CB  SER A   1     -14.348  13.785  72.150  1.00  0.00    -0.373 C  
ATOM     38  HG  SER A   1     -15.287  12.273  72.996  1.00  0.00     0.000 HD 
ATOM     39  OG  SER A   1     -14.405  12.470  72.704  1.00  0.00    -0.096 OA 
ENDBRANCH  36  37
BRANCH  36  40
ATOM     40  C   SER A   1     -12.147  14.836  72.785  1.00  0.00    -0.187 C  
ATOM     41  H   SER A   1     -12.411  16.406  73.948  1.00  0.00     0.000 HD 
ATOM     42  O   SER A   1     -12.892  15.954  73.265  1.00  0.00    -0.460 OA 
ENDBRANCH  36  40
ENDBRANCH  34  36
ENDBRANCH  31  34
ENDBRANCH  18  31
ENDBRANCH   8  10
ENDBRANCH   5   8
ENDBRANCH   1   5
TORSDOF 13
ENDMDL
MODEL      231
REMARK 921   NORMALIZED FREE ENERGY PREDICTED BY IDOCK:   -0.93 KCAL/MOL
REMARK 922        TOTAL FREE ENERGY PREDICTED BY IDOCK:   -2.58 KCAL/MOL
REMARK 923 INTER-LIGAND FREE ENERGY PREDICTED BY IDOCK:   -4.65 KCAL/MOL
REMARK 924 INTRA-LIGAND FREE ENERGY PREDICTED BY IDOCK:    2.08 KCAL/MOL
REMARK 927      BINDING AFFINITY PREDICTED BY RF-SCORE:    0.00 PKD
ROOT
HETATM    1  C   UNK A   0      -9.388   3.015  68.594  1.00  0.00    -0.173 C  
HETATM    2  O   UNK A   0      -8.188   2.377  68.122  1.00  0.00    -0.057 OA 
HETATM    3  C   UNK A   0      -9.423   2.941  70.104  1.00  0.00    -0.198 C  
HETATM    4  H   UNK A   0      -8.166   2.423  67.174  1.00  0.00     0.000 HD 
ENDROOT
BRANCH   1   5
HETATM    5  C   UNK A   0      -9.321   4.464  68.144  1.00  0.00    -0.146 C  
HETATM    6  O   UNK A   0     -10.344   4.811  67.329  1.00  0.00    -0.151 OA 
HETATM    7  H   UNK A   0     -10.302   5.718  67.047  1.00  0.00     0.000 HD 
BRANCH   5   8
HETATM    8  N   UNK A   0      -8.412   5.290  68.545  1.00  0.00    -0.092 NA 
HETATM    9  H   UNK A   0      -7.578   4.945  69.019  1.00  0.00     0.000 HD 
BRANCH   8  10
HETATM   10  C   UNK A   0      -8.583   6.691  68.320  1.00  0.00    -0.119 A  
HETATM   11  C   UNK A   0      -9.367   7.496  69.179  1.00  0.00    -0.147 A  
HETATM   12  I   UNK A   0     -10.230   6.550  70.960  1.00  0.00    -0.247 I  
HETATM   13  C   UNK A   0      -9.453   8.891  68.983  1.00  0.00    -0.156 A  
HETATM   14  I   UNK A   0      -6.864   6.014  65.859  1.00  0.00    -0.060 I  
HETATM   15  C   UNK A   0      -8.528   9.502  68.086  1.00  0.00    -0.119 A  
HETATM   16  I   UNK A   0      -8.108  11.620  68.417  1.00  0.00    -0.095 I  
HETATM   17  C   UNK A   0      -7.817   7.323  67.294  1.00  0.00    -0.111 A  
HETATM   18  C   UNK A   0      -7.701   8.732  67.214  1.00  0.00    -0.096 A  
BRANCH  13  19
HETATM   19  C   UNK A   0     -10.537   9.728  69.586  1.00  0.00    -0.239 C  
HETATM   20  O   UNK A   0     -11.540  10.098  68.778  1.00  0.00    -0.495 OA 
HETATM   21  H   UNK A   0     -12.229  10.629  69.162  1.00  0.00     0.000 HD 
BRANCH  19  22
ATOM     22  N   SER A   1     -10.540  10.082  70.824  1.00  0.00    -0.378 NA 
ATOM     23  H   SER A   1      -9.669  10.264  71.321  1.00  0.00     0.000 HD 
BRANCH  22  24
ATOM     24  CA  SER A   1     -11.857  10.215  71.507  1.00  0.00    -0.272 C  
BRANCH  24  25
ATOM     25  C   SER A   1     -12.126   8.884  72.233  1.00  0.00    -0.322 C  
ATOM     26  H   SER A   1     -13.305   7.325  72.000  1.00  0.00     0.000 HD 
ATOM     27  O   SER A   1     -13.139   8.146  71.552  1.00  0.00    -0.319 OA 
ENDBRANCH  24  25
BRANCH  24  28
ATOM     28  CB  SER A   1     -13.017  10.468  70.521  1.00  0.00    -0.219 C  
ATOM     29  OG  SER A   1     -13.356  11.843  70.355  1.00  0.00     0.576 OA 
ATOM     30  HG  SER A   1     -14.070  11.999  69.748  1.00  0.00     0.000 HD 
ENDBRANCH  24  28
ENDBRANCH  22  24
ENDBRANCH  19  22
ENDBRANCH  13  19
BRANCH  18  31
HETATM   31  C   UNK A   0      -6.707   9.408  66.302  1.00  0.00    -0.075 C  
HETATM   32  H   UNK A   0      -4.802   9.440  65.882  1.00  0.00     0.000 HD 
HETATM   33  O   UNK A   0      -5.428   9.015  66.456  1.00  0.00    -0.037 OA 
BRANCH  31  34
ATOM     34  N   SER A   1      -7.001  10.342  65.464  1.00  0.00    -0.167 NA 
ATOM     35  H   SER A   1      -7.175  11.298  65.776  1.00  0.00     0.000 HD 
BRANCH  34  36
ATOM     36  CA  SER A   1      -7.075   9.969  64.019  1.00  0.00    -0.126 C  
BRANCH  36  37
ATOM     37  CB  SER A   1      -6.007   8.906  63.750  1.00  0.00    -0.072 C  
ATOM     38  HG  SER A   1      -5.167   8.065  62.178  1.00  0.00     0.000 HD 
ATOM     39  OG  SER A   1      -5.830   8.726  62.345  1.00  0.00    -0.087 OA 
ENDBRANCH  36  37
BRANCH  36  40
ATOM     40  C   SER A   1      -8.477   9.410  63.709  1.00  0.00    -0.195 C  
ATOM     41  H   SER A   1     -10.350   9.918  64.057  1.00  0.00     0.000 HD 
ATOM     42  O   SER A   1      -9.486  10.262  64.248  1.00  0.00    -0.262 OA 
ENDBRANCH  36  40
ENDBRANCH  34  36
ENDBRANCH  31  34
ENDBRANCH  18  31
ENDBRANCH   8  10
ENDBRANCH   5   8
ENDBRANCH   1   5
TORSDOF 13
ENDMDL
MODEL      232
REMARK 921   NORMALIZED FREE ENERGY PREDICTED BY IDOCK:   -0.87 KCAL/MOL
REMARK 922        TOTAL FREE ENERGY PREDICTED BY IDOCK:   -2.46 KCAL/MOL
REMARK 923 INTER-LIGAND FREE ENERGY PREDICTED BY IDOCK:   -3.74 KCAL/MOL
REMARK 924 INTRA-LIGAND FREE ENERGY PREDICTED BY IDOCK:    1.28 KCAL/MOL
REMARK 927      BINDING AFFINITY PREDICTED BY RF-SCORE:    0.00 PKD
ROOT
HETATM    1  C   UNK A   0     -10.819  20.013  66.577  1.00  0.00    -0.099 C  
HETATM    2  O   UNK A   0     -12.154  19.898  67.100  1.00  0.00     1.437 OA 
HETATM    3  C   UNK A   0      -9.931  20.641  67.628  1.00  0.00    -0.388 C  
HETATM    4  H   UNK A   0     -12.711  19.504  66.440  1.00  0.00     0.000 HD 
ENDROOT
BRANCH   1   5
HETATM    5  C   UNK A   0     -10.344  18.603  66.268  1.00  0.00    -0.444 C  
HETATM    6  O   UNK A   0      -9.450  18.558  65.254  1.00  0.00     0.491 OA 
HETATM    7  H   UNK A   0      -9.153  17.677  65.060  1.00  0.00     0.000 HD 
BRANCH   5   8
HETATM    8  N   UNK A   0     -10.717  17.566  66.942  1.00  0.00    -0.199 NA 
HETATM    9  H   UNK A   0     -11.611  17.566  67.433  1.00  0.00     0.000 HD 
BRANCH   8  10
HETATM   10  C   UNK A   0      -9.867  16.419  66.997  1.00  0.00    -0.251 A  
HETATM   11  C   UNK A   0      -8.769  16.342  67.886  1.00  0.00    -0.179 A  
HETATM   12  I   UNK A   0      -8.469  18.006  69.284  1.00  0.00     0.784 I  
HETATM   13  C   UNK A   0      -7.995  15.166  67.980  1.00  0.00    -0.136 A  
HETATM   14  I   UNK A   0     -11.736  15.526  64.721  1.00  0.00     0.158 I  
HETATM   15  C   UNK A   0      -8.502  13.978  67.374  1.00  0.00    -0.200 A  
HETATM   16  I   UNK A   0      -7.792  12.086  68.204  1.00  0.00    -0.165 I  
HETATM   17  C   UNK A   0     -10.228  15.257  66.250  1.00  0.00    -0.287 A  
HETATM   18  C   UNK A   0      -9.620  14.001  66.488  1.00  0.00    -0.307 A  
BRANCH  13  19
HETATM   19  C   UNK A   0      -6.626  15.143  68.585  1.00  0.00    -0.090 C  
HETATM   20  O   UNK A   0      -6.549  14.908  69.902  1.00  0.00    -0.158 OA 
HETATM   21  H   UNK A   0      -5.680  14.894  70.286  1.00  0.00     0.000 HD 
BRANCH  19  22
ATOM     22  N   SER A   1      -5.555  15.324  67.896  1.00  0.00    -0.157 NA 
ATOM     23  H   SER A   1      -4.966  14.537  67.622  1.00  0.00     0.000 HD 
BRANCH  22  24
ATOM     24  CA  SER A   1      -5.201  16.719  67.512  1.00  0.00    -0.134 C  
BRANCH  24  25
ATOM     25  C   SER A   1      -5.233  17.564  68.799  1.00  0.00    -0.154 C  
ATOM     26  H   SER A   1      -5.166  19.472  69.276  1.00  0.00     0.000 HD 
ATOM     27  O   SER A   1      -5.146  18.951  68.482  1.00  0.00    -0.185 OA 
ENDBRANCH  24  25
BRANCH  24  28
ATOM     28  CB  SER A   1      -6.200  17.332  66.510  1.00  0.00    -0.221 C  
ATOM     29  OG  SER A   1      -5.869  18.653  66.086  1.00  0.00    -0.149 OA 
ATOM     30  HG  SER A   1      -6.485  19.031  65.468  1.00  0.00     0.000 HD 
ENDBRANCH  24  28
ENDBRANCH  22  24
ENDBRANCH  19  22
ENDBRANCH  13  19
BRANCH  18  31
HETATM   31  C   UNK A   0     -10.154  12.722  65.892  1.00  0.00    -0.276 C  
HETATM   32  H   UNK A   0     -11.516  11.357  66.185  1.00  0.00     0.000 HD 
HETATM   33  O   UNK A   0     -11.180  12.162  66.560  1.00  0.00    -0.293 OA 
BRANCH  31  34
ATOM     34  N   SER A   1      -9.659  12.134  64.856  1.00  0.00    -0.454 NA 
ATOM     35  H   SER A   1      -8.722  12.355  64.519  1.00  0.00     0.000 HD 
BRANCH  34  36
ATOM     36  CA  SER A   1     -10.513  11.116  64.172  1.00  0.00    -0.377 C  
BRANCH  36  37
ATOM     37  CB  SER A   1     -11.485  11.859  63.251  1.00  0.00    -0.284 C  
ATOM     38  HG  SER A   1     -13.272  12.678  63.394  1.00  0.00     0.000 HD 
ATOM     39  OG  SER A   1     -12.668  12.217  63.966  1.00  0.00    -0.635 OA 
ENDBRANCH  36  37
BRANCH  36  40
ATOM     40  C   SER A   1      -9.617  10.169  63.351  1.00  0.00    -0.181 C  
ATOM     41  H   SER A   1      -8.005  10.312  62.224  1.00  0.00     0.000 HD 
ATOM     42  O   SER A   1      -8.558  10.896  62.729  1.00  0.00    -0.212 OA 
ENDBRANCH  36  40
ENDBRANCH  34  36
ENDBRANCH  31  34
ENDBRANCH  18  31
ENDBRANCH   8  10
ENDBRANCH   5   8
ENDBRANCH   1   5
TORSDOF 13
ENDMDL
MODEL      233
REMARK 921   NORMALIZED FREE ENERGY PREDICTED BY IDOCK:   -0.85 KCAL/MOL
REMARK 922        TOTAL FREE ENERGY PREDICTED BY IDOCK:   -2.43 KCAL/MOL
REMARK 923 INTER-LIGAND FREE ENERGY PREDICTED BY IDOCK:   -4.98 KCAL/MOL
REMARK 924 INTRA-LIGAND FREE ENERGY PREDICTED BY IDOCK:    2.55 KCAL/MOL
REMARK 927      BINDING AFFINITY PREDICTED BY RF-SCORE:    0.00 PKD
ROOT
HETATM    1  C   UNK A   0      -6.077  14.509  71.482  1.00  0.00     0.164 C  
HETATM    2  O   UNK A   0      -7.029  14.414  72.557  1.00  0.00     0.868 OA 
HETATM    3  C   UNK A   0      -5.125  13.337  71.564  1.00  0.00    -0.175 C  
HETATM    4  H   UNK A   0      -7.626  15.151  72.506  1.00  0.00     0.000 HD 
ENDROOT
BRANCH   1   5
HETATM    5  C   UNK A   0      -6.868  14.449  70.187  1.00  0.00     0.012 C  
HETATM    6  O   UNK A   0      -8.134  14.909  70.320  1.00  0.00    -0.224 OA 
HETATM    7  H   UNK A   0      -8.629  14.871  69.510  1.00  0.00     0.000 HD 
BRANCH   5   8
HETATM    8  N   UNK A   0      -6.364  14.052  69.065  1.00  0.00    -0.091 NA 
HETATM    9  H   UNK A   0      -5.416  14.321  68.804  1.00  0.00     0.000 HD 
BRANCH   8  10
HETATM   10  C   UNK A   0      -7.145  13.232  68.193  1.00  0.00    -0.111 A  
HETATM   11  C   UNK A   0      -7.080  11.819  68.238  1.00  0.00    -0.079 A  
HETATM   12  I   UNK A   0      -5.822  10.902  69.783  1.00  0.00    -0.110 I  
HETATM   13  C   UNK A   0      -7.922  11.032  67.424  1.00  0.00    -0.119 A  
HETATM   14  I   UNK A   0      -7.991  15.997  67.142  1.00  0.00    -0.297 I  
HETATM   15  C   UNK A   0      -9.015  11.672  66.770  1.00  0.00    -0.189 A  
HETATM   16  I   UNK A   0     -10.716  10.402  66.252  1.00  0.00     0.181 I  
HETATM   17  C   UNK A   0      -8.131  13.849  67.366  1.00  0.00    -0.178 A  
HETATM   18  C   UNK A   0      -9.136  13.093  66.716  1.00  0.00    -0.214 A  
BRANCH  13  19
HETATM   19  C   UNK A   0      -7.649   9.589  67.133  1.00  0.00    -0.091 C  
HETATM   20  O   UNK A   0      -6.783   9.322  66.146  1.00  0.00    -0.072 OA 
HETATM   21  H   UNK A   0      -6.609   8.406  65.962  1.00  0.00     0.000 HD 
BRANCH  19  22
ATOM     22  N   SER A   1      -8.194   8.628  67.793  1.00  0.00    -0.117 NA 
ATOM     23  H   SER A   1      -8.297   7.700  67.383  1.00  0.00     0.000 HD 
BRANCH  22  24
ATOM     24  CA  SER A   1      -8.671   8.914  69.175  1.00  0.00    -0.132 C  
BRANCH  24  25
ATOM     25  C   SER A   1      -8.263   7.716  70.051  1.00  0.00    -0.125 C  
ATOM     26  H   SER A   1      -9.157   6.417  71.229  1.00  0.00     0.000 HD 
ATOM     27  O   SER A   1      -9.409   7.156  70.688  1.00  0.00    -0.158 OA 
ENDBRANCH  24  25
BRANCH  24  28
ATOM     28  CB  SER A   1     -10.204   9.069  69.256  1.00  0.00    -0.205 C  
ATOM     29  OG  SER A   1     -10.648   9.994  70.247  1.00  0.00    -0.275 OA 
ATOM     30  HG  SER A   1     -11.592  10.089  70.296  1.00  0.00     0.000 HD 
ENDBRANCH  24  28
ENDBRANCH  22  24
ENDBRANCH  19  22
ENDBRANCH  13  19
BRANCH  18  31
HETATM   31  C   UNK A   0     -10.324  13.739  66.047  1.00  0.00    -0.308 C  
HETATM   32  H   UNK A   0     -12.170  14.264  66.397  1.00  0.00     0.000 HD 
HETATM   33  O   UNK A   0     -11.422  13.858  66.818  1.00  0.00    -0.323 OA 
BRANCH  31  34
ATOM     34  N   SER A   1     -10.357  14.110  64.813  1.00  0.00    -0.525 NA 
ATOM     35  H   SER A   1      -9.524  14.467  64.344  1.00  0.00     0.000 HD 
BRANCH  34  36
ATOM     36  CA  SER A   1     -11.664  13.996  64.097  1.00  0.00    -0.315 C  
BRANCH  36  37
ATOM     37  CB  SER A   1     -12.417  12.797  64.678  1.00  0.00    -0.456 C  
ATOM     38  HG  SER A   1     -13.599  11.369  64.008  1.00  0.00     0.000 HD 
ATOM     39  OG  SER A   1     -13.131  12.113  63.648  1.00  0.00    -0.787 OA 
ENDBRANCH  36  37
BRANCH  36  40
ATOM     40  C   SER A   1     -12.473  15.289  64.306  1.00  0.00     0.004 C  
ATOM     41  H   SER A   1     -12.466  17.133  63.608  1.00  0.00     0.000 HD 
ATOM     42  O   SER A   1     -11.967  16.336  63.479  1.00  0.00    -0.530 OA 
ENDBRANCH  36  40
ENDBRANCH  34  36
ENDBRANCH  31  34
ENDBRANCH  18  31
ENDBRANCH   8  10
ENDBRANCH   5   8
ENDBRANCH   1   5
TORSDOF 13
ENDMDL
MODEL      234
REMARK 921   NORMALIZED FREE ENERGY PREDICTED BY IDOCK:   -0.67 KCAL/MOL
REMARK 922        TOTAL FREE ENERGY PREDICTED BY IDOCK:   -2.11 KCAL/MOL
REMARK 923 INTER-LIGAND FREE ENERGY PREDICTED BY IDOCK:   -5.27 KCAL/MOL
REMARK 924 INTRA-LIGAND FREE ENERGY PREDICTED BY IDOCK:    3.16 KCAL/MOL
REMARK 927      BINDING AFFINITY PREDICTED BY RF-SCORE:    0.00 PKD
ROOT
HETATM    1  C   UNK A   0      -5.486  13.543  71.681  1.00  0.00    -0.169 C  
HETATM    2  O   UNK A   0      -6.408  13.991  72.691  1.00  0.00    -0.176 OA 
HETATM    3  C   UNK A   0      -5.125  12.099  71.951  1.00  0.00     0.066 C  
HETATM    4  H   UNK A   0      -6.634  14.898  72.521  1.00  0.00     0.000 HD 
ENDROOT
BRANCH   1   5
HETATM    5  C   UNK A   0      -6.203  13.660  70.347  1.00  0.00    -0.053 C  
HETATM    6  O   UNK A   0      -7.330  14.405  70.418  1.00  0.00    -0.288 OA 
HETATM    7  H   UNK A   0      -7.779  14.479  69.584  1.00  0.00     0.000 HD 
BRANCH   5   8
HETATM    8  N   UNK A   0      -5.750  13.147  69.251  1.00  0.00    -0.079 NA 
HETATM    9  H   UNK A   0      -4.767  13.253  69.002  1.00  0.00     0.000 HD 
BRANCH   8  10
HETATM   10  C   UNK A   0      -6.637  12.430  68.390  1.00  0.00    -0.065 A  
HETATM   11  C   UNK A   0      -6.634  11.017  68.322  1.00  0.00    -0.058 A  
HETATM   12  I   UNK A   0      -5.295   9.932  69.679  1.00  0.00    -0.034 I  
HETATM   13  C   UNK A   0      -7.576  10.330  67.526  1.00  0.00    -0.094 A  
HETATM   14  I   UNK A   0      -7.441  15.301  67.628  1.00  0.00    -0.244 I  
HETATM   15  C   UNK A   0      -8.689  11.062  67.019  1.00  0.00    -0.141 A  
HETATM   16  I   UNK A   0     -10.483   9.904  66.556  1.00  0.00    -0.010 I  
HETATM   17  C   UNK A   0      -7.660  13.149  67.700  1.00  0.00    -0.171 A  
HETATM   18  C   UNK A   0      -8.748  12.486  67.084  1.00  0.00    -0.200 A  
BRANCH  13  19
HETATM   19  C   UNK A   0      -7.394   8.905  67.105  1.00  0.00    -0.084 C  
HETATM   20  O   UNK A   0      -6.576   8.151  67.853  1.00  0.00    -0.058 OA 
HETATM   21  H   UNK A   0      -6.460   7.247  67.586  1.00  0.00     0.000 HD 
BRANCH  19  22
ATOM     22  N   SER A   1      -7.992   8.395  66.086  1.00  0.00    -0.097 NA 
ATOM     23  H   SER A   1      -8.995   8.210  66.102  1.00  0.00     0.000 HD 
BRANCH  22  24
ATOM     24  CA  SER A   1      -7.172   8.085  64.881  1.00  0.00    -0.073 C  
BRANCH  24  25
ATOM     25  C   SER A   1      -7.205   6.557  64.695  1.00  0.00    -0.064 C  
ATOM     26  H   SER A   1      -6.064   5.177  63.877  1.00  0.00     0.000 HD 
ATOM     27  O   SER A   1      -6.044   6.120  63.993  1.00  0.00    -0.025 OA 
ENDBRANCH  24  25
BRANCH  24  28
ATOM     28  CB  SER A   1      -5.700   8.519  65.035  1.00  0.00    -0.048 C  
ATOM     29  OG  SER A   1      -5.492   9.927  64.945  1.00  0.00    -0.060 OA 
ATOM     30  HG  SER A   1      -4.585  10.194  65.039  1.00  0.00     0.000 HD 
ENDBRANCH  24  28
ENDBRANCH  22  24
ENDBRANCH  19  22
ENDBRANCH  13  19
BRANCH  18  31
HETATM   31  C   UNK A   0      -9.957  13.229  66.570  1.00  0.00    -0.280 C  
HETATM   32  H   UNK A   0     -11.702  13.884  67.148  1.00  0.00     0.000 HD 
HETATM   33  O   UNK A   0     -10.940  13.417  67.471  1.00  0.00    -0.259 OA 
BRANCH  31  34
ATOM     34  N   SER A   1     -10.112  13.621  65.352  1.00  0.00    -0.442 NA 
ATOM     35  H   SER A   1      -9.312  13.851  64.763  1.00  0.00     0.000 HD 
BRANCH  34  36
ATOM     36  CA  SER A   1     -11.512  13.726  64.838  1.00  0.00    -0.343 C  
BRANCH  36  37
ATOM     37  CB  SER A   1     -11.654  15.074  64.127  1.00  0.00    -0.050 C  
ATOM     38  HG  SER A   1     -10.706  16.802  64.102  1.00  0.00     0.000 HD 
ATOM     39  OG  SER A   1     -10.618  15.965  64.543  1.00  0.00    -0.449 OA 
ENDBRANCH  36  37
BRANCH  36  40
ATOM     40  C   SER A   1     -11.780  12.572  63.854  1.00  0.00    -0.452 C  
ATOM     41  H   SER A   1     -13.341  11.566  63.191  1.00  0.00     0.000 HD 
ATOM     42  O   SER A   1     -13.175  12.277  63.797  1.00  0.00    -0.771 OA 
ENDBRANCH  36  40
ENDBRANCH  34  36
ENDBRANCH  31  34
ENDBRANCH  18  31
ENDBRANCH   8  10
ENDBRANCH   5   8
ENDBRANCH   1   5
TORSDOF 13
ENDMDL
MODEL      235
REMARK 921   NORMALIZED FREE ENERGY PREDICTED BY IDOCK:   -0.63 KCAL/MOL
REMARK 922        TOTAL FREE ENERGY PREDICTED BY IDOCK:   -2.05 KCAL/MOL
REMARK 923 INTER-LIGAND FREE ENERGY PREDICTED BY IDOCK:   -4.84 KCAL/MOL
REMARK 924 INTRA-LIGAND FREE ENERGY PREDICTED BY IDOCK:    2.80 KCAL/MOL
REMARK 927      BINDING AFFINITY PREDICTED BY RF-SCORE:    0.00 PKD
ROOT
HETATM    1  C   UNK A   0      -9.135   9.814  63.558  1.00  0.00    -0.228 C  
HETATM    2  O   UNK A   0     -10.336  10.105  64.295  1.00  0.00    -0.417 OA 
HETATM    3  C   UNK A   0      -9.061  10.730  62.357  1.00  0.00    -0.332 C  
HETATM    4  H   UNK A   0     -10.382   9.530  65.049  1.00  0.00     0.000 HD 
ENDROOT
BRANCH   1   5
HETATM    5  C   UNK A   0      -7.968  10.085  64.493  1.00  0.00    -0.148 C  
HETATM    6  O   UNK A   0      -6.890  10.598  63.855  1.00  0.00    -0.348 OA 
HETATM    7  H   UNK A   0      -6.160  10.767  64.440  1.00  0.00     0.000 HD 
BRANCH   5   8
HETATM    8  N   UNK A   0      -8.024   9.896  65.770  1.00  0.00    -0.116 NA 
HETATM    9  H   UNK A   0      -7.780  10.651  66.411  1.00  0.00     0.000 HD 
BRANCH   8  10
HETATM   10  C   UNK A   0      -8.428   8.623  66.277  1.00  0.00    -0.125 A  
HETATM   11  C   UNK A   0      -7.763   7.428  65.915  1.00  0.00    -0.093 A  
HETATM   12  I   UNK A   0      -5.993   7.594  64.629  1.00  0.00    -0.037 I  
HETATM   13  C   UNK A   0      -8.128   6.194  66.494  1.00  0.00    -0.110 A  
HETATM   14  I   UNK A   0     -10.582  10.376  67.601  1.00  0.00    -0.357 I  
HETATM   15  C   UNK A   0      -8.979   6.214  67.638  1.00  0.00    -0.111 A  
HETATM   16  I   UNK A   0      -8.850   4.491  68.974  1.00  0.00    -0.166 I  
HETATM   17  C   UNK A   0      -9.426   8.573  67.296  1.00  0.00    -0.157 A  
HETATM   18  C   UNK A   0      -9.656   7.400  68.055  1.00  0.00    -0.152 A  
BRANCH  13  19
HETATM   19  C   UNK A   0      -7.753   4.875  65.893  1.00  0.00    -0.091 C  
HETATM   20  O   UNK A   0      -6.541   4.392  66.199  1.00  0.00    -0.040 OA 
HETATM   21  H   UNK A   0      -6.303   3.555  65.817  1.00  0.00     0.000 HD 
BRANCH  19  22
ATOM     22  N   SER A   1      -8.541   4.207  65.126  1.00  0.00    -0.114 NA 
ATOM     23  H   SER A   1      -9.456   3.897  65.453  1.00  0.00     0.000 HD 
BRANCH  22  24
ATOM     24  CA  SER A   1      -8.074   3.902  63.745  1.00  0.00    -0.089 C  
BRANCH  24  25
ATOM     25  C   SER A   1      -8.744   2.581  63.324  1.00  0.00    -0.085 C  
ATOM     26  H   SER A   1     -10.067   1.330  64.072  1.00  0.00     0.000 HD 
ATOM     27  O   SER A   1      -9.654   2.145  64.332  1.00  0.00    -0.138 OA 
ENDBRANCH  24  25
BRANCH  24  28
ATOM     28  CB  SER A   1      -6.545   3.714  63.660  1.00  0.00    -0.034 C  
ATOM     29  OG  SER A   1      -6.068   3.370  62.361  1.00  0.00    -0.013 OA 
ATOM     30  HG  SER A   1      -5.127   3.254  62.309  1.00  0.00     0.000 HD 
ENDBRANCH  24  28
ENDBRANCH  22  24
ENDBRANCH  19  22
ENDBRANCH  13  19
BRANCH  18  31
HETATM   31  C   UNK A   0     -10.521   7.396  69.290  1.00  0.00    -0.220 C  
HETATM   32  H   UNK A   0     -12.089   6.517  70.049  1.00  0.00     0.000 HD 
HETATM   33  O   UNK A   0     -11.544   6.520  69.271  1.00  0.00    -0.309 OA 
BRANCH  31  34
ATOM     34  N   SER A   1     -10.373   8.195  70.291  1.00  0.00    -0.205 NA 
ATOM     35  H   SER A   1     -10.877   9.080  70.342  1.00  0.00     0.000 HD 
BRANCH  34  36
ATOM     36  CA  SER A   1      -9.433   7.772  71.373  1.00  0.00    -0.148 C  
BRANCH  36  37
ATOM     37  CB  SER A   1      -9.561   6.255  71.543  1.00  0.00    -0.155 C  
ATOM     38  HG  SER A   1      -9.078   4.907  72.897  1.00  0.00     0.000 HD 
ATOM     39  OG  SER A   1      -8.999   5.848  72.791  1.00  0.00    -0.125 OA 
ENDBRANCH  36  37
BRANCH  36  40
ATOM     40  C   SER A   1      -7.993   8.145  70.972  1.00  0.00    -0.095 C  
ATOM     41  H   SER A   1      -7.114   9.362  69.693  1.00  0.00     0.000 HD 
ATOM     42  O   SER A   1      -8.002   9.132  69.941  1.00  0.00    -0.085 OA 
ENDBRANCH  36  40
ENDBRANCH  34  36
ENDBRANCH  31  34
ENDBRANCH  18  31
ENDBRANCH   8  10
ENDBRANCH   5   8
ENDBRANCH   1   5
TORSDOF 13
ENDMDL
MODEL      236
REMARK 921   NORMALIZED FREE ENERGY PREDICTED BY IDOCK:   -0.59 KCAL/MOL
REMARK 922        TOTAL FREE ENERGY PREDICTED BY IDOCK:   -1.97 KCAL/MOL
REMARK 923 INTER-LIGAND FREE ENERGY PREDICTED BY IDOCK:   -3.90 KCAL/MOL
REMARK 924 INTRA-LIGAND FREE ENERGY PREDICTED BY IDOCK:    1.93 KCAL/MOL
REMARK 927      BINDING AFFINITY PREDICTED BY RF-SCORE:    0.00 PKD
ROOT
HETATM    1  C   UNK A   0      -9.488  10.079  69.564  1.00  0.00    -0.226 C  
HETATM    2  O   UNK A   0      -8.960   9.224  70.593  1.00  0.00    -0.218 OA 
HETATM    3  C   UNK A   0      -8.464  10.210  68.460  1.00  0.00    -0.121 C  
HETATM    4  H   UNK A   0      -9.604   9.142  71.287  1.00  0.00     0.000 HD 
ENDROOT
BRANCH   1   5
HETATM    5  C   UNK A   0     -10.744   9.408  69.034  1.00  0.00    -0.187 C  
HETATM    6  O   UNK A   0     -11.840   9.673  69.782  1.00  0.00    -0.455 OA 
HETATM    7  H   UNK A   0     -12.625   9.253  69.451  1.00  0.00     0.000 HD 
BRANCH   5   8
HETATM    8  N   UNK A   0     -10.768   8.702  67.952  1.00  0.00    -0.460 NA 
HETATM    9  H   UNK A   0     -11.386   8.961  67.184  1.00  0.00     0.000 HD 
BRANCH   8  10
HETATM   10  C   UNK A   0      -9.923   7.555  67.840  1.00  0.00    -0.165 A  
HETATM   11  C   UNK A   0      -9.944   6.514  68.797  1.00  0.00    -0.143 A  
HETATM   12  I   UNK A   0     -11.412   6.648  70.421  1.00  0.00    -0.343 I  
HETATM   13  C   UNK A   0      -9.160   5.353  68.619  1.00  0.00    -0.130 A  
HETATM   14  I   UNK A   0      -8.954   9.113  65.369  1.00  0.00    -0.190 I  
HETATM   15  C   UNK A   0      -8.569   5.131  67.341  1.00  0.00    -0.104 A  
HETATM   16  I   UNK A   0      -8.116   3.055  66.829  1.00  0.00    -0.088 I  
HETATM   17  C   UNK A   0      -9.153   7.380  66.650  1.00  0.00    -0.154 A  
HETATM   18  C   UNK A   0      -8.542   6.143  66.335  1.00  0.00    -0.131 A  
BRANCH  13  19
HETATM   19  C   UNK A   0      -8.836   4.416  69.741  1.00  0.00    -0.084 C  
HETATM   20  O   UNK A   0      -9.871   3.902  70.420  1.00  0.00    -0.196 OA 
HETATM   21  H   UNK A   0      -9.665   3.307  71.132  1.00  0.00     0.000 HD 
BRANCH  19  22
ATOM     22  N   SER A   1      -7.631   4.089  70.052  1.00  0.00    -0.048 NA 
ATOM     23  H   SER A   1      -7.222   3.213  69.727  1.00  0.00     0.000 HD 
BRANCH  22  24
ATOM     24  CA  SER A   1      -6.852   5.031  70.904  1.00  0.00    -0.044 C  
BRANCH  24  25
ATOM     25  C   SER A   1      -7.866   5.981  71.569  1.00  0.00    -0.106 C  
ATOM     26  H   SER A   1      -7.834   7.747  72.437  1.00  0.00     0.000 HD 
ATOM     27  O   SER A   1      -7.209   7.161  72.026  1.00  0.00    -0.074 OA 
ENDBRANCH  24  25
BRANCH  24  28
ATOM     28  CB  SER A   1      -5.856   5.883  70.091  1.00  0.00    -0.024 C  
ATOM     29  OG  SER A   1      -6.459   6.939  69.345  1.00  0.00    -0.041 OA 
ATOM     30  HG  SER A   1      -5.845   7.463  68.845  1.00  0.00     0.000 HD 
ENDBRANCH  24  28
ENDBRANCH  22  24
ENDBRANCH  19  22
ENDBRANCH  13  19
BRANCH  18  31
HETATM   31  C   UNK A   0      -7.941   5.863  64.980  1.00  0.00    -0.123 C  
HETATM   32  H   UNK A   0      -8.433   5.695  63.100  1.00  0.00     0.000 HD 
HETATM   33  O   UNK A   0      -8.812   5.871  63.953  1.00  0.00     0.204 OA 
BRANCH  31  34
ATOM     34  N   SER A   1      -6.702   5.570  64.775  1.00  0.00    -0.043 NA 
ATOM     35  H   SER A   1      -6.372   4.606  64.814  1.00  0.00     0.000 HD 
BRANCH  34  36
ATOM     36  CA  SER A   1      -5.770   6.701  64.480  1.00  0.00    -0.031 C  
BRANCH  36  37
ATOM     37  CB  SER A   1      -6.372   7.522  63.337  1.00  0.00    -0.054 C  
ATOM     38  HG  SER A   1      -6.197   9.350  62.622  1.00  0.00     0.000 HD 
ATOM     39  OG  SER A   1      -5.823   8.840  63.331  1.00  0.00    -0.075 OA 
ENDBRANCH  36  37
BRANCH  36  40
ATOM     40  C   SER A   1      -5.611   7.572  65.739  1.00  0.00    -0.033 C  
ATOM     41  H   SER A   1      -5.031   7.328  67.608  1.00  0.00     0.000 HD 
ATOM     42  O   SER A   1      -5.129   6.791  66.831  1.00  0.00    -0.011 OA 
ENDBRANCH  36  40
ENDBRANCH  34  36
ENDBRANCH  31  34
ENDBRANCH  18  31
ENDBRANCH   8  10
ENDBRANCH   5   8
ENDBRANCH   1   5
TORSDOF 13
ENDMDL
MODEL      237
REMARK 921   NORMALIZED FREE ENERGY PREDICTED BY IDOCK:   -0.48 KCAL/MOL
REMARK 922        TOTAL FREE ENERGY PREDICTED BY IDOCK:   -1.78 KCAL/MOL
REMARK 923 INTER-LIGAND FREE ENERGY PREDICTED BY IDOCK:   -4.61 KCAL/MOL
REMARK 924 INTRA-LIGAND FREE ENERGY PREDICTED BY IDOCK:    2.83 KCAL/MOL
REMARK 927      BINDING AFFINITY PREDICTED BY RF-SCORE:    0.00 PKD
ROOT
HETATM    1  C   UNK A   0     -12.433  13.289  70.953  1.00  0.00    -0.342 C  
HETATM    2  O   UNK A   0     -13.561  12.858  71.736  1.00  0.00    -0.346 OA 
HETATM    3  C   UNK A   0     -12.030  12.172  70.016  1.00  0.00    -0.391 C  
HETATM    4  H   UNK A   0     -13.813  13.559  72.325  1.00  0.00     0.000 HD 
ENDROOT
BRANCH   1   5
HETATM    5  C   UNK A   0     -12.888  14.499  70.156  1.00  0.00    -0.119 C  
HETATM    6  O   UNK A   0     -13.451  15.458  70.927  1.00  0.00    -0.632 OA 
HETATM    7  H   UNK A   0     -13.736  16.215  70.429  1.00  0.00     0.000 HD 
BRANCH   5   8
HETATM    8  N   UNK A   0     -12.706  14.619  68.882  1.00  0.00    -0.263 NA 
HETATM    9  H   UNK A   0     -13.506  14.667  68.251  1.00  0.00     0.000 HD 
BRANCH   8  10
HETATM   10  C   UNK A   0     -11.376  14.684  68.364  1.00  0.00    -0.292 A  
HETATM   11  C   UNK A   0     -10.361  15.437  69.000  1.00  0.00    -0.243 A  
HETATM   12  I   UNK A   0     -10.857  16.422  70.896  1.00  0.00     1.042 I  
HETATM   13  C   UNK A   0      -9.036  15.418  68.515  1.00  0.00    -0.192 A  
HETATM   14  I   UNK A   0     -12.660  12.938  66.180  1.00  0.00     1.052 I  
HETATM   15  C   UNK A   0      -8.686  14.424  67.554  1.00  0.00    -0.197 A  
HETATM   16  I   UNK A   0      -6.575  13.867  67.459  1.00  0.00     0.417 I  
HETATM   17  C   UNK A   0     -11.022  13.842  67.266  1.00  0.00    -0.290 A  
HETATM   18  C   UNK A   0      -9.672  13.625  66.902  1.00  0.00    -0.262 A  
BRANCH  13  19
HETATM   19  C   UNK A   0      -8.025  16.460  68.880  1.00  0.00    -0.236 C  
HETATM   20  O   UNK A   0      -7.066  16.098  69.744  1.00  0.00    -0.151 OA 
HETATM   21  H   UNK A   0      -6.424  16.760  69.975  1.00  0.00     0.000 HD 
BRANCH  19  22
ATOM     22  N   SER A   1      -8.043  17.652  68.395  1.00  0.00    -0.277 NA 
ATOM     23  H   SER A   1      -8.872  18.240  68.474  1.00  0.00     0.000 HD 
BRANCH  22  24
ATOM     24  CA  SER A   1      -6.813  18.145  67.714  1.00  0.00    -0.202 C  
BRANCH  24  25
ATOM     25  C   SER A   1      -6.439  19.485  68.373  1.00  0.00    -0.248 C  
ATOM     26  H   SER A   1      -6.409  21.386  67.864  1.00  0.00     0.000 HD 
ATOM     27  O   SER A   1      -6.640  20.559  67.458  1.00  0.00    -0.237 OA 
ENDBRANCH  24  25
BRANCH  24  28
ATOM     28  CB  SER A   1      -7.026  18.394  66.206  1.00  0.00    -0.243 C  
ATOM     29  OG  SER A   1      -8.356  18.775  65.858  1.00  0.00    -0.490 OA 
ATOM     30  HG  SER A   1      -8.487  18.928  64.930  1.00  0.00     0.000 HD 
ENDBRANCH  24  28
ENDBRANCH  22  24
ENDBRANCH  19  22
ENDBRANCH  13  19
BRANCH  18  31
HETATM   31  C   UNK A   0      -9.265  12.557  65.916  1.00  0.00     0.054 C  
HETATM   32  H   UNK A   0      -8.456  10.783  65.840  1.00  0.00     0.000 HD 
HETATM   33  O   UNK A   0      -8.712  11.456  66.460  1.00  0.00    -0.172 OA 
BRANCH  31  34
ATOM     34  N   SER A   1      -9.362  12.667  64.636  1.00  0.00    -0.149 NA 
ATOM     35  H   SER A   1      -8.987  13.478  64.143  1.00  0.00     0.000 HD 
BRANCH  34  36
ATOM     36  CA  SER A   1     -10.047  11.559  63.902  1.00  0.00    -0.345 C  
BRANCH  36  37
ATOM     37  CB  SER A   1     -11.224  12.161  63.129  1.00  0.00    -0.180 C  
ATOM     38  HG  SER A   1     -13.120  11.727  62.817  1.00  0.00     0.000 HD 
ATOM     39  OG  SER A   1     -12.390  11.354  63.296  1.00  0.00    -0.199 OA 
ENDBRANCH  36  37
BRANCH  36  40
ATOM     40  C   SER A   1      -9.050  10.901  62.929  1.00  0.00    -0.314 C  
ATOM     41  H   SER A   1      -7.344   9.919  63.046  1.00  0.00     0.000 HD 
ATOM     42  O   SER A   1      -7.958  10.325  63.645  1.00  0.00    -0.160 OA 
ENDBRANCH  36  40
ENDBRANCH  34  36
ENDBRANCH  31  34
ENDBRANCH  18  31
ENDBRANCH   8  10
ENDBRANCH   5   8
ENDBRANCH   1   5
TORSDOF 13
ENDMDL
MODEL      238
REMARK 921   NORMALIZED FREE ENERGY PREDICTED BY IDOCK:   -0.46 KCAL/MOL
REMARK 922        TOTAL FREE ENERGY PREDICTED BY IDOCK:   -1.75 KCAL/MOL
REMARK 923 INTER-LIGAND FREE ENERGY PREDICTED BY IDOCK:   -4.73 KCAL/MOL
REMARK 924 INTRA-LIGAND FREE ENERGY PREDICTED BY IDOCK:    2.98 KCAL/MOL
REMARK 927      BINDING AFFINITY PREDICTED BY RF-SCORE:    0.00 PKD
ROOT
HETATM    1  C   UNK A   0     -10.458   9.715  69.183  1.00  0.00    -0.214 C  
HETATM    2  O   UNK A   0      -9.107   9.301  69.454  1.00  0.00    -0.141 OA 
HETATM    3  C   UNK A   0     -10.707   9.634  67.693  1.00  0.00    -0.324 C  
HETATM    4  H   UNK A   0      -8.950   9.353  70.389  1.00  0.00     0.000 HD 
ENDROOT
BRANCH   1   5
HETATM    5  C   UNK A   0     -11.370   8.748  69.918  1.00  0.00     0.039 C  
HETATM    6  O   UNK A   0     -12.305   9.373  70.669  1.00  0.00    -0.470 OA 
HETATM    7  H   UNK A   0     -12.876   8.768  71.129  1.00  0.00     0.000 HD 
BRANCH   5   8
HETATM    8  N   UNK A   0     -11.291   7.464  69.792  1.00  0.00    -0.469 NA 
HETATM    9  H   UNK A   0     -12.136   6.909  69.654  1.00  0.00     0.000 HD 
BRANCH   8  10
HETATM   10  C   UNK A   0     -10.014   6.827  69.848  1.00  0.00    -0.172 A  
HETATM   11  C   UNK A   0      -9.260   6.766  71.044  1.00  0.00    -0.156 A  
HETATM   12  I   UNK A   0     -10.169   7.582  72.866  1.00  0.00    -0.426 I  
HETATM   13  C   UNK A   0      -8.039   6.059  71.094  1.00  0.00    -0.121 A  
HETATM   14  I   UNK A   0     -10.606   6.454  66.852  1.00  0.00    -0.269 I  
HETATM   15  C   UNK A   0      -7.722   5.189  70.010  1.00  0.00    -0.067 A  
HETATM   16  I   UNK A   0      -6.355   3.544  70.454  1.00  0.00    -0.029 I  
HETATM   17  C   UNK A   0      -9.556   6.097  68.710  1.00  0.00    -0.125 A  
HETATM   18  C   UNK A   0      -8.466   5.199  68.792  1.00  0.00    -0.087 A  
BRANCH  13  19
HETATM   19  C   UNK A   0      -7.024   6.272  72.174  1.00  0.00    -0.074 C  
HETATM   20  O   UNK A   0      -7.336   5.820  73.396  1.00  0.00    -0.089 OA 
HETATM   21  H   UNK A   0      -6.691   5.955  74.081  1.00  0.00     0.000 HD 
BRANCH  19  22
ATOM     22  N   SER A   1      -5.892   6.847  71.965  1.00  0.00    -0.037 NA 
ATOM     23  H   SER A   1      -5.121   6.345  71.524  1.00  0.00     0.000 HD 
BRANCH  22  24
ATOM     24  CA  SER A   1      -5.743   8.267  72.388  1.00  0.00    -0.049 C  
BRANCH  24  25
ATOM     25  C   SER A   1      -6.716   8.493  73.560  1.00  0.00    -0.058 C  
ATOM     26  H   SER A   1      -6.773   9.579  75.201  1.00  0.00     0.000 HD 
ATOM     27  O   SER A   1      -6.173   9.440  74.477  1.00  0.00    -0.347 OA 
ENDBRANCH  24  25
BRANCH  24  28
ATOM     28  CB  SER A   1      -6.103   9.263  71.266  1.00  0.00    -0.077 C  
ATOM     29  OG  SER A   1      -5.876  10.631  71.603  1.00  0.00    -0.320 OA 
ATOM     30  HG  SER A   1      -6.098  11.244  70.912  1.00  0.00     0.000 HD 
ENDBRANCH  24  28
ENDBRANCH  22  24
ENDBRANCH  19  22
ENDBRANCH  13  19
BRANCH  18  31
HETATM   31  C   UNK A   0      -8.126   4.240  67.678  1.00  0.00    -0.095 C  
HETATM   32  H   UNK A   0      -8.203   2.344  67.223  1.00  0.00     0.000 HD 
HETATM   33  O   UNK A   0      -8.417   2.948  67.924  1.00  0.00    -0.078 OA 
BRANCH  31  34
ATOM     34  N   SER A   1      -7.543   4.573  66.577  1.00  0.00    -0.089 NA 
ATOM     35  H   SER A   1      -7.079   5.476  66.475  1.00  0.00     0.000 HD 
BRANCH  34  36
ATOM     36  CA  SER A   1      -7.574   3.584  65.457  1.00  0.00    -0.078 C  
BRANCH  36  37
ATOM     37  CB  SER A   1      -6.402   2.617  65.649  1.00  0.00    -0.024 C  
ATOM     38  HG  SER A   1      -4.523   2.491  65.068  1.00  0.00     0.000 HD 
ATOM     39  OG  SER A   1      -5.251   3.091  64.950  1.00  0.00    -0.008 OA 
ENDBRANCH  36  37
BRANCH  36  40
ATOM     40  C   SER A   1      -8.910   2.818  65.492  1.00  0.00    -0.132 C  
ATOM     41  H   SER A   1     -10.380   2.408  64.242  1.00  0.00     0.000 HD 
ATOM     42  O   SER A   1      -9.556   2.880  64.221  1.00  0.00    -0.145 OA 
ENDBRANCH  36  40
ENDBRANCH  34  36
ENDBRANCH  31  34
ENDBRANCH  18  31
ENDBRANCH   8  10
ENDBRANCH   5   8
ENDBRANCH   1   5
TORSDOF 13
ENDMDL
MODEL      239
REMARK 921   NORMALIZED FREE ENERGY PREDICTED BY IDOCK:   -0.32 KCAL/MOL
REMARK 922        TOTAL FREE ENERGY PREDICTED BY IDOCK:   -1.50 KCAL/MOL
REMARK 923 INTER-LIGAND FREE ENERGY PREDICTED BY IDOCK:   -3.18 KCAL/MOL
REMARK 924 INTRA-LIGAND FREE ENERGY PREDICTED BY IDOCK:    1.68 KCAL/MOL
REMARK 927      BINDING AFFINITY PREDICTED BY RF-SCORE:    0.00 PKD
ROOT
HETATM    1  C   UNK A   0     -10.540  10.887  66.019  1.00  0.00    -0.189 C  
HETATM    2  O   UNK A   0     -10.563  11.184  64.612  1.00  0.00    -0.325 OA 
HETATM    3  C   UNK A   0     -10.623   9.388  66.206  1.00  0.00     0.028 C  
HETATM    4  H   UNK A   0     -10.511  12.126  64.495  1.00  0.00     0.000 HD 
ENDROOT
BRANCH   1   5
HETATM    5  C   UNK A   0      -9.219  11.407  66.558  1.00  0.00    -0.189 C  
HETATM    6  O   UNK A   0      -9.371  12.430  67.430  1.00  0.00    -0.173 OA 
HETATM    7  H   UNK A   0      -8.545  12.756  67.767  1.00  0.00     0.000 HD 
BRANCH   5   8
HETATM    8  N   UNK A   0      -8.075  10.888  66.255  1.00  0.00    -0.162 NA 
HETATM    9  H   UNK A   0      -7.374  11.443  65.764  1.00  0.00     0.000 HD 
BRANCH   8  10
HETATM   10  C   UNK A   0      -7.799   9.532  66.611  1.00  0.00    -0.101 A  
HETATM   11  C   UNK A   0      -7.508   8.548  65.638  1.00  0.00    -0.085 A  
HETATM   12  I   UNK A   0      -7.370   9.190  63.545  1.00  0.00    -0.109 I  
HETATM   13  C   UNK A   0      -7.157   7.235  66.020  1.00  0.00    -0.066 A  
HETATM   14  I   UNK A   0      -8.379  10.659  69.415  1.00  0.00     0.234 I  
HETATM   15  C   UNK A   0      -6.837   6.997  67.389  1.00  0.00    -0.073 A  
HETATM   16  I   UNK A   0      -5.537   5.289  67.799  1.00  0.00    -0.014 I  
HETATM   17  C   UNK A   0      -7.659   9.197  67.992  1.00  0.00    -0.085 A  
HETATM   18  C   UNK A   0      -7.093   7.967  68.404  1.00  0.00    -0.081 A  
BRANCH  13  19
HETATM   19  C   UNK A   0      -7.218   6.074  65.078  1.00  0.00    -0.066 C  
HETATM   20  O   UNK A   0      -6.491   6.164  63.955  1.00  0.00    -0.029 OA 
HETATM   21  H   UNK A   0      -6.530   5.427  63.357  1.00  0.00     0.000 HD 
BRANCH  19  22
ATOM     22  N   SER A   1      -7.917   5.019  65.313  1.00  0.00    -0.099 NA 
ATOM     23  H   SER A   1      -7.579   4.294  65.946  1.00  0.00     0.000 HD 
BRANCH  22  24
ATOM     24  CA  SER A   1      -9.234   4.889  64.630  1.00  0.00    -0.025 C  
BRANCH  24  25
ATOM     25  C   SER A   1     -10.239   4.383  65.681  1.00  0.00    -0.238 C  
ATOM     26  H   SER A   1     -10.478   4.512  67.630  1.00  0.00     0.000 HD 
ATOM     27  O   SER A   1      -9.858   4.825  66.982  1.00  0.00    -0.170 OA 
ENDBRANCH  24  25
BRANCH  24  28
ATOM     28  CB  SER A   1      -9.205   3.877  63.466  1.00  0.00    -0.125 C  
ATOM     29  OG  SER A   1     -10.471   3.660  62.846  1.00  0.00    -0.182 OA 
ATOM     30  HG  SER A   1     -10.453   3.037  62.129  1.00  0.00     0.000 HD 
ENDBRANCH  24  28
ENDBRANCH  22  24
ENDBRANCH  19  22
ENDBRANCH  13  19
BRANCH  18  31
HETATM   31  C   UNK A   0      -6.709   7.698  69.838  1.00  0.00    -0.046 C  
HETATM   32  H   UNK A   0      -5.218   7.901  71.080  1.00  0.00     0.000 HD 
HETATM   33  O   UNK A   0      -5.460   8.070  70.177  1.00  0.00    -0.023 OA 
BRANCH  31  34
ATOM     34  N   SER A   1      -7.462   7.101  70.698  1.00  0.00    -0.079 NA 
ATOM     35  H   SER A   1      -8.393   6.768  70.446  1.00  0.00     0.000 HD 
BRANCH  34  36
ATOM     36  CA  SER A   1      -6.916   6.917  72.077  1.00  0.00    -0.069 C  
BRANCH  36  37
ATOM     37  CB  SER A   1      -7.715   7.815  73.025  1.00  0.00    -0.117 C  
ATOM     38  HG  SER A   1      -7.411   9.473  74.045  1.00  0.00     0.000 HD 
ATOM     39  OG  SER A   1      -6.915   8.916  73.456  1.00  0.00    -0.351 OA 
ENDBRANCH  36  37
BRANCH  36  40
ATOM     40  C   SER A   1      -7.062   5.440  72.489  1.00  0.00    -0.088 C  
ATOM     41  H   SER A   1      -7.612   4.429  74.090  1.00  0.00     0.000 HD 
ATOM     42  O   SER A   1      -7.522   5.340  73.836  1.00  0.00    -0.085 OA 
ENDBRANCH  36  40
ENDBRANCH  34  36
ENDBRANCH  31  34
ENDBRANCH  18  31
ENDBRANCH   8  10
ENDBRANCH   5   8
ENDBRANCH   1   5
TORSDOF 13
ENDMDL
MODEL      240
REMARK 921   NORMALIZED FREE ENERGY PREDICTED BY IDOCK:   -0.30 KCAL/MOL
REMARK 922        TOTAL FREE ENERGY PREDICTED BY IDOCK:   -1.46 KCAL/MOL
REMARK 923 INTER-LIGAND FREE ENERGY PREDICTED BY IDOCK:   -4.82 KCAL/MOL
REMARK 924 INTRA-LIGAND FREE ENERGY PREDICTED BY IDOCK:    3.37 KCAL/MOL
REMARK 927      BINDING AFFINITY PREDICTED BY RF-SCORE:    0.00 PKD
ROOT
HETATM    1  C   UNK A   0      -5.585  13.928  72.046  1.00  0.00    -0.166 C  
HETATM    2  O   UNK A   0      -6.531  14.299  73.064  1.00  0.00     0.127 OA 
HETATM    3  C   UNK A   0      -5.126  12.509  72.295  1.00  0.00     0.136 C  
HETATM    4  H   UNK A   0      -6.819  15.190  72.908  1.00  0.00     0.000 HD 
ENDROOT
BRANCH   1   5
HETATM    5  C   UNK A   0      -6.315  14.014  70.716  1.00  0.00     0.018 C  
HETATM    6  O   UNK A   0      -7.296  14.946  70.712  1.00  0.00     0.091 OA 
HETATM    7  H   UNK A   0      -7.753  15.000  69.881  1.00  0.00     0.000 HD 
BRANCH   5   8
HETATM    8  N   UNK A   0      -5.993  13.308  69.683  1.00  0.00    -0.110 NA 
HETATM    9  H   UNK A   0      -5.017  13.230  69.398  1.00  0.00     0.000 HD 
BRANCH   8  10
HETATM   10  C   UNK A   0      -7.014  12.638  68.941  1.00  0.00    -0.086 A  
HETATM   11  C   UNK A   0      -7.323  11.274  69.158  1.00  0.00    -0.104 A  
HETATM   12  I   UNK A   0      -6.262  10.229  70.768  1.00  0.00     0.181 I  
HETATM   13  C   UNK A   0      -8.391  10.658  68.471  1.00  0.00    -0.130 A  
HETATM   14  I   UNK A   0      -7.160  15.394  67.580  1.00  0.00    -0.220 I  
HETATM   15  C   UNK A   0      -9.313  11.493  67.774  1.00  0.00    -0.168 A  
HETATM   16  I   UNK A   0     -11.318  10.680  67.465  1.00  0.00     0.403 I  
HETATM   17  C   UNK A   0      -7.849  13.402  68.072  1.00  0.00    -0.148 A  
HETATM   18  C   UNK A   0      -9.056  12.878  67.549  1.00  0.00    -0.191 A  
BRANCH  13  19
HETATM   19  C   UNK A   0      -8.528   9.172  68.354  1.00  0.00    -0.128 C  
HETATM   20  O   UNK A   0      -8.932   8.511  69.447  1.00  0.00    -0.146 OA 
HETATM   21  H   UNK A   0      -9.019   7.568  69.372  1.00  0.00     0.000 HD 
BRANCH  19  22
ATOM     22  N   SER A   1      -8.288   8.532  67.263  1.00  0.00    -0.115 NA 
ATOM     23  H   SER A   1      -7.748   8.959  66.510  1.00  0.00     0.000 HD 
BRANCH  22  24
ATOM     24  CA  SER A   1      -8.824   7.148  67.135  1.00  0.00    -0.121 C  
BRANCH  24  25
ATOM     25  C   SER A   1      -7.789   6.335  66.335  1.00  0.00    -0.104 C  
ATOM     26  H   SER A   1      -6.836   4.624  66.528  1.00  0.00     0.000 HD 
ATOM     27  O   SER A   1      -7.475   5.125  67.021  1.00  0.00    -0.085 OA 
ENDBRANCH  24  25
BRANCH  24  28
ATOM     28  CB  SER A   1     -10.166   7.097  66.376  1.00  0.00     0.067 C  
ATOM     29  OG  SER A   1     -10.789   5.814  66.372  1.00  0.00    -0.575 OA 
ATOM     30  HG  SER A   1     -11.616   5.783  65.905  1.00  0.00     0.000 HD 
ENDBRANCH  24  28
ENDBRANCH  22  24
ENDBRANCH  19  22
ENDBRANCH  13  19
BRANCH  18  31
HETATM   31  C   UNK A   0     -10.068  13.742  66.839  1.00  0.00    -0.260 C  
HETATM   32  H   UNK A   0     -11.957  14.230  66.889  1.00  0.00     0.000 HD 
HETATM   33  O   UNK A   0     -11.319  13.686  67.336  1.00  0.00    -0.291 OA 
BRANCH  31  34
ATOM     34  N   SER A   1      -9.820  14.451  65.791  1.00  0.00    -0.422 NA 
ATOM     35  H   SER A   1      -8.893  14.842  65.624  1.00  0.00     0.000 HD 
BRANCH  34  36
ATOM     36  CA  SER A   1     -10.944  14.676  64.832  1.00  0.00    -0.407 C  
BRANCH  36  37
ATOM     37  CB  SER A   1     -11.998  13.593  65.079  1.00  0.00    -0.378 C  
ATOM     38  HG  SER A   1     -13.452  12.733  64.063  1.00  0.00     0.000 HD 
ATOM     39  OG  SER A   1     -12.797  13.405  63.911  1.00  0.00    -0.603 OA 
ENDBRANCH  36  37
BRANCH  36  40
ATOM     40  C   SER A   1     -11.546  16.073  65.073  1.00  0.00     0.098 C  
ATOM     41  H   SER A   1     -11.805  17.736  64.046  1.00  0.00     0.000 HD 
ATOM     42  O   SER A   1     -11.434  16.875  63.898  1.00  0.00    -0.987 OA 
ENDBRANCH  36  40
ENDBRANCH  34  36
ENDBRANCH  31  34
ENDBRANCH  18  31
ENDBRANCH   8  10
ENDBRANCH   5   8
ENDBRANCH   1   5
TORSDOF 13
ENDMDL
MODEL      241
REMARK 921   NORMALIZED FREE ENERGY PREDICTED BY IDOCK:   -0.18 KCAL/MOL
REMARK 922        TOTAL FREE ENERGY PREDICTED BY IDOCK:   -1.25 KCAL/MOL
REMARK 923 INTER-LIGAND FREE ENERGY PREDICTED BY IDOCK:   -3.03 KCAL/MOL
REMARK 924 INTRA-LIGAND FREE ENERGY PREDICTED BY IDOCK:    1.78 KCAL/MOL
REMARK 927      BINDING AFFINITY PREDICTED BY RF-SCORE:    0.00 PKD
ROOT
HETATM    1  C   UNK A   0     -11.669  11.816  66.751  1.00  0.00    -0.116 C  
HETATM    2  O   UNK A   0     -10.572  12.217  65.910  1.00  0.00    -0.244 OA 
HETATM    3  C   UNK A   0     -11.522  10.347  67.082  1.00  0.00     0.376 C  
HETATM    4  H   UNK A   0     -10.664  13.139  65.702  1.00  0.00     0.000 HD 
ENDROOT
BRANCH   1   5
HETATM    5  C   UNK A   0     -11.578  12.648  68.019  1.00  0.00    -0.343 C  
HETATM    6  O   UNK A   0     -12.751  13.234  68.350  1.00  0.00     0.285 OA 
HETATM    7  H   UNK A   0     -12.695  13.754  69.143  1.00  0.00     0.000 HD 
BRANCH   5   8
HETATM    8  N   UNK A   0     -10.504  12.739  68.732  1.00  0.00    -0.383 NA 
HETATM    9  H   UNK A   0     -10.407  13.485  69.421  1.00  0.00     0.000 HD 
BRANCH   8  10
HETATM   10  C   UNK A   0      -9.454  11.788  68.550  1.00  0.00    -0.163 A  
HETATM   11  C   UNK A   0      -8.347  12.048  67.708  1.00  0.00    -0.156 A  
HETATM   12  I   UNK A   0      -8.222  14.026  66.768  1.00  0.00     0.762 I  
HETATM   13  C   UNK A   0      -7.282  11.127  67.609  1.00  0.00    -0.094 A  
HETATM   14  I   UNK A   0     -11.274  10.144  70.408  1.00  0.00    -0.379 I  
HETATM   15  C   UNK A   0      -7.211  10.076  68.570  1.00  0.00    -0.076 A  
HETATM   16  I   UNK A   0      -5.231   9.227  68.936  1.00  0.00    -0.036 I  
HETATM   17  C   UNK A   0      -9.440  10.611  69.359  1.00  0.00    -0.078 A  
HETATM   18  C   UNK A   0      -8.293   9.788  69.455  1.00  0.00    -0.153 A  
BRANCH  13  19
HETATM   19  C   UNK A   0      -6.299  11.145  66.480  1.00  0.00    -0.132 C  
HETATM   20  O   UNK A   0      -5.214  11.917  66.632  1.00  0.00    -0.271 OA 
HETATM   21  H   UNK A   0      -4.590  11.927  65.916  1.00  0.00     0.000 HD 
BRANCH  19  22
ATOM     22  N   SER A   1      -6.454  10.452  65.407  1.00  0.00    -0.149 NA 
ATOM     23  H   SER A   1      -6.046  10.753  64.522  1.00  0.00     0.000 HD 
BRANCH  22  24
ATOM     24  CA  SER A   1      -7.250   9.195  65.499  1.00  0.00    -0.082 C  
BRANCH  24  25
ATOM     25  C   SER A   1      -6.519   8.136  64.654  1.00  0.00    -0.064 C  
ATOM     26  H   SER A   1      -6.544   6.178  64.457  1.00  0.00     0.000 HD 
ATOM     27  O   SER A   1      -6.995   6.831  64.978  1.00  0.00    -0.049 OA 
ENDBRANCH  24  25
BRANCH  24  28
ATOM     28  CB  SER A   1      -8.679   9.354  64.940  1.00  0.00    -0.190 C  
ATOM     29  OG  SER A   1      -9.527   8.231  65.173  1.00  0.00    -0.251 OA 
ATOM     30  HG  SER A   1     -10.407   8.328  64.829  1.00  0.00     0.000 HD 
ENDBRANCH  24  28
ENDBRANCH  22  24
ENDBRANCH  19  22
ENDBRANCH  13  19
BRANCH  18  31
HETATM   31  C   UNK A   0      -8.172   8.692  70.484  1.00  0.00    -0.123 C  
HETATM   32  H   UNK A   0      -7.495   8.359  72.283  1.00  0.00     0.000 HD 
HETATM   33  O   UNK A   0      -7.571   9.049  71.635  1.00  0.00    -0.302 OA 
BRANCH  31  34
ATOM     34  N   SER A   1      -8.544   7.471  70.301  1.00  0.00    -0.142 NA 
ATOM     35  H   SER A   1      -9.094   7.201  69.485  1.00  0.00     0.000 HD 
BRANCH  34  36
ATOM     36  CA  SER A   1      -8.139   6.468  71.332  1.00  0.00    -0.112 C  
BRANCH  36  37
ATOM     37  CB  SER A   1      -9.411   5.930  71.992  1.00  0.00    -0.150 C  
ATOM     38  HG  SER A   1     -10.116   4.178  72.557  1.00  0.00     0.000 HD 
ATOM     39  OG  SER A   1      -9.327   4.513  72.148  1.00  0.00    -0.127 OA 
ENDBRANCH  36  37
BRANCH  36  40
ATOM     40  C   SER A   1      -7.364   5.324  70.652  1.00  0.00    -0.070 C  
ATOM     41  H   SER A   1      -5.564   5.039  69.898  1.00  0.00     0.000 HD 
ATOM     42  O   SER A   1      -6.042   5.745  70.318  1.00  0.00    -0.024 OA 
ENDBRANCH  36  40
ENDBRANCH  34  36
ENDBRANCH  31  34
ENDBRANCH  18  31
ENDBRANCH   8  10
ENDBRANCH   5   8
ENDBRANCH   1   5
TORSDOF 13
ENDMDL
MODEL      242
REMARK 921   NORMALIZED FREE ENERGY PREDICTED BY IDOCK:   -0.15 KCAL/MOL
REMARK 922        TOTAL FREE ENERGY PREDICTED BY IDOCK:   -1.19 KCAL/MOL
REMARK 923 INTER-LIGAND FREE ENERGY PREDICTED BY IDOCK:   -3.03 KCAL/MOL
REMARK 924 INTRA-LIGAND FREE ENERGY PREDICTED BY IDOCK:    1.84 KCAL/MOL
REMARK 927      BINDING AFFINITY PREDICTED BY RF-SCORE:    0.00 PKD
ROOT
HETATM    1  C   UNK A   0      -9.600  18.561  67.088  1.00  0.00    -0.295 C  
HETATM    2  O   UNK A   0     -10.013  19.354  68.215  1.00  0.00    -0.369 OA 
HETATM    3  C   UNK A   0      -8.091  18.589  66.994  1.00  0.00    -0.254 C  
HETATM    4  H   UNK A   0     -10.961  19.336  68.273  1.00  0.00     0.000 HD 
ENDROOT
BRANCH   1   5
HETATM    5  C   UNK A   0     -10.080  17.143  67.348  1.00  0.00    -0.301 C  
HETATM    6  O   UNK A   0     -11.001  16.725  66.450  1.00  0.00    -0.058 OA 
HETATM    7  H   UNK A   0     -11.302  15.838  66.613  1.00  0.00     0.000 HD 
BRANCH   5   8
HETATM    8  N   UNK A   0      -9.613  16.399  68.296  1.00  0.00    -0.216 NA 
HETATM    9  H   UNK A   0      -9.096  16.817  69.069  1.00  0.00     0.000 HD 
BRANCH   8  10
HETATM   10  C   UNK A   0      -9.827  14.987  68.253  1.00  0.00    -0.219 A  
HETATM   11  C   UNK A   0      -8.875  14.103  67.692  1.00  0.00    -0.194 A  
HETATM   12  I   UNK A   0      -6.982  14.955  66.984  1.00  0.00     1.333 I  
HETATM   13  C   UNK A   0      -9.072  12.706  67.737  1.00  0.00    -0.192 A  
HETATM   14  I   UNK A   0     -12.494  15.840  69.527  1.00  0.00     0.888 I  
HETATM   15  C   UNK A   0     -10.095  12.199  68.591  1.00  0.00    -0.151 A  
HETATM   16  I   UNK A   0      -9.846  10.143  69.288  1.00  0.00    -0.240 I  
HETATM   17  C   UNK A   0     -10.955  14.439  68.936  1.00  0.00    -0.255 A  
HETATM   18  C   UNK A   0     -11.064  13.052  69.197  1.00  0.00    -0.245 A  
BRANCH  13  19
HETATM   19  C   UNK A   0      -8.332  11.755  66.848  1.00  0.00    -0.170 C  
HETATM   20  O   UNK A   0      -8.522  11.887  65.528  1.00  0.00    -0.259 OA 
HETATM   21  H   UNK A   0      -8.052  11.284  64.964  1.00  0.00     0.000 HD 
BRANCH  19  22
ATOM     22  N   SER A   1      -7.535  10.852  67.300  1.00  0.00    -0.099 NA 
ATOM     23  H   SER A   1      -7.769   9.862  67.232  1.00  0.00     0.000 HD 
BRANCH  22  24
ATOM     24  CA  SER A   1      -6.260  11.300  67.926  1.00  0.00    -0.050 C  
BRANCH  24  25
ATOM     25  C   SER A   1      -5.127  10.947  66.945  1.00  0.00    -0.054 C  
ATOM     26  H   SER A   1      -4.724  11.236  65.040  1.00  0.00     0.000 HD 
ATOM     27  O   SER A   1      -5.423  11.454  65.646  1.00  0.00    -0.218 OA 
ENDBRANCH  24  25
BRANCH  24  28
ATOM     28  CB  SER A   1      -5.973  10.591  69.266  1.00  0.00    -0.038 C  
ATOM     29  OG  SER A   1      -5.396   9.293  69.131  1.00  0.00    -0.036 OA 
ATOM     30  HG  SER A   1      -5.220   8.857  69.956  1.00  0.00     0.000 HD 
ENDBRANCH  24  28
ENDBRANCH  22  24
ENDBRANCH  19  22
ENDBRANCH  13  19
BRANCH  18  31
HETATM   31  C   UNK A   0     -12.112  12.488  70.125  1.00  0.00    -0.292 C  
HETATM   32  H   UNK A   0     -13.652  11.290  70.133  1.00  0.00     0.000 HD 
HETATM   33  O   UNK A   0     -12.992  11.646  69.550  1.00  0.00     0.359 OA 
BRANCH  31  34
ATOM     34  N   SER A   1     -12.236  12.804  71.368  1.00  0.00    -0.175 NA 
ATOM     35  H   SER A   1     -11.885  12.195  72.108  1.00  0.00     0.000 HD 
BRANCH  34  36
ATOM     36  CA  SER A   1     -12.916  14.098  71.682  1.00  0.00    -0.347 C  
BRANCH  36  37
ATOM     37  CB  SER A   1     -14.336  13.781  72.159  1.00  0.00    -0.373 C  
ATOM     38  HG  SER A   1     -15.272  12.269  73.007  1.00  0.00     0.000 HD 
ATOM     39  OG  SER A   1     -14.391  12.466  72.711  1.00  0.00     0.138 OA 
ENDBRANCH  36  37
BRANCH  36  40
ATOM     40  C   SER A   1     -12.131  14.829  72.788  1.00  0.00    -0.187 C  
ATOM     41  H   SER A   1     -12.389  16.398  73.953  1.00  0.00     0.000 HD 
ATOM     42  O   SER A   1     -12.873  15.947  73.272  1.00  0.00    -0.460 OA 
ENDBRANCH  36  40
ENDBRANCH  34  36
ENDBRANCH  31  34
ENDBRANCH  18  31
ENDBRANCH   8  10
ENDBRANCH   5   8
ENDBRANCH   1   5
TORSDOF 13
ENDMDL
MODEL      243
REMARK 921   NORMALIZED FREE ENERGY PREDICTED BY IDOCK:    0.25 KCAL/MOL
REMARK 922        TOTAL FREE ENERGY PREDICTED BY IDOCK:   -0.48 KCAL/MOL
REMARK 923 INTER-LIGAND FREE ENERGY PREDICTED BY IDOCK:   -3.69 KCAL/MOL
REMARK 924 INTRA-LIGAND FREE ENERGY PREDICTED BY IDOCK:    3.20 KCAL/MOL
REMARK 927      BINDING AFFINITY PREDICTED BY RF-SCORE:    0.00 PKD
ROOT
HETATM    1  C   UNK A   0     -11.211   5.441  70.466  1.00  0.00     0.310 C  
HETATM    2  O   UNK A   0     -11.064   5.992  71.787  1.00  0.00    -0.259 OA 
HETATM    3  C   UNK A   0     -11.035   6.547  69.450  1.00  0.00    -0.395 C  
HETATM    4  H   UNK A   0     -11.175   5.298  72.425  1.00  0.00     0.000 HD 
ENDROOT
BRANCH   1   5
HETATM    5  C   UNK A   0     -10.116   4.401  70.299  1.00  0.00    -0.102 C  
HETATM    6  O   UNK A   0     -10.023   3.560  71.355  1.00  0.00    -0.171 OA 
HETATM    7  H   UNK A   0      -9.338   2.909  71.251  1.00  0.00     0.000 HD 
BRANCH   5   8
HETATM    8  N   UNK A   0      -9.389   4.300  69.236  1.00  0.00    -0.147 NA 
HETATM    9  H   UNK A   0      -9.404   3.443  68.684  1.00  0.00     0.000 HD 
BRANCH   8  10
HETATM   10  C   UNK A   0      -8.565   5.397  68.839  1.00  0.00    -0.099 A  
HETATM   11  C   UNK A   0      -8.694   6.009  67.570  1.00  0.00    -0.107 A  
HETATM   12  I   UNK A   0     -10.295   5.297  66.250  1.00  0.00    -0.124 I  
HETATM   13  C   UNK A   0      -7.925   7.144  67.233  1.00  0.00    -0.111 A  
HETATM   14  I   UNK A   0      -7.347   4.858  71.613  1.00  0.00    -0.080 I  
HETATM   15  C   UNK A   0      -7.230   7.819  68.279  1.00  0.00    -0.089 A  
HETATM   16  I   UNK A   0      -6.783   9.931  67.942  1.00  0.00    -0.068 I  
HETATM   17  C   UNK A   0      -7.698   5.993  69.804  1.00  0.00    -0.096 A  
HETATM   18  C   UNK A   0      -7.091   7.253  69.581  1.00  0.00    -0.073 A  
BRANCH  13  19
HETATM   19  C   UNK A   0      -7.722   7.594  65.820  1.00  0.00    -0.100 C  
HETATM   20  O   UNK A   0      -6.583   7.221  65.221  1.00  0.00    -0.046 OA 
HETATM   21  H   UNK A   0      -6.455   7.507  64.324  1.00  0.00     0.000 HD 
BRANCH  19  22
ATOM     22  N   SER A   1      -8.590   8.296  65.179  1.00  0.00    -0.314 NA 
ATOM     23  H   SER A   1      -9.588   8.199  65.366  1.00  0.00     0.000 HD 
BRANCH  22  24
ATOM     24  CA  SER A   1      -8.090   9.255  64.154  1.00  0.00    -0.145 C  
BRANCH  24  25
ATOM     25  C   SER A   1      -8.950  10.527  64.269  1.00  0.00    -0.216 C  
ATOM     26  H   SER A   1     -10.468  11.151  65.356  1.00  0.00     0.000 HD 
ATOM     27  O   SER A   1      -9.937  10.366  65.286  1.00  0.00    -0.273 OA 
ENDBRANCH  24  25
BRANCH  24  28
ATOM     28  CB  SER A   1      -8.224   8.713  62.716  1.00  0.00    -0.188 C  
ATOM     29  OG  SER A   1      -7.205   7.788  62.341  1.00  0.00    -0.086 OA 
ATOM     30  HG  SER A   1      -7.287   7.455  61.456  1.00  0.00     0.000 HD 
ENDBRANCH  24  28
ENDBRANCH  22  24
ENDBRANCH  19  22
ENDBRANCH  13  19
BRANCH  18  31
HETATM   31  C   UNK A   0      -6.380   8.009  70.676  1.00  0.00    -0.036 C  
HETATM   32  H   UNK A   0      -4.854   9.189  70.969  1.00  0.00     0.000 HD 
HETATM   33  O   UNK A   0      -5.302   8.712  70.280  1.00  0.00    -0.022 OA 
BRANCH  31  34
ATOM     34  N   SER A   1      -6.704   7.968  71.923  1.00  0.00    -0.062 NA 
ATOM     35  H   SER A   1      -6.223   7.349  72.576  1.00  0.00     0.000 HD 
BRANCH  34  36
ATOM     36  CA  SER A   1      -7.811   8.865  72.375  1.00  0.00     0.285 C  
BRANCH  36  37
ATOM     37  CB  SER A   1      -8.882   8.879  71.281  1.00  0.00    -0.231 C  
ATOM     38  HG  SER A   1     -10.850   8.931  71.186  1.00  0.00     0.000 HD 
ATOM     39  OG  SER A   1     -10.185   8.923  71.864  1.00  0.00    -0.324 OA 
ENDBRANCH  36  37
BRANCH  36  40
ATOM     40  C   SER A   1      -8.398   8.325  73.692  1.00  0.00    -0.192 C  
ATOM     41  H   SER A   1      -9.036   6.597  74.394  1.00  0.00     0.000 HD 
ATOM     42  O   SER A   1      -8.674   6.930  73.582  1.00  0.00    -0.127 OA 
ENDBRANCH  36  40
ENDBRANCH  34  36
ENDBRANCH  31  34
ENDBRANCH  18  31
ENDBRANCH   8  10
ENDBRANCH   5   8
ENDBRANCH   1   5
TORSDOF 13
ENDMDL
MODEL      244
REMARK 921   NORMALIZED FREE ENERGY PREDICTED BY IDOCK:    0.54 KCAL/MOL
REMARK 922        TOTAL FREE ENERGY PREDICTED BY IDOCK:    0.01 KCAL/MOL
REMARK 923 INTER-LIGAND FREE ENERGY PREDICTED BY IDOCK:   -2.10 KCAL/MOL
REMARK 924 INTRA-LIGAND FREE ENERGY PREDICTED BY IDOCK:    2.11 KCAL/MOL
REMARK 927      BINDING AFFINITY PREDICTED BY RF-SCORE:    0.00 PKD
ROOT
HETATM    1  C   UNK A   0     -10.951  18.868  66.636  1.00  0.00    -0.016 C  
HETATM    2  O   UNK A   0     -12.053  18.863  67.562  1.00  0.00     1.684 OA 
HETATM    3  C   UNK A   0      -9.796  19.626  67.252  1.00  0.00    -0.492 C  
HETATM    4  H   UNK A   0     -12.778  18.387  67.175  1.00  0.00     0.000 HD 
ENDROOT
BRANCH   1   5
HETATM    5  C   UNK A   0     -10.561  17.417  66.410  1.00  0.00    -0.192 C  
HETATM    6  O   UNK A   0      -9.730  17.253  65.354  1.00  0.00    -0.373 OA 
HETATM    7  H   UNK A   0      -9.486  16.346  65.212  1.00  0.00     0.000 HD 
BRANCH   5   8
HETATM    8  N   UNK A   0     -10.941  16.452  67.180  1.00  0.00    -0.161 NA 
HETATM    9  H   UNK A   0     -11.848  16.492  67.643  1.00  0.00     0.000 HD 
BRANCH   8  10
HETATM   10  C   UNK A   0     -10.081  15.328  67.378  1.00  0.00    -0.232 A  
HETATM   11  C   UNK A   0      -9.076  15.321  68.373  1.00  0.00    -0.189 A  
HETATM   12  I   UNK A   0      -8.945  17.060  69.704  1.00  0.00     1.579 I  
HETATM   13  C   UNK A   0      -8.295  14.169  68.604  1.00  0.00    -0.123 A  
HETATM   14  I   UNK A   0     -11.700  14.280  64.980  1.00  0.00    -0.451 I  
HETATM   15  C   UNK A   0      -8.718  12.941  68.015  1.00  0.00    -0.191 A  
HETATM   16  I   UNK A   0      -8.061  11.110  69.009  1.00  0.00     0.138 I  
HETATM   17  C   UNK A   0     -10.346  14.122  66.661  1.00  0.00    -0.277 A  
HETATM   18  C   UNK A   0      -9.743  12.894  67.023  1.00  0.00    -0.230 A  
BRANCH  13  19
HETATM   19  C   UNK A   0      -6.992  14.207  69.341  1.00  0.00    -0.078 C  
HETATM   20  O   UNK A   0      -7.048  14.114  70.677  1.00  0.00    -0.173 OA 
HETATM   21  H   UNK A   0      -6.222  14.139  71.145  1.00  0.00     0.000 HD 
BRANCH  19  22
ATOM     22  N   SER A   1      -5.856  14.311  68.747  1.00  0.00    -0.079 NA 
ATOM     23  H   SER A   1      -5.456  13.526  68.233  1.00  0.00     0.000 HD 
BRANCH  22  24
ATOM     24  CA  SER A   1      -5.142  15.616  68.832  1.00  0.00    -0.099 C  
BRANCH  24  25
ATOM     25  C   SER A   1      -5.669  16.338  70.086  1.00  0.00    -0.178 C  
ATOM     26  H   SER A   1      -5.457  18.101  70.933  1.00  0.00     0.000 HD 
ATOM     27  O   SER A   1      -5.132  17.656  70.160  1.00  0.00    -0.181 OA 
ENDBRANCH  24  25
BRANCH  24  28
ATOM     28  CB  SER A   1      -5.405  16.520  67.610  1.00  0.00    -0.137 C  
ATOM     29  OG  SER A   1      -6.408  16.029  66.723  1.00  0.00    -0.278 OA 
ATOM     30  HG  SER A   1      -6.570  16.586  65.971  1.00  0.00     0.000 HD 
ENDBRANCH  24  28
ENDBRANCH  22  24
ENDBRANCH  19  22
ENDBRANCH  13  19
BRANCH  18  31
HETATM   31  C   UNK A   0     -10.193  11.574  66.446  1.00  0.00    -0.224 C  
HETATM   32  H   UNK A   0     -11.686  10.759  65.491  1.00  0.00     0.000 HD 
HETATM   33  O   UNK A   0     -11.403  11.590  65.855  1.00  0.00    -0.244 OA 
BRANCH  31  34
ATOM     34  N   SER A   1      -9.533  10.471  66.539  1.00  0.00    -0.162 NA 
ATOM     35  H   SER A   1      -9.083  10.195  67.413  1.00  0.00     0.000 HD 
BRANCH  34  36
ATOM     36  CA  SER A   1      -9.452   9.613  65.318  1.00  0.00    -0.275 C  
BRANCH  36  37
ATOM     37  CB  SER A   1      -8.276  10.107  64.471  1.00  0.00    -0.162 C  
ATOM     38  HG  SER A   1      -7.890  10.391  62.560  1.00  0.00     0.000 HD 
ATOM     39  OG  SER A   1      -8.620  10.086  63.085  1.00  0.00    -0.161 OA 
ENDBRANCH  36  37
BRANCH  36  40
ATOM     40  C   SER A   1      -9.231   8.148  65.738  1.00  0.00    -0.034 C  
ATOM     41  H   SER A   1      -8.028   7.151  66.940  1.00  0.00     0.000 HD 
ATOM     42  O   SER A   1      -8.164   8.054  66.681  1.00  0.00    -0.104 OA 
ENDBRANCH  36  40
ENDBRANCH  34  36
ENDBRANCH  31  34
ENDBRANCH  18  31
ENDBRANCH   8  10
ENDBRANCH   5   8
ENDBRANCH   1   5
TORSDOF 13
ENDMDL
MODEL      245
REMARK 921   NORMALIZED FREE ENERGY PREDICTED BY IDOCK:    0.59 KCAL/MOL
REMARK 922        TOTAL FREE ENERGY PREDICTED BY IDOCK:    0.11 KCAL/MOL
REMARK 923 INTER-LIGAND FREE ENERGY PREDICTED BY IDOCK:   -3.31 KCAL/MOL
REMARK 924 INTRA-LIGAND FREE ENERGY PREDICTED BY IDOCK:    3.42 KCAL/MOL
REMARK 927      BINDING AFFINITY PREDICTED BY RF-SCORE:    0.00 PKD
ROOT
HETATM    1  C   UNK A   0      -6.155  13.392  71.253  1.00  0.00     0.410 C  
HETATM    2  O   UNK A   0      -5.129  14.271  71.747  1.00  0.00    -0.136 OA 
HETATM    3  C   UNK A   0      -7.385  14.209  70.922  1.00  0.00     1.892 C  
HETATM    4  H   UNK A   0      -4.357  13.758  71.955  1.00  0.00     0.000 HD 
ENDROOT
BRANCH   1   5
HETATM    5  C   UNK A   0      -5.608  12.741  69.994  1.00  0.00    -0.125 C  
HETATM    6  O   UNK A   0      -5.150  11.486  70.206  1.00  0.00    -0.070 OA 
HETATM    7  H   UNK A   0      -4.807  11.079  69.419  1.00  0.00     0.000 HD 
BRANCH   5   8
HETATM    8  N   UNK A   0      -5.630  13.310  68.834  1.00  0.00    -0.071 NA 
HETATM    9  H   UNK A   0      -4.780  13.364  68.272  1.00  0.00     0.000 HD 
BRANCH   8  10
HETATM   10  C   UNK A   0      -6.852  13.864  68.343  1.00  0.00    -0.101 A  
HETATM   11  C   UNK A   0      -7.037  15.259  68.199  1.00  0.00    -0.119 A  
HETATM   12  I   UNK A   0      -5.331  16.566  68.641  1.00  0.00    -0.123 I  
HETATM   13  C   UNK A   0      -8.222  15.777  67.634  1.00  0.00    -0.166 A  
HETATM   14  I   UNK A   0      -7.633  10.888  68.334  1.00  0.00    -0.126 I  
HETATM   15  C   UNK A   0      -9.100  14.872  66.967  1.00  0.00    -0.237 A  
HETATM   16  I   UNK A   0     -10.404  15.733  65.440  1.00  0.00    -0.221 I  
HETATM   17  C   UNK A   0      -7.855  12.982  67.837  1.00  0.00    -0.149 A  
HETATM   18  C   UNK A   0      -8.942  13.457  67.065  1.00  0.00    -0.228 A  
BRANCH  13  19
HETATM   19  C   UNK A   0      -8.645  17.203  67.804  1.00  0.00    -0.216 C  
HETATM   20  O   UNK A   0      -9.031  17.579  69.031  1.00  0.00    -0.180 OA 
HETATM   21  H   UNK A   0      -9.299  18.484  69.139  1.00  0.00     0.000 HD 
BRANCH  19  22
ATOM     22  N   SER A   1      -8.634  18.055  66.840  1.00  0.00    -0.243 NA 
ATOM     23  H   SER A   1      -8.608  17.748  65.867  1.00  0.00     0.000 HD 
BRANCH  22  24
ATOM     24  CA  SER A   1      -8.662  19.503  67.188  1.00  0.00    -0.301 C  
BRANCH  24  25
ATOM     25  C   SER A   1      -9.643  20.183  66.216  1.00  0.00    -0.370 C  
ATOM     26  H   SER A   1     -11.426  19.812  65.469  1.00  0.00     0.000 HD 
ATOM     27  O   SER A   1     -10.821  19.392  66.069  1.00  0.00    -0.407 OA 
ENDBRANCH  24  25
BRANCH  24  28
ATOM     28  CB  SER A   1      -7.284  20.179  67.032  1.00  0.00    -0.255 C  
ATOM     29  OG  SER A   1      -6.256  19.312  66.556  1.00  0.00    -0.176 OA 
ATOM     30  HG  SER A   1      -5.408  19.729  66.460  1.00  0.00     0.000 HD 
ENDBRANCH  24  28
ENDBRANCH  22  24
ENDBRANCH  19  22
ENDBRANCH  13  19
BRANCH  18  31
HETATM   31  C   UNK A   0      -9.866  12.528  66.318  1.00  0.00    -0.252 C  
HETATM   32  H   UNK A   0     -11.468  11.444  66.573  1.00  0.00     0.000 HD 
HETATM   33  O   UNK A   0     -10.886  12.029  67.043  1.00  0.00    -0.232 OA 
BRANCH  31  34
ATOM     34  N   SER A   1      -9.701  12.158  65.094  1.00  0.00    -0.417 NA 
ATOM     35  H   SER A   1      -9.848  12.806  64.320  1.00  0.00     0.000 HD 
BRANCH  34  36
ATOM     36  CA  SER A   1      -9.284  10.743  64.856  1.00  0.00    -0.212 C  
BRANCH  36  37
ATOM     37  CB  SER A   1      -7.754  10.689  64.892  1.00  0.00     0.067 C  
ATOM     38  HG  SER A   1      -6.332   9.514  64.200  1.00  0.00     0.000 HD 
ATOM     39  OG  SER A   1      -7.281   9.548  64.177  1.00  0.00    -0.106 OA 
ENDBRANCH  36  37
BRANCH  36  40
ATOM     40  C   SER A   1      -9.877   9.845  65.957  1.00  0.00    -0.264 C  
ATOM     41  H   SER A   1      -9.872   7.929  66.426  1.00  0.00     0.000 HD 
ATOM     42  O   SER A   1      -9.506   8.483  65.746  1.00  0.00    -0.172 OA 
ENDBRANCH  36  40
ENDBRANCH  34  36
ENDBRANCH  31  34
ENDBRANCH  18  31
ENDBRANCH   8  10
ENDBRANCH   5   8
ENDBRANCH   1   5
TORSDOF 13
ENDMDL
MODEL      246
REMARK 921   NORMALIZED FREE ENERGY PREDICTED BY IDOCK:    0.70 KCAL/MOL
REMARK 922        TOTAL FREE ENERGY PREDICTED BY IDOCK:    0.30 KCAL/MOL
REMARK 923 INTER-LIGAND FREE ENERGY PREDICTED BY IDOCK:   -2.06 KCAL/MOL
REMARK 924 INTRA-LIGAND FREE ENERGY PREDICTED BY IDOCK:    2.36 KCAL/MOL
REMARK 927      BINDING AFFINITY PREDICTED BY RF-SCORE:    0.00 PKD
ROOT
HETATM    1  C   UNK A   0      -9.011   7.606  66.143  1.00  0.00    -0.161 C  
HETATM    2  O   UNK A   0      -9.577   8.544  67.076  1.00  0.00    -0.162 OA 
HETATM    3  C   UNK A   0      -8.286   8.370  65.057  1.00  0.00    -0.169 C  
HETATM    4  H   UNK A   0     -10.032   8.064  67.758  1.00  0.00     0.000 HD 
ENDROOT
BRANCH   1   5
HETATM    5  C   UNK A   0      -8.027   6.750  66.923  1.00  0.00    -0.109 C  
HETATM    6  O   UNK A   0      -6.828   7.351  67.099  1.00  0.00    -0.069 OA 
HETATM    7  H   UNK A   0      -6.213   6.816  67.586  1.00  0.00     0.000 HD 
BRANCH   5   8
HETATM    8  N   UNK A   0      -8.327   5.592  67.412  1.00  0.00    -0.104 NA 
HETATM    9  H   UNK A   0      -8.416   4.783  66.798  1.00  0.00     0.000 HD 
BRANCH   8  10
HETATM   10  C   UNK A   0      -8.535   5.453  68.819  1.00  0.00    -0.096 A  
HETATM   11  C   UNK A   0      -7.493   5.067  69.694  1.00  0.00    -0.057 A  
HETATM   12  I   UNK A   0      -5.490   4.797  68.841  1.00  0.00    -0.013 I  
HETATM   13  C   UNK A   0      -7.702   5.018  71.089  1.00  0.00    -0.091 A  
HETATM   14  I   UNK A   0     -11.404   6.181  67.978  1.00  0.00     1.345 I  
HETATM   15  C   UNK A   0      -8.881   5.623  71.613  1.00  0.00    -0.136 A  
HETATM   16  I   UNK A   0      -8.793   6.279  73.696  1.00  0.00    -0.144 I  
HETATM   17  C   UNK A   0      -9.782   5.867  69.376  1.00  0.00    -0.152 A  
HETATM   18  C   UNK A   0      -9.951   6.048  70.770  1.00  0.00    -0.237 A  
BRANCH  13  19
HETATM   19  C   UNK A   0      -6.800   4.265  72.017  1.00  0.00    -0.041 C  
HETATM   20  O   UNK A   0      -5.509   4.626  72.034  1.00  0.00    -0.004 OA 
HETATM   21  H   UNK A   0      -4.937   4.148  72.623  1.00  0.00     0.000 HD 
BRANCH  19  22
ATOM     22  N   SER A   1      -7.217   3.319  72.783  1.00  0.00    -0.044 NA 
ATOM     23  H   SER A   1      -7.026   3.330  73.785  1.00  0.00     0.000 HD 
BRANCH  22  24
ATOM     24  CA  SER A   1      -7.989   2.208  72.161  1.00  0.00    -0.053 C  
BRANCH  24  25
ATOM     25  C   SER A   1      -7.372   1.951  70.774  1.00  0.00    -0.033 C  
ATOM     26  H   SER A   1      -5.573   1.685  70.021  1.00  0.00     0.000 HD 
ATOM     27  O   SER A   1      -5.954   1.843  70.877  1.00  0.00    -0.016 OA 
ENDBRANCH  24  25
BRANCH  24  28
ATOM     28  CB  SER A   1      -9.480   2.554  71.967  1.00  0.00    -0.115 C  
ATOM     29  OG  SER A   1     -10.088   1.917  70.845  1.00  0.00     0.024 OA 
ATOM     30  HG  SER A   1     -11.006   2.130  70.725  1.00  0.00     0.000 HD 
ENDBRANCH  24  28
ENDBRANCH  22  24
ENDBRANCH  19  22
ENDBRANCH  13  19
BRANCH  18  31
HETATM   31  C   UNK A   0     -11.170   6.718  71.353  1.00  0.00    -0.268 C  
HETATM   32  H   UNK A   0     -13.024   6.351  71.837  1.00  0.00     0.000 HD 
HETATM   33  O   UNK A   0     -12.256   5.930  71.470  1.00  0.00     0.123 OA 
BRANCH  31  34
ATOM     34  N   SER A   1     -11.238   7.964  71.675  1.00  0.00    -0.245 NA 
ATOM     35  H   SER A   1     -10.605   8.369  72.366  1.00  0.00     0.000 HD 
BRANCH  34  36
ATOM     36  CA  SER A   1     -12.280   8.792  70.996  1.00  0.00    -0.190 C  
BRANCH  36  37
ATOM     37  CB  SER A   1     -13.298   9.229  72.052  1.00  0.00    -0.450 C  
ATOM     38  HG  SER A   1     -14.635   8.367  73.216  1.00  0.00     0.000 HD 
ATOM     39  OG  SER A   1     -14.003   8.096  72.561  1.00  0.00    -0.134 OA 
ENDBRANCH  36  37
BRANCH  36  40
ATOM     40  C   SER A   1     -11.613  10.023  70.354  1.00  0.00    -0.302 C  
ATOM     41  H   SER A   1     -11.663  10.959  68.619  1.00  0.00     0.000 HD 
ATOM     42  O   SER A   1     -12.073  10.200  69.015  1.00  0.00     0.042 OA 
ENDBRANCH  36  40
ENDBRANCH  34  36
ENDBRANCH  31  34
ENDBRANCH  18  31
ENDBRANCH   8  10
ENDBRANCH   5   8
ENDBRANCH   1   5
TORSDOF 13
ENDMDL
MODEL      247
REMARK 921   NORMALIZED FREE ENERGY PREDICTED BY IDOCK:    0.79 KCAL/MOL
REMARK 922        TOTAL FREE ENERGY PREDICTED BY IDOCK:    0.45 KCAL/MOL
REMARK 923 INTER-LIGAND FREE ENERGY PREDICTED BY IDOCK:   -2.75 KCAL/MOL
REMARK 924 INTRA-LIGAND FREE ENERGY PREDICTED BY IDOCK:    3.21 KCAL/MOL
REMARK 927      BINDING AFFINITY PREDICTED BY RF-SCORE:    0.00 PKD
ROOT
HETATM    1  C   UNK A   0      -8.988  15.195  69.857  1.00  0.00     0.187 C  
HETATM    2  O   UNK A   0      -9.162  15.997  68.676  1.00  0.00    -0.197 OA 
HETATM    3  C   UNK A   0     -10.296  15.148  70.616  1.00  0.00     0.144 C  
HETATM    4  H   UNK A   0      -8.341  16.027  68.200  1.00  0.00     0.000 HD 
ENDROOT
BRANCH   1   5
HETATM    5  C   UNK A   0      -8.606  13.801  69.390  1.00  0.00     0.769 C  
HETATM    6  O   UNK A   0      -7.441  13.367  69.923  1.00  0.00     0.042 OA 
HETATM    7  H   UNK A   0      -7.202  12.495  69.631  1.00  0.00     0.000 HD 
BRANCH   5   8
HETATM    8  N   UNK A   0      -9.347  13.087  68.608  1.00  0.00    -0.406 NA 
HETATM    9  H   UNK A   0     -10.221  13.465  68.242  1.00  0.00     0.000 HD 
BRANCH   8  10
HETATM   10  C   UNK A   0      -8.934  11.764  68.260  1.00  0.00    -0.180 A  
HETATM   11  C   UNK A   0      -7.665  11.501  67.694  1.00  0.00    -0.123 A  
HETATM   12  I   UNK A   0      -6.278  13.186  67.470  1.00  0.00     0.253 I  
HETATM   13  C   UNK A   0      -7.248  10.177  67.437  1.00  0.00    -0.088 A  
HETATM   14  I   UNK A   0     -11.783  11.138  69.241  1.00  0.00    -0.420 I  
HETATM   15  C   UNK A   0      -8.006   9.112  68.005  1.00  0.00    -0.101 A  
HETATM   16  I   UNK A   0      -6.946   7.228  68.322  1.00  0.00    -0.081 I  
HETATM   17  C   UNK A   0      -9.760  10.662  68.638  1.00  0.00    -0.178 A  
HETATM   18  C   UNK A   0      -9.282   9.330  68.606  1.00  0.00    -0.135 A  
BRANCH  13  19
HETATM   19  C   UNK A   0      -6.121   9.850  66.507  1.00  0.00    -0.064 C  
HETATM   20  O   UNK A   0      -5.166  10.778  66.360  1.00  0.00    -0.056 OA 
HETATM   21  H   UNK A   0      -4.451  10.570  65.771  1.00  0.00     0.000 HD 
BRANCH  19  22
ATOM     22  N   SER A   1      -6.039   8.731  65.875  1.00  0.00    -0.051 NA 
ATOM     23  H   SER A   1      -5.283   8.074  66.065  1.00  0.00     0.000 HD 
BRANCH  22  24
ATOM     24  CA  SER A   1      -7.085   8.428  64.859  1.00  0.00    -0.079 C  
BRANCH  24  25
ATOM     25  C   SER A   1      -6.786   7.020  64.310  1.00  0.00    -0.046 C  
ATOM     26  H   SER A   1      -7.818   5.453  63.716  1.00  0.00     0.000 HD 
ATOM     27  O   SER A   1      -8.002   6.322  64.054  1.00  0.00    -0.114 OA 
ENDBRANCH  24  25
BRANCH  24  28
ATOM     28  CB  SER A   1      -7.070   9.418  63.675  1.00  0.00    -0.101 C  
ATOM     29  OG  SER A   1      -5.953  10.306  63.668  1.00  0.00    -0.135 OA 
ATOM     30  HG  SER A   1      -5.944  10.915  62.939  1.00  0.00     0.000 HD 
ENDBRANCH  24  28
ENDBRANCH  22  24
ENDBRANCH  19  22
ENDBRANCH  13  19
BRANCH  18  31
HETATM   31  C   UNK A   0     -10.043   8.186  69.230  1.00  0.00    -0.202 C  
HETATM   32  H   UNK A   0     -11.469   6.914  68.842  1.00  0.00     0.000 HD 
HETATM   33  O   UNK A   0     -10.991   7.634  68.449  1.00  0.00    -0.018 OA 
BRANCH  31  34
ATOM     34  N   SER A   1      -9.878   7.771  70.440  1.00  0.00    -0.183 NA 
ATOM     35  H   SER A   1      -9.948   6.781  70.675  1.00  0.00     0.000 HD 
BRANCH  34  36
ATOM     36  CA  SER A   1      -9.580   8.799  71.483  1.00  0.00    -0.284 C  
BRANCH  36  37
ATOM     37  CB  SER A   1     -10.673   8.716  72.552  1.00  0.00    -0.144 C  
ATOM     38  HG  SER A   1     -12.587   8.257  72.630  1.00  0.00     0.000 HD 
ATOM     39  OG  SER A   1     -11.909   8.308  71.967  1.00  0.00    -0.303 OA 
ENDBRANCH  36  37
BRANCH  36  40
ATOM     40  C   SER A   1      -8.200   8.508  72.104  1.00  0.00    -0.112 C  
ATOM     41  H   SER A   1      -7.307   8.778  73.841  1.00  0.00     0.000 HD 
ATOM     42  O   SER A   1      -8.157   8.958  73.458  1.00  0.00    -0.347 OA 
ENDBRANCH  36  40
ENDBRANCH  34  36
ENDBRANCH  31  34
ENDBRANCH  18  31
ENDBRANCH   8  10
ENDBRANCH   5   8
ENDBRANCH   1   5
TORSDOF 13
ENDMDL
MODEL      248
REMARK 921   NORMALIZED FREE ENERGY PREDICTED BY IDOCK:    0.83 KCAL/MOL
REMARK 922        TOTAL FREE ENERGY PREDICTED BY IDOCK:    0.53 KCAL/MOL
REMARK 923 INTER-LIGAND FREE ENERGY PREDICTED BY IDOCK:   -2.84 KCAL/MOL
REMARK 924 INTRA-LIGAND FREE ENERGY PREDICTED BY IDOCK:    3.37 KCAL/MOL
REMARK 927      BINDING AFFINITY PREDICTED BY RF-SCORE:    0.00 PKD
ROOT
HETATM    1  C   UNK A   0     -10.690   7.217  69.322  1.00  0.00    -0.215 C  
HETATM    2  O   UNK A   0     -11.781   6.738  70.127  1.00  0.00    -0.506 OA 
HETATM    3  C   UNK A   0     -10.463   6.253  68.179  1.00  0.00    -0.278 C  
HETATM    4  H   UNK A   0     -11.924   7.343  70.845  1.00  0.00     0.000 HD 
ENDROOT
BRANCH   1   5
HETATM    5  C   UNK A   0     -11.104   8.576  68.783  1.00  0.00     0.307 C  
HETATM    6  O   UNK A   0     -11.872   9.275  69.650  1.00  0.00    -0.344 OA 
HETATM    7  H   UNK A   0     -12.132  10.124  69.314  1.00  0.00     0.000 HD 
BRANCH   5   8
HETATM    8  N   UNK A   0     -10.716   9.034  67.639  1.00  0.00    -0.445 NA 
HETATM    9  H   UNK A   0     -11.367   9.076  66.855  1.00  0.00     0.000 HD 
BRANCH   8  10
HETATM   10  C   UNK A   0      -9.368   9.480  67.480  1.00  0.00    -0.126 A  
HETATM   11  C   UNK A   0      -8.388   8.688  66.836  1.00  0.00    -0.108 A  
HETATM   12  I   UNK A   0      -9.028   6.776  65.972  1.00  0.00     0.046 I  
HETATM   13  C   UNK A   0      -7.086   9.185  66.618  1.00  0.00    -0.082 A  
HETATM   14  I   UNK A   0     -10.487  11.877  69.051  1.00  0.00     0.152 I  
HETATM   15  C   UNK A   0      -6.859  10.580  66.804  1.00  0.00    -0.103 A  
HETATM   16  I   UNK A   0      -5.185  11.448  65.700  1.00  0.00     1.033 I  
HETATM   17  C   UNK A   0      -9.039  10.823  67.836  1.00  0.00    -0.150 A  
HETATM   18  C   UNK A   0      -7.825  11.425  67.428  1.00  0.00    -0.135 A  
BRANCH  13  19
HETATM   19  C   UNK A   0      -5.921   8.296  66.311  1.00  0.00    -0.041 C  
HETATM   20  O   UNK A   0      -5.483   8.285  65.044  1.00  0.00    -0.039 OA 
HETATM   21  H   UNK A   0      -4.744   7.721  64.849  1.00  0.00     0.000 HD 
BRANCH  19  22
ATOM     22  N   SER A   1      -5.338   7.575  67.203  1.00  0.00    -0.029 NA 
ATOM     23  H   SER A   1      -4.325   7.453  67.202  1.00  0.00     0.000 HD 
BRANCH  22  24
ATOM     24  CA  SER A   1      -6.189   6.925  68.238  1.00  0.00    -0.034 C  
BRANCH  24  25
ATOM     25  C   SER A   1      -5.988   7.712  69.547  1.00  0.00    -0.030 C  
ATOM     26  H   SER A   1      -7.028   8.102  71.171  1.00  0.00     0.000 HD 
ATOM     27  O   SER A   1      -7.152   7.617  70.364  1.00  0.00    -0.056 OA 
ENDBRANCH  24  25
BRANCH  24  28
ATOM     28  CB  SER A   1      -5.796   5.456  68.495  1.00  0.00    -0.016 C  
ATOM     29  OG  SER A   1      -6.044   4.582  67.395  1.00  0.00    -0.026 OA 
ATOM     30  HG  SER A   1      -5.802   3.677  67.554  1.00  0.00     0.000 HD 
ENDBRANCH  24  28
ENDBRANCH  22  24
ENDBRANCH  19  22
ENDBRANCH  13  19
BRANCH  18  31
HETATM   31  C   UNK A   0      -7.569  12.905  67.578  1.00  0.00    -0.164 C  
HETATM   32  H   UNK A   0      -6.353  14.160  68.444  1.00  0.00     0.000 HD 
HETATM   33  O   UNK A   0      -6.514  13.229  68.350  1.00  0.00    -0.076 OA 
BRANCH  31  34
ATOM     34  N   SER A   1      -8.312  13.831  67.076  1.00  0.00    -0.379 NA 
ATOM     35  H   SER A   1      -8.535  13.850  66.080  1.00  0.00     0.000 HD 
BRANCH  34  36
ATOM     36  CA  SER A   1      -8.833  14.874  68.010  1.00  0.00    -0.167 C  
BRANCH  36  37
ATOM     37  CB  SER A   1      -7.725  15.908  68.228  1.00  0.00    -0.137 C  
ATOM     38  HG  SER A   1      -7.447  17.519  69.329  1.00  0.00     0.000 HD 
ATOM     39  OG  SER A   1      -8.135  16.877  69.194  1.00  0.00    -0.202 OA 
ENDBRANCH  36  37
BRANCH  36  40
ATOM     40  C   SER A   1     -10.073  15.543  67.387  1.00  0.00    -0.246 C  
ATOM     41  H   SER A   1     -10.454  17.071  66.201  1.00  0.00     0.000 HD 
ATOM     42  O   SER A   1      -9.690  16.659  66.585  1.00  0.00    -0.243 OA 
ENDBRANCH  36  40
ENDBRANCH  34  36
ENDBRANCH  31  34
ENDBRANCH  18  31
ENDBRANCH   8  10
ENDBRANCH   5   8
ENDBRANCH   1   5
TORSDOF 13
ENDMDL
MODEL      249
REMARK 921   NORMALIZED FREE ENERGY PREDICTED BY IDOCK:    0.87 KCAL/MOL
REMARK 922        TOTAL FREE ENERGY PREDICTED BY IDOCK:    0.60 KCAL/MOL
REMARK 923 INTER-LIGAND FREE ENERGY PREDICTED BY IDOCK:   -1.39 KCAL/MOL
REMARK 924 INTRA-LIGAND FREE ENERGY PREDICTED BY IDOCK:    1.98 KCAL/MOL
REMARK 927      BINDING AFFINITY PREDICTED BY RF-SCORE:    0.00 PKD
ROOT
HETATM    1  C   UNK A   0      -6.905  11.537  66.837  1.00  0.00    -0.138 C  
HETATM    2  O   UNK A   0      -7.989  11.933  65.977  1.00  0.00    -0.350 OA 
HETATM    3  C   UNK A   0      -5.876  10.790  66.019  1.00  0.00    -0.140 C  
HETATM    4  H   UNK A   0      -8.635  12.401  66.491  1.00  0.00     0.000 HD 
ENDROOT
BRANCH   1   5
HETATM    5  C   UNK A   0      -6.300  12.813  67.397  1.00  0.00    -0.135 C  
HETATM    6  O   UNK A   0      -5.168  13.185  66.757  1.00  0.00    -0.016 OA 
HETATM    7  H   UNK A   0      -4.789  13.983  67.108  1.00  0.00     0.000 HD 
BRANCH   5   8
HETATM    8  N   UNK A   0      -6.843  13.497  68.350  1.00  0.00    -0.091 NA 
HETATM    9  H   UNK A   0      -6.263  14.051  68.979  1.00  0.00     0.000 HD 
BRANCH   8  10
HETATM   10  C   UNK A   0      -8.262  13.472  68.515  1.00  0.00    -0.104 A  
HETATM   11  C   UNK A   0      -8.927  12.374  69.110  1.00  0.00     0.682 A  
HETATM   12  I   UNK A   0      -7.694  10.737  69.893  1.00  0.00     0.935 I  
HETATM   13  C   UNK A   0     -10.319  12.409  69.338  1.00  0.00     0.423 A  
HETATM   14  I   UNK A   0      -7.994  16.174  67.068  1.00  0.00    -0.310 I  
HETATM   15  C   UNK A   0     -10.989  13.661  69.213  1.00  0.00    -0.144 A  
HETATM   16  I   UNK A   0     -12.850  13.882  70.338  1.00  0.00     0.218 I  
HETATM   17  C   UNK A   0      -9.012  14.650  68.217  1.00  0.00    -0.184 A  
HETATM   18  C   UNK A   0     -10.355  14.803  68.639  1.00  0.00    -0.245 A  
BRANCH  13  19
HETATM   19  C   UNK A   0     -11.129  11.175  69.591  1.00  0.00    -0.232 C  
HETATM   20  O   UNK A   0     -11.179  10.730  70.854  1.00  0.00    -0.329 OA 
HETATM   21  H   UNK A   0     -11.693   9.948  71.015  1.00  0.00     0.000 HD 
BRANCH  19  22
ATOM     22  N   SER A   1     -11.769  10.556  68.662  1.00  0.00    -0.637 NA 
ATOM     23  H   SER A   1     -12.462  11.038  68.089  1.00  0.00     0.000 HD 
BRANCH  22  24
ATOM     24  CA  SER A   1     -11.465   9.114  68.448  1.00  0.00     0.770 C  
BRANCH  24  25
ATOM     25  C   SER A   1     -10.643   8.642  69.661  1.00  0.00    -0.218 C  
ATOM     26  H   SER A   1      -8.950   7.688  69.974  1.00  0.00     0.000 HD 
ATOM     27  O   SER A   1      -9.457   7.979  69.226  1.00  0.00    -0.155 OA 
ENDBRANCH  24  25
BRANCH  24  28
ATOM     28  CB  SER A   1     -10.632   8.863  67.175  1.00  0.00    -0.231 C  
ATOM     29  OG  SER A   1      -9.899   9.999  66.720  1.00  0.00    -0.180 OA 
ATOM     30  HG  SER A   1      -9.386   9.844  65.936  1.00  0.00     0.000 HD 
ENDBRANCH  24  28
ENDBRANCH  22  24
ENDBRANCH  19  22
ENDBRANCH  13  19
BRANCH  18  31
HETATM   31  C   UNK A   0     -11.080  16.123  68.555  1.00  0.00    -0.357 C  
HETATM   32  H   UNK A   0     -12.494  17.023  67.556  1.00  0.00     0.000 HD 
HETATM   33  O   UNK A   0     -12.037  16.192  67.610  1.00  0.00     0.464 OA 
BRANCH  31  34
ATOM     34  N   SER A   1     -10.800  17.159  69.269  1.00  0.00    -0.336 NA 
ATOM     35  H   SER A   1     -11.127  17.244  70.231  1.00  0.00     0.000 HD 
BRANCH  34  36
ATOM     36  CA  SER A   1      -9.977  18.231  68.630  1.00  0.00    -0.389 C  
BRANCH  36  37
ATOM     37  CB  SER A   1     -10.929  19.193  67.914  1.00  0.00    -0.088 C  
ATOM     38  HG  SER A   1     -11.559  19.500  66.072  1.00  0.00     0.000 HD 
ATOM     39  OG  SER A   1     -10.968  18.903  66.516  1.00  0.00    -0.225 OA 
ENDBRANCH  36  37
BRANCH  36  40
ATOM     40  C   SER A   1      -9.180  18.977  69.716  1.00  0.00     0.694 C  
ATOM     41  H   SER A   1      -7.485  19.975  69.842  1.00  0.00     0.000 HD 
ATOM     42  O   SER A   1      -7.976  19.515  69.173  1.00  0.00    -0.336 OA 
ENDBRANCH  36  40
ENDBRANCH  34  36
ENDBRANCH  31  34
ENDBRANCH  18  31
ENDBRANCH   8  10
ENDBRANCH   5   8
ENDBRANCH   1   5
TORSDOF 13
ENDMDL
MODEL      250
REMARK 921   NORMALIZED FREE ENERGY PREDICTED BY IDOCK:    0.95 KCAL/MOL
REMARK 922        TOTAL FREE ENERGY PREDICTED BY IDOCK:    0.74 KCAL/MOL
REMARK 923 INTER-LIGAND FREE ENERGY PREDICTED BY IDOCK:   -6.13 KCAL/MOL
REMARK 924 INTRA-LIGAND FREE ENERGY PREDICTED BY IDOCK:    6.87 KCAL/MOL
REMARK 927      BINDING AFFINITY PREDICTED BY RF-SCORE:    0.00 PKD
ROOT
HETATM    1  C   UNK A   0     -12.425  15.461  70.997  1.00  0.00    -0.411 C  
HETATM    2  O   UNK A   0     -13.846  15.305  70.837  1.00  0.00    -0.702 OA 
HETATM    3  C   UNK A   0     -11.825  14.128  71.385  1.00  0.00    -0.071 C  
HETATM    4  H   UNK A   0     -14.223  16.142  70.593  1.00  0.00     0.000 HD 
ENDROOT
BRANCH   1   5
HETATM    5  C   UNK A   0     -11.877  15.907  69.652  1.00  0.00    -0.290 C  
HETATM    6  O   UNK A   0     -11.492  17.204  69.643  1.00  0.00     0.044 OA 
HETATM    7  H   UNK A   0     -11.149  17.483  68.802  1.00  0.00     0.000 HD 
BRANCH   5   8
HETATM    8  N   UNK A   0     -11.744  15.113  68.641  1.00  0.00    -0.406 NA 
HETATM    9  H   UNK A   0     -12.568  14.765  68.150  1.00  0.00     0.000 HD 
BRANCH   8  10
HETATM   10  C   UNK A   0     -10.436  14.725  68.216  1.00  0.00    -0.241 A  
HETATM   11  C   UNK A   0      -9.419  15.675  67.967  1.00  0.00    -0.194 A  
HETATM   12  I   UNK A   0      -9.870  17.784  68.367  1.00  0.00    -0.393 I  
HETATM   13  C   UNK A   0      -8.112  15.262  67.629  1.00  0.00    -0.173 A  
HETATM   14  I   UNK A   0     -11.754  11.946  68.318  1.00  0.00    -0.155 I  
HETATM   15  C   UNK A   0      -7.772  13.890  67.813  1.00  0.00    -0.172 A  
HETATM   16  I   UNK A   0      -5.652  13.446  68.106  1.00  0.00    -0.110 I  
HETATM   17  C   UNK A   0     -10.101  13.337  68.197  1.00  0.00    -0.241 A  
HETATM   18  C   UNK A   0      -8.760  12.898  68.088  1.00  0.00    -0.190 A  
BRANCH  13  19
HETATM   19  C   UNK A   0      -7.115  16.176  66.985  1.00  0.00    -0.213 C  
HETATM   20  O   UNK A   0      -5.938  15.640  66.634  1.00  0.00     0.132 OA 
HETATM   21  H   UNK A   0      -5.306  16.219  66.226  1.00  0.00     0.000 HD 
BRANCH  19  22
ATOM     22  N   SER A   1      -7.354  17.419  66.755  1.00  0.00    -0.193 NA 
ATOM     23  H   SER A   1      -8.249  17.721  66.371  1.00  0.00     0.000 HD 
BRANCH  22  24
ATOM     24  CA  SER A   1      -6.281  18.404  67.069  1.00  0.00    -0.169 C  
BRANCH  24  25
ATOM     25  C   SER A   1      -5.196  18.249  65.987  1.00  0.00    -0.168 C  
ATOM     26  H   SER A   1      -5.070  18.432  64.032  1.00  0.00     0.000 HD 
ATOM     27  O   SER A   1      -5.739  18.528  64.699  1.00  0.00    -0.209 OA 
ENDBRANCH  24  25
BRANCH  24  28
ATOM     28  CB  SER A   1      -5.628  18.156  68.444  1.00  0.00    -0.166 C  
ATOM     29  OG  SER A   1      -6.549  17.807  69.476  1.00  0.00    -0.235 OA 
ATOM     30  HG  SER A   1      -6.147  17.654  70.323  1.00  0.00     0.000 HD 
ENDBRANCH  24  28
ENDBRANCH  22  24
ENDBRANCH  19  22
ENDBRANCH  13  19
BRANCH  18  31
HETATM   31  C   UNK A   0      -8.362  11.460  68.314  1.00  0.00    -0.152 C  
HETATM   32  H   UNK A   0      -8.633   9.982  69.558  1.00  0.00     0.000 HD 
HETATM   33  O   UNK A   0      -8.883  10.887  69.416  1.00  0.00    -0.042 OA 
BRANCH  31  34
ATOM     34  N   SER A   1      -7.540  10.803  67.570  1.00  0.00    -0.092 NA 
ATOM     35  H   SER A   1      -6.530  10.899  67.682  1.00  0.00     0.000 HD 
BRANCH  34  36
ATOM     36  CA  SER A   1      -8.124   9.894  66.538  1.00  0.00    -0.117 C  
BRANCH  36  37
ATOM     37  CB  SER A   1      -8.495   8.576  67.224  1.00  0.00    -0.123 C  
ATOM     38  HG  SER A   1     -10.143   7.587  67.660  1.00  0.00     0.000 HD 
ATOM     39  OG  SER A   1      -9.913   8.404  67.234  1.00  0.00    -0.185 OA 
ENDBRANCH  36  37
BRANCH  36  40
ATOM     40  C   SER A   1      -9.378  10.552  65.931  1.00  0.00    -0.181 C  
ATOM     41  H   SER A   1     -10.438  10.400  64.276  1.00  0.00     0.000 HD 
ATOM     42  O   SER A   1      -9.665   9.994  64.650  1.00  0.00    -0.310 OA 
ENDBRANCH  36  40
ENDBRANCH  34  36
ENDBRANCH  31  34
ENDBRANCH  18  31
ENDBRANCH   8  10
ENDBRANCH   5   8
ENDBRANCH   1   5
TORSDOF 13
ENDMDL
MODEL      251
REMARK 921   NORMALIZED FREE ENERGY PREDICTED BY IDOCK:    1.50 KCAL/MOL
REMARK 922        TOTAL FREE ENERGY PREDICTED BY IDOCK:    1.71 KCAL/MOL
REMARK 923 INTER-LIGAND FREE ENERGY PREDICTED BY IDOCK:   -3.65 KCAL/MOL
REMARK 924 INTRA-LIGAND FREE ENERGY PREDICTED BY IDOCK:    5.35 KCAL/MOL
REMARK 927      BINDING AFFINITY PREDICTED BY RF-SCORE:    0.00 PKD
ROOT
HETATM    1  C   UNK A   0     -10.577   9.871  69.082  1.00  0.00    -0.220 C  
HETATM    2  O   UNK A   0      -9.210   9.638  69.466  1.00  0.00    -0.175 OA 
HETATM    3  C   UNK A   0     -10.725   9.600  67.602  1.00  0.00    -0.324 C  
HETATM    4  H   UNK A   0      -9.117   9.809  70.395  1.00  0.00     0.000 HD 
ENDROOT
BRANCH   1   5
HETATM    5  C   UNK A   0     -11.430   8.899  69.878  1.00  0.00     0.117 C  
HETATM    6  O   UNK A   0     -12.553   9.467  70.375  1.00  0.00    -0.480 OA 
HETATM    7  H   UNK A   0     -13.087   8.859  70.873  1.00  0.00     0.000 HD 
BRANCH   5   8
HETATM    8  N   UNK A   0     -11.137   7.648  70.018  1.00  0.00    -0.377 NA 
HETATM    9  H   UNK A   0     -11.863   6.975  70.261  1.00  0.00     0.000 HD 
BRANCH   8  10
HETATM   10  C   UNK A   0      -9.788   7.215  69.831  1.00  0.00    -0.174 A  
HETATM   11  C   UNK A   0      -8.808   7.365  70.840  1.00  0.00    -0.148 A  
HETATM   12  I   UNK A   0      -9.446   8.185  72.772  1.00  0.00    -0.268 I  
HETATM   13  C   UNK A   0      -7.504   6.854  70.662  1.00  0.00    -0.082 A  
HETATM   14  I   UNK A   0     -10.910   6.512  67.053  1.00  0.00    -0.153 I  
HETATM   15  C   UNK A   0      -7.277   5.955  69.580  1.00  0.00    -0.070 A  
HETATM   16  I   UNK A   0      -5.598   4.573  69.802  1.00  0.00    -0.014 I  
HETATM   17  C   UNK A   0      -9.460   6.469  68.659  1.00  0.00    -0.123 A  
HETATM   18  C   UNK A   0      -8.244   5.753  68.550  1.00  0.00    -0.108 A  
BRANCH  13  19
HETATM   19  C   UNK A   0      -6.339   7.304  71.488  1.00  0.00    -0.036 C  
HETATM   20  O   UNK A   0      -6.296   6.879  72.758  1.00  0.00    -0.053 OA 
HETATM   21  H   UNK A   0      -5.556   7.164  73.282  1.00  0.00     0.000 HD 
BRANCH  19  22
ATOM     22  N   SER A   1      -5.400   8.052  71.024  1.00  0.00    -0.029 NA 
ATOM     23  H   SER A   1      -4.667   7.668  70.428  1.00  0.00     0.000 HD 
BRANCH  22  24
ATOM     24  CA  SER A   1      -5.420   9.497  71.384  1.00  0.00    -0.070 C  
BRANCH  24  25
ATOM     25  C   SER A   1      -6.341   9.645  72.609  1.00  0.00     0.736 C  
ATOM     26  H   SER A   1      -6.136   9.777  74.562  1.00  0.00     0.000 HD 
ATOM     27  O   SER A   1      -5.567   9.686  73.806  1.00  0.00    -0.309 OA 
ENDBRANCH  24  25
BRANCH  24  28
ATOM     28  CB  SER A   1      -5.978  10.386  70.253  1.00  0.00    -0.096 C  
ATOM     29  OG  SER A   1      -6.258  11.728  70.646  1.00  0.00    -0.500 OA 
ATOM     30  HG  SER A   1      -6.602  12.275  69.950  1.00  0.00     0.000 HD 
ENDBRANCH  24  28
ENDBRANCH  22  24
ENDBRANCH  19  22
ENDBRANCH  13  19
BRANCH  18  31
HETATM   31  C   UNK A   0      -7.987   4.767  67.437  1.00  0.00    -0.094 C  
HETATM   32  H   UNK A   0      -8.701   3.126  66.661  1.00  0.00     0.000 HD 
HETATM   33  O   UNK A   0      -8.863   3.747  67.362  1.00  0.00    -0.107 OA 
BRANCH  31  34
ATOM     34  N   SER A   1      -6.982   4.818  66.631  1.00  0.00    -0.065 NA 
ATOM     35  H   SER A   1      -6.330   4.037  66.546  1.00  0.00     0.000 HD 
BRANCH  34  36
ATOM     36  CA  SER A   1      -6.810   6.065  65.827  1.00  0.00    -0.056 C  
BRANCH  36  37
ATOM     37  CB  SER A   1      -7.660   5.931  64.560  1.00  0.00    -0.087 C  
ATOM     38  HG  SER A   1      -9.301   4.987  64.014  1.00  0.00     0.000 HD 
ATOM     39  OG  SER A   1      -8.774   5.071  64.800  1.00  0.00    -0.151 OA 
ENDBRANCH  36  37
BRANCH  36  40
ATOM     40  C   SER A   1      -7.277   7.275  66.658  1.00  0.00    -0.080 C  
ATOM     41  H   SER A   1      -6.460   8.864  67.492  1.00  0.00     0.000 HD 
ATOM     42  O   SER A   1      -6.172   8.118  66.979  1.00  0.00    -0.052 OA 
ENDBRANCH  36  40
ENDBRANCH  34  36
ENDBRANCH  31  34
ENDBRANCH  18  31
ENDBRANCH   8  10
ENDBRANCH   5   8
ENDBRANCH   1   5
TORSDOF 13
ENDMDL
MODEL      252
REMARK 921   NORMALIZED FREE ENERGY PREDICTED BY IDOCK:    1.65 KCAL/MOL
REMARK 922        TOTAL FREE ENERGY PREDICTED BY IDOCK:    1.97 KCAL/MOL
REMARK 923 INTER-LIGAND FREE ENERGY PREDICTED BY IDOCK:   -2.56 KCAL/MOL
REMARK 924 INTRA-LIGAND FREE ENERGY PREDICTED BY IDOCK:    4.53 KCAL/MOL
REMARK 927      BINDING AFFINITY PREDICTED BY RF-SCORE:    0.00 PKD
ROOT
HETATM    1  C   UNK A   0     -10.617  19.471  65.820  1.00  0.00    -0.427 C  
HETATM    2  O   UNK A   0     -11.513  19.839  66.884  1.00  0.00     0.055 OA 
HETATM    3  C   UNK A   0      -9.340  20.270  65.956  1.00  0.00    -0.227 C  
HETATM    4  H   UNK A   0     -12.315  19.338  66.798  1.00  0.00     0.000 HD 
ENDROOT
BRANCH   1   5
HETATM    5  C   UNK A   0     -10.325  17.989  65.983  1.00  0.00    -0.331 C  
HETATM    6  O   UNK A   0     -11.431  17.263  66.267  1.00  0.00     0.807 OA 
HETATM    7  H   UNK A   0     -11.249  16.336  66.369  1.00  0.00     0.000 HD 
BRANCH   5   8
HETATM    8  N   UNK A   0      -9.152  17.474  65.815  1.00  0.00    -0.458 NA 
HETATM    9  H   UNK A   0      -8.481  17.921  65.191  1.00  0.00     0.000 HD 
BRANCH   8  10
HETATM   10  C   UNK A   0      -8.804  16.274  66.507  1.00  0.00    -0.283 A  
HETATM   11  C   UNK A   0      -9.378  15.025  66.175  1.00  0.00    -0.292 A  
HETATM   12  I   UNK A   0     -10.750  14.954  64.465  1.00  0.00     0.658 I  
HETATM   13  C   UNK A   0      -8.955  13.841  66.818  1.00  0.00    -0.202 A  
HETATM   14  I   UNK A   0      -7.093  18.269  68.108  1.00  0.00    -0.272 I  
HETATM   15  C   UNK A   0      -7.762  13.889  67.597  1.00  0.00    -0.184 A  
HETATM   16  I   UNK A   0      -6.696  12.000  67.859  1.00  0.00    -0.122 I  
HETATM   17  C   UNK A   0      -7.733  16.309  67.451  1.00  0.00    -0.160 A  
HETATM   18  C   UNK A   0      -7.134  15.124  67.941  1.00  0.00    -0.161 A  
BRANCH  13  19
HETATM   19  C   UNK A   0      -9.762  12.581  66.805  1.00  0.00    -0.234 C  
HETATM   20  O   UNK A   0     -11.054  12.690  66.466  1.00  0.00    -0.262 OA 
HETATM   21  H   UNK A   0     -11.566  11.890  66.457  1.00  0.00     0.000 HD 
BRANCH  19  22
ATOM     22  N   SER A   1      -9.263  11.429  67.089  1.00  0.00    -0.164 NA 
ATOM     23  H   SER A   1      -8.492  11.338  67.750  1.00  0.00     0.000 HD 
BRANCH  22  24
ATOM     24  CA  SER A   1      -9.849  10.232  66.422  1.00  0.00    -0.217 C  
BRANCH  24  25
ATOM     25  C   SER A   1      -9.716   9.056  67.407  1.00  0.00    -0.168 C  
ATOM     26  H   SER A   1      -9.283   7.138  67.315  1.00  0.00     0.000 HD 
ATOM     27  O   SER A   1      -9.365   7.864  66.707  1.00  0.00    -0.162 OA 
ENDBRANCH  24  25
BRANCH  24  28
ATOM     28  CB  SER A   1      -9.112   9.856  65.120  1.00  0.00    -0.211 C  
ATOM     29  OG  SER A   1      -9.898   9.100  64.200  1.00  0.00     0.061 OA 
ATOM     30  HG  SER A   1      -9.444   8.868  63.398  1.00  0.00     0.000 HD 
ENDBRANCH  24  28
ENDBRANCH  22  24
ENDBRANCH  19  22
ENDBRANCH  13  19
BRANCH  18  31
HETATM   31  C   UNK A   0      -5.853  15.138  68.738  1.00  0.00    -0.089 C  
HETATM   32  H   UNK A   0      -4.328  14.008  69.191  1.00  0.00     0.000 HD 
HETATM   33  O   UNK A   0      -5.135  14.000  68.690  1.00  0.00    -0.081 OA 
BRANCH  31  34
ATOM     34  N   SER A   1      -5.461  16.120  69.476  1.00  0.00    -0.119 NA 
ATOM     35  H   SER A   1      -4.961  16.915  69.079  1.00  0.00     0.000 HD 
BRANCH  34  36
ATOM     36  CA  SER A   1      -5.768  16.045  70.937  1.00  0.00     0.166 C  
BRANCH  36  37
ATOM     37  CB  SER A   1      -5.176  14.740  71.477  1.00  0.00    -0.132 C  
ATOM     38  HG  SER A   1      -5.846  12.977  72.049  1.00  0.00     0.000 HD 
ATOM     39  OG  SER A   1      -6.213  13.787  71.713  1.00  0.00    -0.166 OA 
ENDBRANCH  36  37
BRANCH  36  40
ATOM     40  C   SER A   1      -5.137  17.254  71.652  1.00  0.00     0.265 C  
ATOM     41  H   SER A   1      -5.641  19.113  72.074  1.00  0.00     0.000 HD 
ATOM     42  O   SER A   1      -6.029  18.368  71.633  1.00  0.00     0.547 OA 
ENDBRANCH  36  40
ENDBRANCH  34  36
ENDBRANCH  31  34
ENDBRANCH  18  31
ENDBRANCH   8  10
ENDBRANCH   5   8
ENDBRANCH   1   5
TORSDOF 13
ENDMDL
MODEL      253
REMARK 921   NORMALIZED FREE ENERGY PREDICTED BY IDOCK:    1.91 KCAL/MOL
REMARK 922        TOTAL FREE ENERGY PREDICTED BY IDOCK:    2.43 KCAL/MOL
REMARK 923 INTER-LIGAND FREE ENERGY PREDICTED BY IDOCK:   -5.31 KCAL/MOL
REMARK 924 INTRA-LIGAND FREE ENERGY PREDICTED BY IDOCK:    7.75 KCAL/MOL
REMARK 927      BINDING AFFINITY PREDICTED BY RF-SCORE:    0.00 PKD
ROOT
HETATM    1  C   UNK A   0      -6.167  13.274  70.021  1.00  0.00    -0.079 C  
HETATM    2  O   UNK A   0      -5.125  14.123  70.534  1.00  0.00    -0.096 OA 
HETATM    3  C   UNK A   0      -7.454  14.065  69.949  1.00  0.00     0.530 C  
HETATM    4  H   UNK A   0      -4.317  13.626  70.580  1.00  0.00     0.000 HD 
ENDROOT
BRANCH   1   5
HETATM    5  C   UNK A   0      -5.740  12.846  68.627  1.00  0.00    -0.068 C  
HETATM    6  O   UNK A   0      -5.233  11.591  68.593  1.00  0.00    -0.044 OA 
HETATM    7  H   UNK A   0      -4.966  11.323  67.722  1.00  0.00     0.000 HD 
BRANCH   5   8
HETATM    8  N   UNK A   0      -5.896  13.585  67.579  1.00  0.00    -0.344 NA 
HETATM    9  H   UNK A   0      -5.114  13.747  66.945  1.00  0.00     0.000 HD 
BRANCH   8  10
HETATM   10  C   UNK A   0      -7.170  14.173  67.315  1.00  0.00     0.038 A  
HETATM   11  C   UNK A   0      -7.390  15.566  67.431  1.00  0.00    -0.210 A  
HETATM   12  I   UNK A   0      -5.668  16.834  67.920  1.00  0.00    -0.168 I  
HETATM   13  C   UNK A   0      -8.635  16.133  67.085  1.00  0.00    -0.211 A  
HETATM   14  I   UNK A   0      -7.904  11.218  66.873  1.00  0.00    -0.132 I  
HETATM   15  C   UNK A   0      -9.563  15.326  66.363  1.00  0.00    -0.292 A  
HETATM   16  I   UNK A   0     -11.032  16.390  65.144  1.00  0.00     0.214 I  
HETATM   17  C   UNK A   0      -8.207  13.358  66.768  1.00  0.00     0.189 A  
HETATM   18  C   UNK A   0      -9.375  13.921  66.201  1.00  0.00    -0.124 A  
BRANCH  13  19
HETATM   19  C   UNK A   0      -9.059  17.495  67.539  1.00  0.00    -0.234 C  
HETATM   20  O   UNK A   0      -9.721  17.569  68.702  1.00  0.00    -0.295 OA 
HETATM   21  H   UNK A   0      -9.989  18.434  68.989  1.00  0.00     0.000 HD 
BRANCH  19  22
ATOM     22  N   SER A   1      -8.802  18.565  66.871  1.00  0.00    -0.275 NA 
ATOM     23  H   SER A   1      -8.149  18.553  66.088  1.00  0.00     0.000 HD 
BRANCH  22  24
ATOM     24  CA  SER A   1      -9.489  19.822  67.280  1.00  0.00    -0.357 C  
BRANCH  24  25
ATOM     25  C   SER A   1      -9.996  19.613  68.719  1.00  0.00    -0.451 C  
ATOM     26  H   SER A   1      -9.364  19.999  70.542  1.00  0.00     0.000 HD 
ATOM     27  O   SER A   1      -9.051  20.128  69.654  1.00  0.00     0.347 OA 
ENDBRANCH  24  25
BRANCH  24  28
ATOM     28  CB  SER A   1     -10.702  20.155  66.386  1.00  0.00    -0.116 C  
ATOM     29  OG  SER A   1     -10.948  19.203  65.353  1.00  0.00    -0.477 OA 
ATOM     30  HG  SER A   1     -11.695  19.408  64.803  1.00  0.00     0.000 HD 
ENDBRANCH  24  28
ENDBRANCH  22  24
ENDBRANCH  19  22
ENDBRANCH  13  19
BRANCH  18  31
HETATM   31  C   UNK A   0     -10.358  13.102  65.401  1.00  0.00    -0.301 C  
HETATM   32  H   UNK A   0     -11.811  11.819  65.626  1.00  0.00     0.000 HD 
HETATM   33  O   UNK A   0     -11.192  12.335  66.129  1.00  0.00    -0.296 OA 
BRANCH  31  34
ATOM     34  N   SER A   1     -10.396  13.057  64.113  1.00  0.00    -0.531 NA 
ATOM     35  H   SER A   1      -9.545  12.953  63.561  1.00  0.00     0.000 HD 
BRANCH  34  36
ATOM     36  CA  SER A   1     -11.738  13.162  63.463  1.00  0.00    -0.415 C  
BRANCH  36  37
ATOM     37  CB  SER A   1     -12.551  11.925  63.854  1.00  0.00    -0.340 C  
ATOM     38  HG  SER A   1     -14.027  10.866  63.092  1.00  0.00     0.000 HD 
ATOM     39  OG  SER A   1     -13.522  11.633  62.849  1.00  0.00    -0.126 OA 
ENDBRANCH  36  37
BRANCH  36  40
ATOM     40  C   SER A   1     -12.442  14.442  63.953  1.00  0.00     0.040 C  
ATOM     41  H   SER A   1     -13.709  14.945  65.377  1.00  0.00     0.000 HD 
ATOM     42  O   SER A   1     -13.275  14.156  65.075  1.00  0.00    -0.691 OA 
ENDBRANCH  36  40
ENDBRANCH  34  36
ENDBRANCH  31  34
ENDBRANCH  18  31
ENDBRANCH   8  10
ENDBRANCH   5   8
ENDBRANCH   1   5
TORSDOF 13
ENDMDL
MODEL      254
REMARK 921   NORMALIZED FREE ENERGY PREDICTED BY IDOCK:    1.99 KCAL/MOL
REMARK 922        TOTAL FREE ENERGY PREDICTED BY IDOCK:    2.56 KCAL/MOL
REMARK 923 INTER-LIGAND FREE ENERGY PREDICTED BY IDOCK:   -1.10 KCAL/MOL
REMARK 924 INTRA-LIGAND FREE ENERGY PREDICTED BY IDOCK:    3.66 KCAL/MOL
REMARK 927      BINDING AFFINITY PREDICTED BY RF-SCORE:    0.00 PKD
ROOT
HETATM    1  C   UNK A   0      -6.055  17.974  69.960  1.00  0.00    -0.110 C  
HETATM    2  O   UNK A   0      -7.124  18.854  70.348  1.00  0.00     0.643 OA 
HETATM    3  C   UNK A   0      -5.277  17.572  71.193  1.00  0.00    -0.134 C  
HETATM    4  H   UNK A   0      -7.612  19.107  69.574  1.00  0.00     0.000 HD 
ENDROOT
BRANCH   1   5
HETATM    5  C   UNK A   0      -6.698  16.752  69.328  1.00  0.00    -0.229 C  
HETATM    6  O   UNK A   0      -6.756  15.693  70.168  1.00  0.00    -0.079 OA 
HETATM    7  H   UNK A   0      -7.159  14.928  69.773  1.00  0.00     0.000 HD 
BRANCH   5   8
HETATM    8  N   UNK A   0      -7.187  16.746  68.132  1.00  0.00    -0.159 NA 
HETATM    9  H   UNK A   0      -6.853  17.414  67.437  1.00  0.00     0.000 HD 
BRANCH   8  10
HETATM   10  C   UNK A   0      -8.199  15.798  67.788  1.00  0.00    -0.144 A  
HETATM   11  C   UNK A   0      -7.917  14.418  67.653  1.00  0.00    -0.179 A  
HETATM   12  I   UNK A   0      -5.880  13.743  68.107  1.00  0.00    -0.124 I  
HETATM   13  C   UNK A   0      -8.950  13.491  67.396  1.00  0.00    -0.219 A  
HETATM   14  I   UNK A   0      -9.888  18.367  67.677  1.00  0.00    -0.408 I  
HETATM   15  C   UNK A   0     -10.298  13.928  67.548  1.00  0.00    -0.245 A  
HETATM   16  I   UNK A   0     -11.778  12.379  67.976  1.00  0.00    -0.187 I  
HETATM   17  C   UNK A   0      -9.559  16.230  67.735  1.00  0.00    -0.223 A  
HETATM   18  C   UNK A   0     -10.632  15.306  67.708  1.00  0.00    -0.266 A  
BRANCH  13  19
HETATM   19  C   UNK A   0      -8.689  12.116  66.866  1.00  0.00    -0.194 C  
HETATM   20  O   UNK A   0      -7.924  12.022  65.769  1.00  0.00    -0.013 OA 
HETATM   21  H   UNK A   0      -7.759  11.149  65.433  1.00  0.00     0.000 HD 
BRANCH  19  22
ATOM     22  N   SER A   1      -9.153  11.052  67.423  1.00  0.00    -0.141 NA 
ATOM     23  H   SER A   1     -10.057  10.667  67.151  1.00  0.00     0.000 HD 
BRANCH  22  24
ATOM     24  CA  SER A   1      -8.327  10.403  68.479  1.00  0.00    -0.124 C  
BRANCH  24  25
ATOM     25  C   SER A   1      -6.931  11.051  68.424  1.00  0.00    -0.071 C  
ATOM     26  H   SER A   1      -5.065  10.489  68.699  1.00  0.00     0.000 HD 
ATOM     27  O   SER A   1      -5.927  10.088  68.733  1.00  0.00    -0.038 OA 
ENDBRANCH  24  25
BRANCH  24  28
ATOM     28  CB  SER A   1      -8.161   8.885  68.256  1.00  0.00    -0.109 C  
ATOM     29  OG  SER A   1      -9.233   8.097  68.770  1.00  0.00    -0.144 OA 
ATOM     30  HG  SER A   1      -9.130   7.163  68.632  1.00  0.00     0.000 HD 
ENDBRANCH  24  28
ENDBRANCH  22  24
ENDBRANCH  19  22
ENDBRANCH  13  19
BRANCH  18  31
HETATM   31  C   UNK A   0     -12.066  15.732  67.902  1.00  0.00     0.482 C  
HETATM   32  H   UNK A   0     -13.648  16.261  66.890  1.00  0.00     0.000 HD 
HETATM   33  O   UNK A   0     -12.745  15.993  66.768  1.00  0.00     2.279 OA 
BRANCH  31  34
ATOM     34  N   SER A   1     -12.629  15.908  69.048  1.00  0.00    -0.219 NA 
ATOM     35  H   SER A   1     -13.175  16.746  69.247  1.00  0.00     0.000 HD 
BRANCH  34  36
ATOM     36  CA  SER A   1     -12.450  14.834  70.072  1.00  0.00    -0.281 C  
BRANCH  36  37
ATOM     37  CB  SER A   1     -11.109  15.071  70.774  1.00  0.00    -0.190 C  
ATOM     38  HG  SER A   1     -10.374  16.330  72.099  1.00  0.00     0.000 HD 
ATOM     39  OG  SER A   1     -11.206  16.183  71.664  1.00  0.00    -0.222 OA 
ENDBRANCH  36  37
BRANCH  36  40
ATOM     40  C   SER A   1     -13.605  14.902  71.089  1.00  0.00    -0.403 C  
ATOM     41  H   SER A   1     -14.884  16.254  71.741  1.00  0.00     0.000 HD 
ATOM     42  O   SER A   1     -14.172  16.211  71.115  1.00  0.00     0.354 OA 
ENDBRANCH  36  40
ENDBRANCH  34  36
ENDBRANCH  31  34
ENDBRANCH  18  31
ENDBRANCH   8  10
ENDBRANCH   5   8
ENDBRANCH   1   5
TORSDOF 13
ENDMDL
MODEL      255
REMARK 921   NORMALIZED FREE ENERGY PREDICTED BY IDOCK:    2.11 KCAL/MOL
REMARK 922        TOTAL FREE ENERGY PREDICTED BY IDOCK:    2.79 KCAL/MOL
REMARK 923 INTER-LIGAND FREE ENERGY PREDICTED BY IDOCK:   -0.19 KCAL/MOL
REMARK 924 INTRA-LIGAND FREE ENERGY PREDICTED BY IDOCK:    2.98 KCAL/MOL
REMARK 927      BINDING AFFINITY PREDICTED BY RF-SCORE:    0.00 PKD
ROOT
HETATM    1  C   UNK A   0      -6.328  12.424  67.310  1.00  0.00    -0.142 C  
HETATM    2  O   UNK A   0      -7.470  12.479  66.435  1.00  0.00    -0.128 OA 
HETATM    3  C   UNK A   0      -5.133  11.929  66.527  1.00  0.00     0.088 C  
HETATM    4  H   UNK A   0      -8.220  12.790  66.928  1.00  0.00     0.000 HD 
ENDROOT
BRANCH   1   5
HETATM    5  C   UNK A   0      -6.080  13.840  67.800  1.00  0.00    -0.132 C  
HETATM    6  O   UNK A   0      -5.168  14.504  67.053  1.00  0.00     0.164 OA 
HETATM    7  H   UNK A   0      -5.012  15.390  67.359  1.00  0.00     0.000 HD 
BRANCH   5   8
HETATM    8  N   UNK A   0      -6.717  14.370  68.792  1.00  0.00    -0.087 NA 
HETATM    9  H   UNK A   0      -6.211  14.666  69.626  1.00  0.00     0.000 HD 
BRANCH   8  10
HETATM   10  C   UNK A   0      -8.133  14.536  68.713  1.00  0.00    -0.146 A  
HETATM   11  C   UNK A   0      -9.029  13.500  69.066  1.00  0.00     0.375 A  
HETATM   12  I   UNK A   0      -8.179  11.642  69.863  1.00  0.00     3.089 I  
HETATM   13  C   UNK A   0     -10.424  13.716  69.058  1.00  0.00    -0.099 A  
HETATM   14  I   UNK A   0      -7.264  17.282  67.631  1.00  0.00    -0.200 I  
HETATM   15  C   UNK A   0     -10.895  15.058  68.959  1.00  0.00    -0.242 A  
HETATM   16  I   UNK A   0     -12.885  15.452  69.772  1.00  0.00     0.780 I  
HETATM   17  C   UNK A   0      -8.660  15.831  68.422  1.00  0.00    -0.171 A  
HETATM   18  C   UNK A   0     -10.026  16.140  68.626  1.00  0.00    -0.228 A  
BRANCH  13  19
HETATM   19  C   UNK A   0     -11.417  12.596  69.037  1.00  0.00    -0.303 C  
HETATM   20  O   UNK A   0     -11.458  11.801  70.115  1.00  0.00    -0.482 OA 
HETATM   21  H   UNK A   0     -12.088  11.090  70.101  1.00  0.00     0.000 HD 
BRANCH  19  22
ATOM     22  N   SER A   1     -12.216  12.390  68.050  1.00  0.00    -0.277 NA 
ATOM     23  H   SER A   1     -13.228  12.393  68.182  1.00  0.00     0.000 HD 
BRANCH  22  24
ATOM     24  CA  SER A   1     -11.618  12.146  66.708  1.00  0.00    -0.345 C  
BRANCH  24  25
ATOM     25  C   SER A   1     -10.355  11.291  66.926  1.00  0.00    -0.234 C  
ATOM     26  H   SER A   1      -9.934   9.396  67.251  1.00  0.00     0.000 HD 
ATOM     27  O   SER A   1     -10.712   9.923  67.116  1.00  0.00    -0.253 OA 
ENDBRANCH  24  25
BRANCH  24  28
ATOM     28  CB  SER A   1     -11.198  13.449  65.997  1.00  0.00    -0.296 C  
ATOM     29  OG  SER A   1     -11.451  13.458  64.593  1.00  0.00    -0.324 OA 
ATOM     30  HG  SER A   1     -11.193  14.261  64.156  1.00  0.00     0.000 HD 
ENDBRANCH  24  28
ENDBRANCH  22  24
ENDBRANCH  19  22
ENDBRANCH  13  19
BRANCH  18  31
HETATM   31  C   UNK A   0     -10.550  17.554  68.564  1.00  0.00    -0.312 C  
HETATM   32  H   UNK A   0     -11.777  18.681  67.549  1.00  0.00     0.000 HD 
HETATM   33  O   UNK A   0     -11.447  17.791  67.588  1.00  0.00     0.282 OA 
BRANCH  31  34
ATOM     34  N   SER A   1     -10.153  18.516  69.325  1.00  0.00    -0.364 NA 
ATOM     35  H   SER A   1     -10.530  18.638  70.265  1.00  0.00     0.000 HD 
BRANCH  34  36
ATOM     36  CA  SER A   1      -9.118  19.444  68.775  1.00  0.00    -0.361 C  
BRANCH  36  37
ATOM     37  CB  SER A   1      -9.822  20.439  67.848  1.00  0.00    -0.293 C  
ATOM     38  HG  SER A   1     -10.111  20.654  65.911  1.00  0.00     0.000 HD 
ATOM     39  OG  SER A   1      -9.674  20.037  66.486  1.00  0.00    -0.392 OA 
ENDBRANCH  36  37
BRANCH  36  40
ATOM     40  C   SER A   1      -8.433  20.188  69.936  1.00  0.00     1.099 C  
ATOM     41  H   SER A   1      -6.592  20.508  70.568  1.00  0.00     0.000 HD 
ATOM     42  O   SER A   1      -7.015  20.049  69.852  1.00  0.00    -0.260 OA 
ENDBRANCH  36  40
ENDBRANCH  34  36
ENDBRANCH  31  34
ENDBRANCH  18  31
ENDBRANCH   8  10
ENDBRANCH   5   8
ENDBRANCH   1   5
TORSDOF 13
ENDMDL
MODEL      256
REMARK 921   NORMALIZED FREE ENERGY PREDICTED BY IDOCK:    2.12 KCAL/MOL
REMARK 922        TOTAL FREE ENERGY PREDICTED BY IDOCK:    2.79 KCAL/MOL
REMARK 923 INTER-LIGAND FREE ENERGY PREDICTED BY IDOCK:   -2.39 KCAL/MOL
REMARK 924 INTRA-LIGAND FREE ENERGY PREDICTED BY IDOCK:    5.18 KCAL/MOL
REMARK 927      BINDING AFFINITY PREDICTED BY RF-SCORE:    0.00 PKD
ROOT
HETATM    1  C   UNK A   0      -7.097   3.971  67.160  1.00  0.00    -0.064 C  
HETATM    2  O   UNK A   0      -8.255   4.718  67.571  1.00  0.00    -0.104 OA 
HETATM    3  C   UNK A   0      -7.549   2.720  66.440  1.00  0.00    -0.076 C  
HETATM    4  H   UNK A   0      -7.971   5.504  68.024  1.00  0.00     0.000 HD 
ENDROOT
BRANCH   1   5
HETATM    5  C   UNK A   0      -6.312   4.863  66.213  1.00  0.00    -0.036 C  
HETATM    6  O   UNK A   0      -5.130   4.323  65.838  1.00  0.00    -0.008 OA 
HETATM    7  H   UNK A   0      -4.638   4.880  65.246  1.00  0.00     0.000 HD 
BRANCH   5   8
HETATM    8  N   UNK A   0      -6.756   5.993  65.771  1.00  0.00    -0.047 NA 
HETATM    9  H   UNK A   0      -6.894   6.135  64.771  1.00  0.00     0.000 HD 
BRANCH   8  10
HETATM   10  C   UNK A   0      -7.052   7.043  66.694  1.00  0.00    -0.078 A  
HETATM   11  C   UNK A   0      -6.533   7.051  68.010  1.00  0.00    -0.047 A  
HETATM   12  I   UNK A   0      -5.144   5.448  68.570  1.00  0.00     0.000 I  
HETATM   13  C   UNK A   0      -6.772   8.141  68.874  1.00  0.00    -0.049 A  
HETATM   14  I   UNK A   0      -8.751   8.000  64.314  1.00  0.00     0.927 I  
HETATM   15  C   UNK A   0      -7.304   9.339  68.314  1.00  0.00    -0.078 A  
HETATM   16  I   UNK A   0      -6.885  11.188  69.401  1.00  0.00    -0.053 I  
HETATM   17  C   UNK A   0      -7.760   8.193  66.227  1.00  0.00    -0.094 A  
HETATM   18  C   UNK A   0      -7.820   9.387  66.985  1.00  0.00    -0.098 A  
BRANCH  13  19
HETATM   19  C   UNK A   0      -6.597   8.050  70.359  1.00  0.00    -0.037 C  
HETATM   20  O   UNK A   0      -5.340   7.980  70.818  1.00  0.00    -0.026 OA 
HETATM   21  H   UNK A   0      -5.229   7.922  71.760  1.00  0.00     0.000 HD 
BRANCH  19  22
ATOM     22  N   SER A   1      -7.587   8.051  71.180  1.00  0.00    -0.077 NA 
ATOM     23  H   SER A   1      -7.681   8.777  71.891  1.00  0.00     0.000 HD 
BRANCH  22  24
ATOM     24  CA  SER A   1      -8.592   6.958  71.061  1.00  0.00    -0.135 C  
BRANCH  24  25
ATOM     25  C   SER A   1      -9.532   7.074  72.275  1.00  0.00    -0.139 C  
ATOM     26  H   SER A   1     -11.212   8.000  72.717  1.00  0.00     0.000 HD 
ATOM     27  O   SER A   1     -10.632   7.928  71.968  1.00  0.00    -0.214 OA 
ENDBRANCH  24  25
BRANCH  24  28
ATOM     28  CB  SER A   1      -7.951   5.554  71.082  1.00  0.00    -0.111 C  
ATOM     29  OG  SER A   1      -7.473   5.148  72.363  1.00  0.00    -0.090 OA 
ATOM     30  HG  SER A   1      -7.079   4.284  72.376  1.00  0.00     0.000 HD 
ENDBRANCH  24  28
ENDBRANCH  22  24
ENDBRANCH  19  22
ENDBRANCH  13  19
BRANCH  18  31
HETATM   31  C   UNK A   0      -8.343  10.680  66.409  1.00  0.00    -0.151 C  
HETATM   32  H   UNK A   0      -7.879  12.567  66.235  1.00  0.00     0.000 HD 
HETATM   33  O   UNK A   0      -7.550  11.753  66.597  1.00  0.00    -0.108 OA 
BRANCH  31  34
ATOM     34  N   SER A   1      -9.485  10.813  65.828  1.00  0.00    -0.194 NA 
ATOM     35  H   SER A   1     -10.085  10.008  65.647  1.00  0.00     0.000 HD 
BRANCH  34  36
ATOM     36  CA  SER A   1      -9.896  12.194  65.430  1.00  0.00    -0.211 C  
BRANCH  36  37
ATOM     37  CB  SER A   1     -10.481  12.124  64.017  1.00  0.00    -0.386 C  
ATOM     38  HG  SER A   1     -11.347  13.359  62.749  1.00  0.00     0.000 HD 
ATOM     39  OG  SER A   1     -10.984  13.402  63.626  1.00  0.00    -0.110 OA 
ENDBRANCH  36  37
BRANCH  36  40
ATOM     40  C   SER A   1     -10.953  12.716  66.422  1.00  0.00    -0.272 C  
ATOM     41  H   SER A   1     -10.980  13.742  68.106  1.00  0.00     0.000 HD 
ATOM     42  O   SER A   1     -10.328  13.420  67.494  1.00  0.00    -0.224 OA 
ENDBRANCH  36  40
ENDBRANCH  34  36
ENDBRANCH  31  34
ENDBRANCH  18  31
ENDBRANCH   8  10
ENDBRANCH   5   8
ENDBRANCH   1   5
TORSDOF 13
ENDMDL
MODEL      257
REMARK 921   NORMALIZED FREE ENERGY PREDICTED BY IDOCK:    2.36 KCAL/MOL
REMARK 922        TOTAL FREE ENERGY PREDICTED BY IDOCK:    3.22 KCAL/MOL
REMARK 923 INTER-LIGAND FREE ENERGY PREDICTED BY IDOCK:   -2.52 KCAL/MOL
REMARK 924 INTRA-LIGAND FREE ENERGY PREDICTED BY IDOCK:    5.74 KCAL/MOL
REMARK 927      BINDING AFFINITY PREDICTED BY RF-SCORE:    0.00 PKD
ROOT
HETATM    1  C   UNK A   0     -11.222   5.631  71.255  1.00  0.00    -0.075 C  
HETATM    2  O   UNK A   0     -10.575   5.662  72.540  1.00  0.00    -0.203 OA 
HETATM    3  C   UNK A   0     -11.363   7.046  70.742  1.00  0.00    -0.339 C  
HETATM    4  H   UNK A   0     -10.487   4.773  72.862  1.00  0.00     0.000 HD 
ENDROOT
BRANCH   1   5
HETATM    5  C   UNK A   0     -10.324   4.827  70.330  1.00  0.00    -0.110 C  
HETATM    6  O   UNK A   0      -9.908   3.663  70.879  1.00  0.00    -0.174 OA 
HETATM    7  H   UNK A   0      -9.346   3.160  70.300  1.00  0.00     0.000 HD 
BRANCH   5   8
HETATM    8  N   UNK A   0     -10.036   5.196  69.125  1.00  0.00    -0.190 NA 
HETATM    9  H   UNK A   0     -10.550   4.810  68.334  1.00  0.00     0.000 HD 
BRANCH   8  10
HETATM   10  C   UNK A   0      -8.991   6.146  68.910  1.00  0.00    -0.124 A  
HETATM   11  C   UNK A   0      -9.089   7.155  67.923  1.00  0.00    -0.128 A  
HETATM   12  I   UNK A   0     -10.963   7.299  66.792  1.00  0.00     1.324 I  
HETATM   13  C   UNK A   0      -8.080   8.132  67.786  1.00  0.00    -0.127 A  
HETATM   14  I   UNK A   0      -7.664   4.462  71.117  1.00  0.00    -0.071 I  
HETATM   15  C   UNK A   0      -7.112   8.249  68.826  1.00  0.00    -0.071 A  
HETATM   16  I   UNK A   0      -6.140  10.195  69.034  1.00  0.00    -0.041 I  
HETATM   17  C   UNK A   0      -7.890   6.178  69.819  1.00  0.00    -0.106 A  
HETATM   18  C   UNK A   0      -6.988   7.269  69.856  1.00  0.00    -0.057 A  
BRANCH  13  19
HETATM   19  C   UNK A   0      -7.922   8.965  66.552  1.00  0.00    -0.103 C  
HETATM   20  O   UNK A   0      -7.499   8.338  65.446  1.00  0.00    -0.080 OA 
HETATM   21  H   UNK A   0      -7.399   8.867  64.663  1.00  0.00     0.000 HD 
BRANCH  19  22
ATOM     22  N   SER A   1      -8.185  10.225  66.521  1.00  0.00    -0.124 NA 
ATOM     23  H   SER A   1      -7.520  10.911  66.877  1.00  0.00     0.000 HD 
BRANCH  22  24
ATOM     24  CA  SER A   1      -9.494  10.649  65.949  1.00  0.00    -0.196 C  
BRANCH  24  25
ATOM     25  C   SER A   1      -9.244  11.014  64.474  1.00  0.00    -0.164 C  
ATOM     26  H   SER A   1     -10.209  10.858  62.765  1.00  0.00     0.000 HD 
ATOM     27  O   SER A   1     -10.363  10.633  63.675  1.00  0.00    -0.268 OA 
ENDBRANCH  24  25
BRANCH  24  28
ATOM     28  CB  SER A   1     -10.081  11.887  66.658  1.00  0.00    -0.200 C  
ATOM     29  OG  SER A   1     -10.197  11.752  68.073  1.00  0.00    -0.182 OA 
ATOM     30  HG  SER A   1     -10.559  12.514  68.509  1.00  0.00     0.000 HD 
ENDBRANCH  24  28
ENDBRANCH  22  24
ENDBRANCH  19  22
ENDBRANCH  13  19
BRANCH  18  31
HETATM   31  C   UNK A   0      -5.977   7.440  70.962  1.00  0.00    -0.035 C  
HETATM   32  H   UNK A   0      -4.505   8.595  71.515  1.00  0.00     0.000 HD 
HETATM   33  O   UNK A   0      -5.142   8.487  70.819  1.00  0.00    -0.022 OA 
BRANCH  31  34
ATOM     34  N   SER A   1      -5.840   6.636  71.960  1.00  0.00    -0.037 NA 
ATOM     35  H   SER A   1      -5.638   5.646  71.820  1.00  0.00     0.000 HD 
BRANCH  34  36
ATOM     36  CA  SER A   1      -5.990   7.212  73.331  1.00  0.00    -0.057 C  
BRANCH  36  37
ATOM     37  CB  SER A   1      -6.690   8.567  73.200  1.00  0.00    -0.045 C  
ATOM     38  HG  SER A   1      -7.171  10.067  74.384  1.00  0.00     0.000 HD 
ATOM     39  OG  SER A   1      -6.736   9.227  74.465  1.00  0.00    -0.376 OA 
ENDBRANCH  36  37
BRANCH  36  40
ATOM     40  C   SER A   1      -6.832   6.256  74.197  1.00  0.00    -0.082 C  
ATOM     41  H   SER A   1      -6.592   4.513  75.085  1.00  0.00     0.000 HD 
ATOM     42  O   SER A   1      -6.072   5.102  74.552  1.00  0.00    -0.056 OA 
ENDBRANCH  36  40
ENDBRANCH  34  36
ENDBRANCH  31  34
ENDBRANCH  18  31
ENDBRANCH   8  10
ENDBRANCH   5   8
ENDBRANCH   1   5
TORSDOF 13
ENDMDL
MODEL      258
REMARK 921   NORMALIZED FREE ENERGY PREDICTED BY IDOCK:    2.83 KCAL/MOL
REMARK 922        TOTAL FREE ENERGY PREDICTED BY IDOCK:    4.04 KCAL/MOL
REMARK 923 INTER-LIGAND FREE ENERGY PREDICTED BY IDOCK:   -1.44 KCAL/MOL
REMARK 924 INTRA-LIGAND FREE ENERGY PREDICTED BY IDOCK:    5.49 KCAL/MOL
REMARK 927      BINDING AFFINITY PREDICTED BY RF-SCORE:    0.00 PKD
ROOT
HETATM    1  C   UNK A   0     -10.385   9.981  70.183  1.00  0.00    -0.266 C  
HETATM    2  O   UNK A   0     -11.028   8.931  70.928  1.00  0.00    -0.238 OA 
HETATM    3  C   UNK A   0      -8.962   9.568  69.881  1.00  0.00    -0.231 C  
HETATM    4  H   UNK A   0     -11.922   9.191  71.118  1.00  0.00     0.000 HD 
ENDROOT
BRANCH   1   5
HETATM    5  C   UNK A   0     -11.166  10.145  68.890  1.00  0.00    -0.170 C  
HETATM    6  O   UNK A   0     -11.721   8.989  68.459  1.00  0.00     0.308 OA 
HETATM    7  H   UNK A   0     -12.209   9.091  67.651  1.00  0.00     0.000 HD 
BRANCH   5   8
HETATM    8  N   UNK A   0     -11.326  11.282  68.298  1.00  0.00    -0.262 NA 
HETATM    9  H   UNK A   0     -12.259  11.681  68.197  1.00  0.00     0.000 HD 
BRANCH   8  10
HETATM   10  C   UNK A   0     -10.188  11.975  67.784  1.00  0.00    -0.202 A  
HETATM   11  C   UNK A   0      -9.928  13.329  68.105  1.00  0.00    -0.234 A  
HETATM   12  I   UNK A   0     -11.274  14.317  69.527  1.00  0.00    -0.182 I  
HETATM   13  C   UNK A   0      -8.753  13.966  67.652  1.00  0.00    -0.187 A  
HETATM   14  I   UNK A   0      -9.782   9.271  66.373  1.00  0.00    -0.347 I  
HETATM   15  C   UNK A   0      -7.715  13.155  67.108  1.00  0.00    -0.019 A  
HETATM   16  I   UNK A   0      -5.691  13.972  67.208  1.00  0.00     1.454 I  
HETATM   17  C   UNK A   0      -9.202  11.241  67.057  1.00  0.00    -0.165 A  
HETATM   18  C   UNK A   0      -7.922  11.780  66.788  1.00  0.00    -0.116 A  
BRANCH  13  19
HETATM   19  C   UNK A   0      -8.603  15.456  67.617  1.00  0.00    -0.167 C  
HETATM   20  O   UNK A   0      -9.561  16.177  68.215  1.00  0.00    -0.210 OA 
HETATM   21  H   UNK A   0      -9.465  17.122  68.193  1.00  0.00     0.000 HD 
BRANCH  19  22
ATOM     22  N   SER A   1      -7.604  16.044  67.059  1.00  0.00    -0.211 NA 
ATOM     23  H   SER A   1      -6.684  16.052  67.499  1.00  0.00     0.000 HD 
BRANCH  22  24
ATOM     24  CA  SER A   1      -7.834  16.714  65.748  1.00  0.00     0.650 C  
BRANCH  24  25
ATOM     25  C   SER A   1      -6.874  17.915  65.680  1.00  0.00    -0.125 C  
ATOM     26  H   SER A   1      -6.637  19.513  64.556  1.00  0.00     0.000 HD 
ATOM     27  O   SER A   1      -7.230  18.772  64.597  1.00  0.00     0.502 OA 
ENDBRANCH  24  25
BRANCH  24  28
ATOM     28  CB  SER A   1      -9.276  17.242  65.594  1.00  0.00     0.400 C  
ATOM     29  OG  SER A   1     -10.239  16.234  65.292  1.00  0.00    -0.548 OA 
ATOM     30  HG  SER A   1     -11.127  16.560  65.197  1.00  0.00     0.000 HD 
ENDBRANCH  24  28
ENDBRANCH  22  24
ENDBRANCH  19  22
ENDBRANCH  13  19
BRANCH  18  31
HETATM   31  C   UNK A   0      -6.792  10.939  66.246  1.00  0.00    -0.123 C  
HETATM   32  H   UNK A   0      -5.243   9.909  66.834  1.00  0.00     0.000 HD 
HETATM   33  O   UNK A   0      -5.954  10.438  67.174  1.00  0.00    -0.049 OA 
BRANCH  31  34
ATOM     34  N   SER A   1      -6.565  10.737  64.994  1.00  0.00    -0.363 NA 
ATOM     35  H   SER A   1      -6.895  11.389  64.283  1.00  0.00     0.000 HD 
BRANCH  34  36
ATOM     36  CA  SER A   1      -5.798   9.508  64.625  1.00  0.00    -0.073 C  
BRANCH  36  37
ATOM     37  CB  SER A   1      -5.313   8.849  65.919  1.00  0.00    -0.037 C  
ATOM     38  HG  SER A   1      -5.261   7.034  66.685  1.00  0.00     0.000 HD 
ATOM     39  OG  SER A   1      -5.561   7.443  65.882  1.00  0.00    -0.031 OA 
ENDBRANCH  36  37
BRANCH  36  40
ATOM     40  C   SER A   1      -6.718   8.548  63.848  1.00  0.00    -0.076 C  
ATOM     41  H   SER A   1      -8.409   8.658  62.841  1.00  0.00     0.000 HD 
ATOM     42  O   SER A   1      -7.842   9.250  63.320  1.00  0.00    -0.122 OA 
ENDBRANCH  36  40
ENDBRANCH  34  36
ENDBRANCH  31  34
ENDBRANCH  18  31
ENDBRANCH   8  10
ENDBRANCH   5   8
ENDBRANCH   1   5
TORSDOF 13
ENDMDL
MODEL      259
REMARK 921   NORMALIZED FREE ENERGY PREDICTED BY IDOCK:    3.08 KCAL/MOL
REMARK 922        TOTAL FREE ENERGY PREDICTED BY IDOCK:    4.50 KCAL/MOL
REMARK 923 INTER-LIGAND FREE ENERGY PREDICTED BY IDOCK:   -3.37 KCAL/MOL
REMARK 924 INTRA-LIGAND FREE ENERGY PREDICTED BY IDOCK:    7.87 KCAL/MOL
REMARK 927      BINDING AFFINITY PREDICTED BY RF-SCORE:    0.00 PKD
ROOT
HETATM    1  C   UNK A   0     -11.573   9.550  71.695  1.00  0.00    -0.381 C  
HETATM    2  O   UNK A   0     -12.694   8.656  71.569  1.00  0.00    -0.313 OA 
HETATM    3  C   UNK A   0     -10.586   8.964  72.680  1.00  0.00     0.309 C  
HETATM    4  H   UNK A   0     -13.314   9.025  70.951  1.00  0.00     0.000 HD 
ENDROOT
BRANCH   1   5
HETATM    5  C   UNK A   0     -10.937   9.655  70.319  1.00  0.00    -0.285 C  
HETATM    6  O   UNK A   0     -11.529   8.855  69.402  1.00  0.00    -0.413 OA 
HETATM    7  H   UNK A   0     -11.131   8.920  68.542  1.00  0.00     0.000 HD 
BRANCH   5   8
HETATM    8  N   UNK A   0      -9.968  10.464  70.046  1.00  0.00    -0.421 NA 
HETATM    9  H   UNK A   0      -9.479  10.952  70.796  1.00  0.00     0.000 HD 
BRANCH   8  10
HETATM   10  C   UNK A   0      -9.586  10.673  68.685  1.00  0.00    -0.179 A  
HETATM   11  C   UNK A   0      -9.037   9.635  67.895  1.00  0.00    -0.125 A  
HETATM   12  I   UNK A   0      -8.892   7.638  68.789  1.00  0.00    -0.126 I  
HETATM   13  C   UNK A   0      -8.746   9.844  66.529  1.00  0.00    -0.139 A  
HETATM   14  I   UNK A   0     -10.493  13.531  69.374  1.00  0.00     0.678 I  
HETATM   15  C   UNK A   0      -9.266  11.014  65.902  1.00  0.00    -0.199 A  
HETATM   16  I   UNK A   0      -9.544  10.913  63.737  1.00  0.00    -0.401 I  
HETATM   17  C   UNK A   0      -9.914  11.913  68.059  1.00  0.00    -0.190 A  
HETATM   18  C   UNK A   0      -9.849  12.077  66.654  1.00  0.00    -0.220 A  
BRANCH  13  19
HETATM   19  C   UNK A   0      -7.829   8.952  65.752  1.00  0.00    -0.099 C  
HETATM   20  O   UNK A   0      -6.923   9.550  64.966  1.00  0.00    -0.093 OA 
HETATM   21  H   UNK A   0      -6.341   8.984  64.473  1.00  0.00     0.000 HD 
BRANCH  19  22
ATOM     22  N   SER A   1      -7.875   7.668  65.825  1.00  0.00    -0.099 NA 
ATOM     23  H   SER A   1      -8.635   7.196  66.315  1.00  0.00     0.000 HD 
BRANCH  22  24
ATOM     24  CA  SER A   1      -6.784   6.893  65.169  1.00  0.00    -0.050 C  
BRANCH  24  25
ATOM     25  C   SER A   1      -5.546   6.999  66.079  1.00  0.00    -0.027 C  
ATOM     26  H   SER A   1      -4.477   8.433  66.900  1.00  0.00     0.000 HD 
ATOM     27  O   SER A   1      -5.241   8.368  66.339  1.00  0.00    -0.027 OA 
ENDBRANCH  24  25
BRANCH  24  28
ATOM     28  CB  SER A   1      -6.410   7.451  63.780  1.00  0.00    -0.049 C  
ATOM     29  OG  SER A   1      -7.486   8.089  63.095  1.00  0.00    -0.104 OA 
ATOM     30  HG  SER A   1      -7.255   8.432  62.240  1.00  0.00     0.000 HD 
ENDBRANCH  24  28
ENDBRANCH  22  24
ENDBRANCH  19  22
ENDBRANCH  13  19
BRANCH  18  31
HETATM   31  C   UNK A   0     -10.423  13.287  65.957  1.00  0.00    -0.286 C  
HETATM   32  H   UNK A   0     -10.981  15.123  66.305  1.00  0.00     0.000 HD 
HETATM   33  O   UNK A   0     -10.620  14.362  66.744  1.00  0.00    -0.277 OA 
BRANCH  31  34
ATOM     34  N   SER A   1     -10.773  13.319  64.717  1.00  0.00    -0.355 NA 
ATOM     35  H   SER A   1     -10.325  12.719  64.024  1.00  0.00     0.000 HD 
BRANCH  34  36
ATOM     36  CA  SER A   1     -11.861  14.270  64.336  1.00  0.00    -0.426 C  
BRANCH  36  37
ATOM     37  CB  SER A   1     -12.339  13.902  62.929  1.00  0.00     1.092 C  
ATOM     38  HG  SER A   1     -12.682  12.254  61.905  1.00  0.00     0.000 HD 
ATOM     39  OG  SER A   1     -12.387  12.483  62.778  1.00  0.00     0.105 OA 
ENDBRANCH  36  37
BRANCH  36  40
ATOM     40  C   SER A   1     -13.020  14.147  65.344  1.00  0.00    -0.270 C  
ATOM     41  H   SER A   1     -13.752  12.771  66.551  1.00  0.00     0.000 HD 
ATOM     42  O   SER A   1     -13.037  12.847  65.930  1.00  0.00     0.001 OA 
ENDBRANCH  36  40
ENDBRANCH  34  36
ENDBRANCH  31  34
ENDBRANCH  18  31
ENDBRANCH   8  10
ENDBRANCH   5   8
ENDBRANCH   1   5
TORSDOF 13
ENDMDL
MODEL      260
REMARK 921   NORMALIZED FREE ENERGY PREDICTED BY IDOCK:    3.12 KCAL/MOL
REMARK 922        TOTAL FREE ENERGY PREDICTED BY IDOCK:    4.55 KCAL/MOL
REMARK 923 INTER-LIGAND FREE ENERGY PREDICTED BY IDOCK:   -0.65 KCAL/MOL
REMARK 924 INTRA-LIGAND FREE ENERGY PREDICTED BY IDOCK:    5.20 KCAL/MOL
REMARK 927      BINDING AFFINITY PREDICTED BY RF-SCORE:    0.00 PKD
ROOT
HETATM    1  C   UNK A   0      -9.113  18.943  69.329  1.00  0.00     0.078 C  
HETATM    2  O   UNK A   0      -7.856  18.282  69.558  1.00  0.00     0.190 OA 
HETATM    3  C   UNK A   0      -8.913  20.437  69.454  1.00  0.00     0.927 C  
HETATM    4  H   UNK A   0      -7.981  17.344  69.481  1.00  0.00     0.000 HD 
ENDROOT
BRANCH   1   5
HETATM    5  C   UNK A   0      -9.544  18.590  67.916  1.00  0.00    -0.300 C  
HETATM    6  O   UNK A   0     -10.467  19.445  67.417  1.00  0.00    -0.407 OA 
HETATM    7  H   UNK A   0     -10.737  19.225  66.533  1.00  0.00     0.000 HD 
BRANCH   5   8
HETATM    8  N   UNK A   0      -9.039  17.608  67.244  1.00  0.00    -0.235 NA 
HETATM    9  H   UNK A   0      -8.583  17.780  66.349  1.00  0.00     0.000 HD 
BRANCH   8  10
HETATM   10  C   UNK A   0      -9.126  16.281  67.765  1.00  0.00    -0.195 A  
HETATM   11  C   UNK A   0     -10.330  15.762  68.296  1.00  0.00    -0.239 A  
HETATM   12  I   UNK A   0     -12.120  17.026  68.191  1.00  0.00     3.321 I  
HETATM   13  C   UNK A   0     -10.412  14.421  68.727  1.00  0.00    -0.244 A  
HETATM   14  I   UNK A   0      -6.136  16.320  67.040  1.00  0.00     0.371 I  
HETATM   15  C   UNK A   0      -9.356  13.533  68.365  1.00  0.00    -0.171 A  
HETATM   16  I   UNK A   0      -9.860  11.409  68.280  1.00  0.00    -0.219 I  
HETATM   17  C   UNK A   0      -8.013  15.401  67.600  1.00  0.00    -0.155 A  
HETATM   18  C   UNK A   0      -8.131  14.006  67.807  1.00  0.00    -0.170 A  
BRANCH  13  19
HETATM   19  C   UNK A   0     -11.495  13.926  69.634  1.00  0.00    -0.248 C  
HETATM   20  O   UNK A   0     -11.274  12.767  70.269  1.00  0.00    -0.364 OA 
HETATM   21  H   UNK A   0     -11.961  12.454  70.845  1.00  0.00     0.000 HD 
BRANCH  19  22
ATOM     22  N   SER A   1     -12.594  14.569  69.825  1.00  0.00    -0.548 NA 
ATOM     23  H   SER A   1     -13.110  14.974  69.044  1.00  0.00     0.000 HD 
BRANCH  22  24
ATOM     24  CA  SER A   1     -13.088  14.702  71.224  1.00  0.00    -0.359 C  
BRANCH  24  25
ATOM     25  C   SER A   1     -11.855  14.931  72.119  1.00  0.00    -0.310 C  
ATOM     26  H   SER A   1     -11.428  14.845  74.038  1.00  0.00     0.000 HD 
ATOM     27  O   SER A   1     -12.189  14.704  73.486  1.00  0.00    -0.297 OA 
ENDBRANCH  24  25
BRANCH  24  28
ATOM     28  CB  SER A   1     -13.815  13.436  71.722  1.00  0.00    -0.163 C  
ATOM     29  OG  SER A   1     -13.087  12.685  72.692  1.00  0.00    -0.347 OA 
ATOM     30  HG  SER A   1     -13.535  11.906  72.998  1.00  0.00     0.000 HD 
ENDBRANCH  24  28
ENDBRANCH  22  24
ENDBRANCH  19  22
ENDBRANCH  13  19
BRANCH  18  31
HETATM   31  C   UNK A   0      -7.047  13.037  67.402  1.00  0.00    -0.117 C  
HETATM   32  H   UNK A   0      -6.752  11.457  66.297  1.00  0.00     0.000 HD 
HETATM   33  O   UNK A   0      -7.434  12.067  66.552  1.00  0.00     0.042 OA 
BRANCH  31  34
ATOM     34  N   SER A   1      -5.841  13.057  67.856  1.00  0.00    -0.114 NA 
ATOM     35  H   SER A   1      -5.274  13.905  67.818  1.00  0.00     0.000 HD 
BRANCH  34  36
ATOM     36  CA  SER A   1      -5.306  11.789  68.438  1.00  0.00    -0.042 C  
BRANCH  36  37
ATOM     37  CB  SER A   1      -5.871  11.645  69.854  1.00  0.00    -0.125 C  
ATOM     38  HG  SER A   1      -5.752  12.619  71.563  1.00  0.00     0.000 HD 
ATOM     39  OG  SER A   1      -5.402  12.708  70.684  1.00  0.00    -0.125 OA 
ENDBRANCH  36  37
BRANCH  36  40
ATOM     40  C   SER A   1      -5.748  10.601  67.563  1.00  0.00    -0.044 C  
ATOM     41  H   SER A   1      -6.138   8.684  67.811  1.00  0.00     0.000 HD 
ATOM     42  O   SER A   1      -5.865   9.417  68.350  1.00  0.00    -0.041 OA 
ENDBRANCH  36  40
ENDBRANCH  34  36
ENDBRANCH  31  34
ENDBRANCH  18  31
ENDBRANCH   8  10
ENDBRANCH   5   8
ENDBRANCH   1   5
TORSDOF 13
ENDMDL
MODEL      261
REMARK 921   NORMALIZED FREE ENERGY PREDICTED BY IDOCK:    3.38 KCAL/MOL
REMARK 922        TOTAL FREE ENERGY PREDICTED BY IDOCK:    5.02 KCAL/MOL
REMARK 923 INTER-LIGAND FREE ENERGY PREDICTED BY IDOCK:   -2.22 KCAL/MOL
REMARK 924 INTRA-LIGAND FREE ENERGY PREDICTED BY IDOCK:    7.24 KCAL/MOL
REMARK 927      BINDING AFFINITY PREDICTED BY RF-SCORE:    0.00 PKD
ROOT
HETATM    1  C   UNK A   0     -12.270  14.911  65.495  1.00  0.00     0.021 C  
HETATM    2  O   UNK A   0     -12.930  16.182  65.629  1.00  0.00     2.798 OA 
HETATM    3  C   UNK A   0     -13.268  13.887  65.005  1.00  0.00     0.171 C  
HETATM    4  H   UNK A   0     -12.303  16.825  65.937  1.00  0.00     0.000 HD 
ENDROOT
BRANCH   1   5
HETATM    5  C   UNK A   0     -11.165  15.095  64.469  1.00  0.00    -0.272 C  
HETATM    6  O   UNK A   0     -11.345  16.187  63.690  1.00  0.00    -1.084 OA 
HETATM    7  H   UNK A   0     -10.655  16.303  63.048  1.00  0.00     0.000 HD 
BRANCH   5   8
HETATM    8  N   UNK A   0     -10.135  14.319  64.387  1.00  0.00    -0.610 NA 
HETATM    9  H   UNK A   0      -9.604  14.261  63.519  1.00  0.00     0.000 HD 
BRANCH   8  10
HETATM   10  C   UNK A   0      -9.747  13.543  65.522  1.00  0.00    -0.047 A  
HETATM   11  C   UNK A   0     -10.129  12.188  65.668  1.00  0.00    -0.248 A  
HETATM   12  I   UNK A   0     -11.252  11.261  64.028  1.00  0.00     0.414 I  
HETATM   13  C   UNK A   0      -9.663  11.420  66.757  1.00  0.00    -0.221 A  
HETATM   14  I   UNK A   0      -8.493  16.235  66.328  1.00  0.00     0.015 I  
HETATM   15  C   UNK A   0      -8.595  11.944  67.541  1.00  0.00    -0.160 A  
HETATM   16  I   UNK A   0      -7.366  10.485  68.608  1.00  0.00    -0.115 I  
HETATM   17  C   UNK A   0      -8.818  14.099  66.453  1.00  0.00     0.064 A  
HETATM   18  C   UNK A   0      -8.159  13.297  67.415  1.00  0.00    -0.179 A  
BRANCH  13  19
HETATM   19  C   UNK A   0     -10.316  10.141  67.182  1.00  0.00    -0.238 C  
HETATM   20  O   UNK A   0      -9.742   9.001  66.772  1.00  0.00    -0.179 OA 
HETATM   21  H   UNK A   0     -10.156   8.190  67.043  1.00  0.00     0.000 HD 
BRANCH  19  22
ATOM     22  N   SER A   1     -11.371  10.106  67.918  1.00  0.00    -0.576 NA 
ATOM     23  H   SER A   1     -12.280  10.383  67.548  1.00  0.00     0.000 HD 
BRANCH  22  24
ATOM     24  CA  SER A   1     -11.221   9.650  69.328  1.00  0.00    -0.047 C  
BRANCH  24  25
ATOM     25  C   SER A   1     -11.166  10.913  70.208  1.00  0.00    -0.188 C  
ATOM     26  H   SER A   1     -12.203  11.685  71.692  1.00  0.00     0.000 HD 
ATOM     27  O   SER A   1     -12.237  10.906  71.149  1.00  0.00    -0.352 OA 
ENDBRANCH  24  25
BRANCH  24  28
ATOM     28  CB  SER A   1      -9.925   8.845  69.560  1.00  0.00    -0.191 C  
ATOM     29  OG  SER A   1     -10.125   7.440  69.697  1.00  0.00    -0.179 OA 
ATOM     30  HG  SER A   1      -9.327   6.945  69.840  1.00  0.00     0.000 HD 
ENDBRANCH  24  28
ENDBRANCH  22  24
ENDBRANCH  19  22
ENDBRANCH  13  19
BRANCH  18  31
HETATM   31  C   UNK A   0      -7.001  13.811  68.235  1.00  0.00    -0.109 C  
HETATM   32  H   UNK A   0      -6.053  13.477  69.907  1.00  0.00     0.000 HD 
HETATM   33  O   UNK A   0      -6.781  13.154  69.391  1.00  0.00    -0.096 OA 
BRANCH  31  34
ATOM     34  N   SER A   1      -6.285  14.837  67.928  1.00  0.00    -0.150 NA 
ATOM     35  H   SER A   1      -5.344  14.732  67.546  1.00  0.00     0.000 HD 
BRANCH  34  36
ATOM     36  CA  SER A   1      -6.887  16.186  68.153  1.00  0.00    -0.125 C  
BRANCH  36  37
ATOM     37  CB  SER A   1      -7.469  16.213  69.569  1.00  0.00    -0.084 C  
ATOM     38  HG  SER A   1      -7.055  15.403  71.317  1.00  0.00     0.000 HD 
ATOM     39  OG  SER A   1      -6.694  15.387  70.439  1.00  0.00     0.012 OA 
ENDBRANCH  36  37
BRANCH  36  40
ATOM     40  C   SER A   1      -5.795  17.262  68.003  1.00  0.00    -0.124 C  
ATOM     41  H   SER A   1      -4.470  17.804  66.647  1.00  0.00     0.000 HD 
ATOM     42  O   SER A   1      -5.143  17.141  66.740  1.00  0.00    -0.142 OA 
ENDBRANCH  36  40
ENDBRANCH  34  36
ENDBRANCH  31  34
ENDBRANCH  18  31
ENDBRANCH   8  10
ENDBRANCH   5   8
ENDBRANCH   1   5
TORSDOF 13
ENDMDL
MODEL      262
REMARK 921   NORMALIZED FREE ENERGY PREDICTED BY IDOCK:    3.91 KCAL/MOL
REMARK 922        TOTAL FREE ENERGY PREDICTED BY IDOCK:    5.95 KCAL/MOL
REMARK 923 INTER-LIGAND FREE ENERGY PREDICTED BY IDOCK:    0.29 KCAL/MOL
REMARK 924 INTRA-LIGAND FREE ENERGY PREDICTED BY IDOCK:    5.65 KCAL/MOL
REMARK 927      BINDING AFFINITY PREDICTED BY RF-SCORE:    0.00 PKD
ROOT
HETATM    1  C   UNK A   0     -12.034  14.681  65.221  1.00  0.00    -0.302 C  
HETATM    2  O   UNK A   0     -11.181  14.643  64.064  1.00  0.00    -0.553 OA 
HETATM    3  C   UNK A   0     -13.399  15.185  64.810  1.00  0.00     1.522 C  
HETATM    4  H   UNK A   0     -10.324  14.327  64.322  1.00  0.00     0.000 HD 
ENDROOT
BRANCH   1   5
HETATM    5  C   UNK A   0     -12.139  13.256  65.738  1.00  0.00    -0.441 C  
HETATM    6  O   UNK A   0     -12.835  12.445  64.909  1.00  0.00    -0.711 OA 
HETATM    7  H   UNK A   0     -12.900  11.553  65.231  1.00  0.00     0.000 HD 
BRANCH   5   8
HETATM    8  N   UNK A   0     -11.573  12.853  66.828  1.00  0.00    -0.341 NA 
HETATM    9  H   UNK A   0     -12.141  12.550  67.618  1.00  0.00     0.000 HD 
BRANCH   8  10
HETATM   10  C   UNK A   0     -10.148  12.837  66.918  1.00  0.00    -0.232 A  
HETATM   11  C   UNK A   0      -9.413  13.960  67.365  1.00  0.00    -0.226 A  
HETATM   12  I   UNK A   0     -10.542  15.716  68.039  1.00  0.00    -0.296 I  
HETATM   13  C   UNK A   0      -8.012  13.891  67.524  1.00  0.00    -0.190 A  
HETATM   14  I   UNK A   0     -10.591  10.018  65.767  1.00  0.00     0.759 I  
HETATM   15  C   UNK A   0      -7.395  12.606  67.493  1.00  0.00    -0.151 A  
HETATM   16  I   UNK A   0      -5.486  12.421  68.539  1.00  0.00    -0.066 I  
HETATM   17  C   UNK A   0      -9.457  11.605  66.703  1.00  0.00    -0.201 A  
HETATM   18  C   UNK A   0      -8.101  11.440  67.071  1.00  0.00    -0.157 A  
BRANCH  13  19
HETATM   19  C   UNK A   0      -7.146  15.109  67.610  1.00  0.00    -0.186 C  
HETATM   20  O   UNK A   0      -5.985  15.076  66.942  1.00  0.00     0.066 OA 
HETATM   21  H   UNK A   0      -5.436  15.850  66.997  1.00  0.00     0.000 HD 
BRANCH  19  22
ATOM     22  N   SER A   1      -7.481  16.159  68.275  1.00  0.00    -0.141 NA 
ATOM     23  H   SER A   1      -8.285  16.722  68.000  1.00  0.00     0.000 HD 
BRANCH  22  24
ATOM     24  CA  SER A   1      -6.656  16.524  69.460  1.00  0.00    -0.217 C  
BRANCH  24  25
ATOM     25  C   SER A   1      -6.315  15.214  70.195  1.00  0.00    -0.130 C  
ATOM     26  H   SER A   1      -7.289  13.642  70.869  1.00  0.00     0.000 HD 
ATOM     27  O   SER A   1      -7.499  14.450  70.416  1.00  0.00     0.411 OA 
ENDBRANCH  24  25
BRANCH  24  28
ATOM     28  CB  SER A   1      -7.404  17.447  70.445  1.00  0.00     2.415 C  
ATOM     29  OG  SER A   1      -7.431  18.819  70.057  1.00  0.00     0.513 OA 
ATOM     30  HG  SER A   1      -7.891  19.387  70.663  1.00  0.00     0.000 HD 
ENDBRANCH  24  28
ENDBRANCH  22  24
ENDBRANCH  19  22
ENDBRANCH  13  19
BRANCH  18  31
HETATM   31  C   UNK A   0      -7.429  10.089  67.084  1.00  0.00    -0.091 C  
HETATM   32  H   UNK A   0      -5.702   9.243  66.752  1.00  0.00     0.000 HD 
HETATM   33  O   UNK A   0      -6.125  10.093  66.744  1.00  0.00    -0.057 OA 
BRANCH  31  34
ATOM     34  N   SER A   1      -8.028   8.975  67.334  1.00  0.00    -0.100 NA 
ATOM     35  H   SER A   1      -8.061   8.224  66.644  1.00  0.00     0.000 HD 
BRANCH  34  36
ATOM     36  CA  SER A   1      -8.672   8.829  68.675  1.00  0.00    -0.134 C  
BRANCH  36  37
ATOM     37  CB  SER A   1      -7.797   9.555  69.700  1.00  0.00    -0.116 C  
ATOM     38  HG  SER A   1      -6.472   9.066  71.074  1.00  0.00     0.000 HD 
ATOM     39  OG  SER A   1      -7.015   8.615  70.438  1.00  0.00    -0.039 OA 
ENDBRANCH  36  37
BRANCH  36  40
ATOM     40  C   SER A   1     -10.079   9.454  68.635  1.00  0.00    -0.190 C  
ATOM     41  H   SER A   1     -11.889   8.992  69.268  1.00  0.00     0.000 HD 
ATOM     42  O   SER A   1     -11.021   8.607  69.292  1.00  0.00    -0.124 OA 
ENDBRANCH  36  40
ENDBRANCH  34  36
ENDBRANCH  31  34
ENDBRANCH  18  31
ENDBRANCH   8  10
ENDBRANCH   5   8
ENDBRANCH   1   5
TORSDOF 13
ENDMDL
MODEL      263
REMARK 921   NORMALIZED FREE ENERGY PREDICTED BY IDOCK:    3.99 KCAL/MOL
REMARK 922        TOTAL FREE ENERGY PREDICTED BY IDOCK:    6.10 KCAL/MOL
REMARK 923 INTER-LIGAND FREE ENERGY PREDICTED BY IDOCK:    0.96 KCAL/MOL
REMARK 924 INTRA-LIGAND FREE ENERGY PREDICTED BY IDOCK:    5.14 KCAL/MOL
REMARK 927      BINDING AFFINITY PREDICTED BY RF-SCORE:    0.00 PKD
ROOT
HETATM    1  C   UNK A   0      -7.017   4.621  68.427  1.00  0.00    -0.056 C  
HETATM    2  O   UNK A   0      -5.902   4.806  69.318  1.00  0.00    -0.016 OA 
HETATM    3  C   UNK A   0      -8.092   3.835  69.143  1.00  0.00    -0.066 C  
HETATM    4  H   UNK A   0      -5.226   5.299  68.869  1.00  0.00     0.000 HD 
ENDROOT
BRANCH   1   5
HETATM    5  C   UNK A   0      -7.531   6.005  68.073  1.00  0.00    -0.085 C  
HETATM    6  O   UNK A   0      -8.518   5.980  67.148  1.00  0.00    -0.106 OA 
HETATM    7  H   UNK A   0      -8.840   6.846  66.926  1.00  0.00     0.000 HD 
BRANCH   5   8
HETATM    8  N   UNK A   0      -7.106   7.087  68.639  1.00  0.00    -0.089 NA 
HETATM    9  H   UNK A   0      -6.520   7.034  69.472  1.00  0.00     0.000 HD 
BRANCH   8  10
HETATM   10  C   UNK A   0      -7.462   8.356  68.089  1.00  0.00    -0.097 A  
HETATM   11  C   UNK A   0      -8.000   9.393  68.887  1.00  0.00    -0.087 A  
HETATM   12  I   UNK A   0      -8.167   9.038  71.046  1.00  0.00    -0.037 I  
HETATM   13  C   UNK A   0      -8.265  10.665  68.337  1.00  0.00    -0.125 A  
HETATM   14  I   UNK A   0      -6.559   6.949  65.506  1.00  0.00    -0.054 I  
HETATM   15  C   UNK A   0      -7.730  10.966  67.050  1.00  0.00    -0.129 A  
HETATM   16  I   UNK A   0      -7.413  13.081  66.600  1.00  0.00     1.824 I  
HETATM   17  C   UNK A   0      -7.119   8.641  66.732  1.00  0.00    -0.078 A  
HETATM   18  C   UNK A   0      -7.158   9.959  66.217  1.00  0.00    -0.101 A  
BRANCH  13  19
HETATM   19  C   UNK A   0      -9.171  11.659  68.996  1.00  0.00     0.187 C  
HETATM   20  O   UNK A   0      -8.639  12.417  69.964  1.00  0.00     1.902 OA 
HETATM   21  H   UNK A   0      -9.214  13.047  70.382  1.00  0.00     0.000 HD 
BRANCH  19  22
ATOM     22  N   SER A   1     -10.404  11.810  68.660  1.00  0.00    -0.223 NA 
ATOM     23  H   SER A   1     -10.761  12.718  68.362  1.00  0.00     0.000 HD 
BRANCH  22  24
ATOM     24  CA  SER A   1     -11.294  10.617  68.719  1.00  0.00    -0.277 C  
BRANCH  24  25
ATOM     25  C   SER A   1     -12.228  10.811  69.928  1.00  0.00    -0.313 C  
ATOM     26  H   SER A   1     -12.165  11.726  71.670  1.00  0.00     0.000 HD 
ATOM     27  O   SER A   1     -11.589  11.607  70.924  1.00  0.00     0.122 OA 
ENDBRANCH  24  25
BRANCH  24  28
ATOM     28  CB  SER A   1     -10.513   9.302  68.921  1.00  0.00    -0.215 C  
ATOM     29  OG  SER A   1     -11.287   8.123  68.709  1.00  0.00    -0.193 OA 
ATOM     30  HG  SER A   1     -10.806   7.313  68.833  1.00  0.00     0.000 HD 
ENDBRANCH  24  28
ENDBRANCH  22  24
ENDBRANCH  19  22
ENDBRANCH  13  19
BRANCH  18  31
HETATM   31  C   UNK A   0      -6.568  10.316  64.875  1.00  0.00    -0.105 C  
HETATM   32  H   UNK A   0      -4.850  10.537  63.976  1.00  0.00     0.000 HD 
HETATM   33  O   UNK A   0      -5.222  10.312  64.820  1.00  0.00    -0.085 OA 
BRANCH  31  34
ATOM     34  N   SER A   1      -7.256  10.669  63.843  1.00  0.00    -0.338 NA 
ATOM     35  H   SER A   1      -6.898  11.352  63.175  1.00  0.00     0.000 HD 
BRANCH  34  36
ATOM     36  CA  SER A   1      -8.598  10.036  63.665  1.00  0.00    -0.202 C  
BRANCH  36  37
ATOM     37  CB  SER A   1      -9.311  10.756  62.517  1.00  0.00    -0.278 C  
ATOM     38  HG  SER A   1     -10.426  12.365  62.291  1.00  0.00     0.000 HD 
ATOM     39  OG  SER A   1      -9.983  11.918  63.003  1.00  0.00    -0.387 OA 
ENDBRANCH  36  37
BRANCH  36  40
ATOM     40  C   SER A   1      -8.417   8.543  63.329  1.00  0.00    -0.045 C  
ATOM     41  H   SER A   1      -9.242   7.217  62.126  1.00  0.00     0.000 HD 
ATOM     42  O   SER A   1      -9.354   8.137  62.333  1.00  0.00     0.712 OA 
ENDBRANCH  36  40
ENDBRANCH  34  36
ENDBRANCH  31  34
ENDBRANCH  18  31
ENDBRANCH   8  10
ENDBRANCH   5   8
ENDBRANCH   1   5
TORSDOF 13
ENDMDL
MODEL      264
REMARK 921   NORMALIZED FREE ENERGY PREDICTED BY IDOCK:    4.50 KCAL/MOL
REMARK 922        TOTAL FREE ENERGY PREDICTED BY IDOCK:    6.98 KCAL/MOL
REMARK 923 INTER-LIGAND FREE ENERGY PREDICTED BY IDOCK:   -0.05 KCAL/MOL
REMARK 924 INTRA-LIGAND FREE ENERGY PREDICTED BY IDOCK:    7.03 KCAL/MOL
REMARK 927      BINDING AFFINITY PREDICTED BY RF-SCORE:    0.00 PKD
ROOT
HETATM    1  C   UNK A   0      -9.958  18.375  66.941  1.00  0.00    -0.353 C  
HETATM    2  O   UNK A   0      -9.979  19.727  67.433  1.00  0.00    -0.351 OA 
HETATM    3  C   UNK A   0      -9.831  18.402  65.435  1.00  0.00     0.966 C  
HETATM    4  H   UNK A   0     -10.059  19.710  68.379  1.00  0.00     0.000 HD 
ENDROOT
BRANCH   1   5
HETATM    5  C   UNK A   0      -8.741  17.703  67.555  1.00  0.00    -0.234 C  
HETATM    6  O   UNK A   0      -8.089  18.496  68.435  1.00  0.00    -0.305 OA 
HETATM    7  H   UNK A   0      -7.328  18.076  68.819  1.00  0.00     0.000 HD 
BRANCH   5   8
HETATM    8  N   UNK A   0      -8.401  16.483  67.300  1.00  0.00    -0.169 NA 
HETATM    9  H   UNK A   0      -7.673  16.285  66.614  1.00  0.00     0.000 HD 
BRANCH   8  10
HETATM   10  C   UNK A   0      -9.052  15.412  67.987  1.00  0.00    -0.175 A  
HETATM   11  C   UNK A   0     -10.461  15.306  68.043  1.00  0.00    -0.248 A  
HETATM   12  I   UNK A   0     -11.641  16.785  66.933  1.00  0.00     1.917 I  
HETATM   13  C   UNK A   0     -11.079  14.195  68.656  1.00  0.00    -0.283 A  
HETATM   14  I   UNK A   0      -6.130  14.685  68.619  1.00  0.00    -0.113 I  
HETATM   15  C   UNK A   0     -10.270  13.063  68.966  1.00  0.00     0.119 A  
HETATM   16  I   UNK A   0     -11.300  11.140  69.099  1.00  0.00    -0.445 I  
HETATM   17  C   UNK A   0      -8.261  14.336  68.493  1.00  0.00    -0.145 A  
HETATM   18  C   UNK A   0      -8.845  13.113  68.903  1.00  0.00     0.302 A  
BRANCH  13  19
HETATM   19  C   UNK A   0     -12.512  14.203  69.091  1.00  0.00     0.030 C  
HETATM   20  O   UNK A   0     -13.386  13.550  68.312  1.00  0.00     1.976 OA 
HETATM   21  H   UNK A   0     -14.295  13.555  68.589  1.00  0.00     0.000 HD 
BRANCH  19  22
ATOM     22  N   SER A   1     -12.913  14.789  70.164  1.00  0.00    -0.587 NA 
ATOM     23  H   SER A   1     -13.642  15.501  70.133  1.00  0.00     0.000 HD 
BRANCH  22  24
ATOM     24  CA  SER A   1     -12.277  14.394  71.452  1.00  0.00    -0.352 C  
BRANCH  24  25
ATOM     25  C   SER A   1     -13.363  13.704  72.298  1.00  0.00    -0.525 C  
ATOM     26  H   SER A   1     -13.934  13.689  74.181  1.00  0.00     0.000 HD 
ATOM     27  O   SER A   1     -13.265  14.116  73.659  1.00  0.00    -0.251 OA 
ENDBRANCH  24  25
BRANCH  24  28
ATOM     28  CB  SER A   1     -11.744  15.604  72.248  1.00  0.00    -0.481 C  
ATOM     29  OG  SER A   1     -12.491  16.804  72.059  1.00  0.00    -0.109 OA 
ATOM     30  HG  SER A   1     -12.163  17.549  72.549  1.00  0.00     0.000 HD 
ENDBRANCH  24  28
ENDBRANCH  22  24
ENDBRANCH  19  22
ENDBRANCH  13  19
BRANCH  18  31
HETATM   31  C   UNK A   0      -8.019  11.887  69.203  1.00  0.00     0.257 C  
HETATM   32  H   UNK A   0      -6.264  11.359  69.873  1.00  0.00     0.000 HD 
HETATM   33  O   UNK A   0      -6.785  12.131  69.684  1.00  0.00    -0.075 OA 
BRANCH  31  34
ATOM     34  N   SER A   1      -8.397  10.676  68.975  1.00  0.00    -0.152 NA 
ATOM     35  H   SER A   1      -9.385  10.423  68.959  1.00  0.00     0.000 HD 
BRANCH  34  36
ATOM     36  CA  SER A   1      -7.330   9.657  68.736  1.00  0.00    -0.074 C  
BRANCH  36  37
ATOM     37  CB  SER A   1      -6.150  10.360  68.058  1.00  0.00    -0.047 C  
ATOM     38  HG  SER A   1      -4.509   9.834  67.104  1.00  0.00     0.000 HD 
ATOM     39  OG  SER A   1      -5.241   9.398  67.524  1.00  0.00    -0.036 OA 
ENDBRANCH  36  37
BRANCH  36  40
ATOM     40  C   SER A   1      -6.890   9.054  70.083  1.00  0.00    -0.045 C  
ATOM     41  H   SER A   1      -6.844   7.273  70.928  1.00  0.00     0.000 HD 
ATOM     42  O   SER A   1      -7.115   7.645  70.097  1.00  0.00    -0.057 OA 
ENDBRANCH  36  40
ENDBRANCH  34  36
ENDBRANCH  31  34
ENDBRANCH  18  31
ENDBRANCH   8  10
ENDBRANCH   5   8
ENDBRANCH   1   5
TORSDOF 13
ENDMDL
MODEL      265
REMARK 921   NORMALIZED FREE ENERGY PREDICTED BY IDOCK:    4.95 KCAL/MOL
REMARK 922        TOTAL FREE ENERGY PREDICTED BY IDOCK:    7.78 KCAL/MOL
REMARK 923 INTER-LIGAND FREE ENERGY PREDICTED BY IDOCK:    0.61 KCAL/MOL
REMARK 924 INTRA-LIGAND FREE ENERGY PREDICTED BY IDOCK:    7.18 KCAL/MOL
REMARK 927      BINDING AFFINITY PREDICTED BY RF-SCORE:    0.00 PKD
ROOT
HETATM    1  C   UNK A   0     -11.573   9.666  71.810  1.00  0.00    -0.239 C  
HETATM    2  O   UNK A   0     -12.731   8.823  71.670  1.00  0.00    -0.321 OA 
HETATM    3  C   UNK A   0     -10.623   9.035  72.803  1.00  0.00     0.888 C  
HETATM    4  H   UNK A   0     -13.328   9.220  71.046  1.00  0.00     0.000 HD 
ENDROOT
BRANCH   1   5
HETATM    5  C   UNK A   0     -10.919   9.747  70.441  1.00  0.00    -0.312 C  
HETATM    6  O   UNK A   0     -11.648   9.146  69.472  1.00  0.00    -0.419 OA 
HETATM    7  H   UNK A   0     -11.239   9.196  68.616  1.00  0.00     0.000 HD 
BRANCH   5   8
HETATM    8  N   UNK A   0      -9.810  10.372  70.221  1.00  0.00    -0.315 NA 
HETATM    9  H   UNK A   0      -9.158  10.546  70.986  1.00  0.00     0.000 HD 
BRANCH   8  10
HETATM   10  C   UNK A   0      -9.503  10.818  68.899  1.00  0.00    -0.181 A  
HETATM   11  C   UNK A   0      -9.245   9.911  67.844  1.00  0.00    -0.130 A  
HETATM   12  I   UNK A   0      -9.446   7.768  68.268  1.00  0.00    -0.172 I  
HETATM   13  C   UNK A   0      -9.026  10.374  66.529  1.00  0.00    -0.161 A  
HETATM   14  I   UNK A   0      -9.740  13.553  70.287  1.00  0.00     4.819 I  
HETATM   15  C   UNK A   0      -9.341  11.733  66.235  1.00  0.00    -0.225 A  
HETATM   16  I   UNK A   0      -9.805  12.193  64.150  1.00  0.00     0.037 I  
HETATM   17  C   UNK A   0      -9.616  12.209  68.597  1.00  0.00    -0.060 A  
HETATM   18  C   UNK A   0      -9.630  12.681  67.262  1.00  0.00    -0.203 A  
BRANCH  13  19
HETATM   19  C   UNK A   0      -8.378   9.535  65.472  1.00  0.00    -0.132 C  
HETATM   20  O   UNK A   0      -7.062   9.705  65.285  1.00  0.00    -0.099 OA 
HETATM   21  H   UNK A   0      -6.651   9.173  64.614  1.00  0.00     0.000 HD 
BRANCH  19  22
ATOM     22  N   SER A   1      -9.026   8.673  64.770  1.00  0.00    -0.415 NA 
ATOM     23  H   SER A   1     -10.043   8.610  64.821  1.00  0.00     0.000 HD 
BRANCH  22  24
ATOM     24  CA  SER A   1      -8.243   7.772  63.879  1.00  0.00     0.012 C  
BRANCH  24  25
ATOM     25  C   SER A   1      -7.645   6.666  64.769  1.00  0.00    -0.103 C  
ATOM     26  H   SER A   1      -6.562   6.561  66.409  1.00  0.00     0.000 HD 
ATOM     27  O   SER A   1      -6.931   7.243  65.860  1.00  0.00    -0.059 OA 
ENDBRANCH  24  25
BRANCH  24  28
ATOM     28  CB  SER A   1      -7.082   8.498  63.168  1.00  0.00    -0.091 C  
ATOM     29  OG  SER A   1      -7.388   9.828  62.754  1.00  0.00    -0.113 OA 
ATOM     30  HG  SER A   1      -6.673  10.274  62.316  1.00  0.00     0.000 HD 
ENDBRANCH  24  28
ENDBRANCH  22  24
ENDBRANCH  19  22
ENDBRANCH  13  19
BRANCH  18  31
HETATM   31  C   UNK A   0      -9.994  14.103  66.915  1.00  0.00    -0.261 C  
HETATM   32  H   UNK A   0     -10.277  15.848  67.741  1.00  0.00     0.000 HD 
HETATM   33  O   UNK A   0     -10.048  14.952  67.959  1.00  0.00    -0.218 OA 
BRANCH  31  34
ATOM     34  N   SER A   1     -10.301  14.512  65.732  1.00  0.00    -0.313 NA 
ATOM     35  H   SER A   1      -9.907  14.073  64.900  1.00  0.00     0.000 HD 
BRANCH  34  36
ATOM     36  CA  SER A   1     -11.258  15.656  65.628  1.00  0.00    -0.106 C  
BRANCH  36  37
ATOM     37  CB  SER A   1     -10.671  16.834  66.411  1.00  0.00    -0.105 C  
ATOM     38  HG  SER A   1      -8.888  17.604  66.744  1.00  0.00     0.000 HD 
ATOM     39  OG  SER A   1      -9.252  16.873  66.258  1.00  0.00    -0.267 OA 
ENDBRANCH  36  37
BRANCH  36  40
ATOM     40  C   SER A   1     -11.438  16.036  64.146  1.00  0.00    -0.011 C  
ATOM     41  H   SER A   1     -11.623  17.687  63.084  1.00  0.00     0.000 HD 
ATOM     42  O   SER A   1     -11.511  17.453  63.998  1.00  0.00    -0.119 OA 
ENDBRANCH  36  40
ENDBRANCH  34  36
ENDBRANCH  31  34
ENDBRANCH  18  31
ENDBRANCH   8  10
ENDBRANCH   5   8
ENDBRANCH   1   5
TORSDOF 13
ENDMDL
MODEL      266
REMARK 921   NORMALIZED FREE ENERGY PREDICTED BY IDOCK:    5.35 KCAL/MOL
REMARK 922        TOTAL FREE ENERGY PREDICTED BY IDOCK:    8.48 KCAL/MOL
REMARK 923 INTER-LIGAND FREE ENERGY PREDICTED BY IDOCK:    2.16 KCAL/MOL
REMARK 924 INTRA-LIGAND FREE ENERGY PREDICTED BY IDOCK:    6.33 KCAL/MOL
REMARK 927      BINDING AFFINITY PREDICTED BY RF-SCORE:    0.00 PKD
ROOT
HETATM    1  C   UNK A   0     -12.351  15.168  65.306  1.00  0.00     0.246 C  
HETATM    2  O   UNK A   0     -13.007  16.440  65.449  1.00  0.00     3.116 OA 
HETATM    3  C   UNK A   0     -13.295  14.202  64.625  1.00  0.00     1.053 C  
HETATM    4  H   UNK A   0     -12.414  17.047  65.876  1.00  0.00     0.000 HD 
ENDROOT
BRANCH   1   5
HETATM    5  C   UNK A   0     -11.126  15.399  64.437  1.00  0.00    -0.132 C  
HETATM    6  O   UNK A   0     -11.222  16.515  63.677  1.00  0.00    -1.148 OA 
HETATM    7  H   UNK A   0     -10.456  16.660  63.134  1.00  0.00     0.000 HD 
BRANCH   5   8
HETATM    8  N   UNK A   0     -10.083  14.638  64.465  1.00  0.00    -0.536 NA 
HETATM    9  H   UNK A   0      -9.360  14.732  63.752  1.00  0.00     0.000 HD 
BRANCH   8  10
HETATM   10  C   UNK A   0      -9.948  13.664  65.501  1.00  0.00    -0.224 A  
HETATM   11  C   UNK A   0      -9.963  12.275  65.229  1.00  0.00    -0.230 A  
HETATM   12  I   UNK A   0     -10.080  11.647  63.131  1.00  0.00    -0.022 I  
HETATM   13  C   UNK A   0      -9.745  11.335  66.259  1.00  0.00    -0.246 A  
HETATM   14  I   UNK A   0      -9.895  16.212  67.225  1.00  0.00    -0.264 I  
HETATM   15  C   UNK A   0      -9.242  11.808  67.506  1.00  0.00    -0.175 A  
HETATM   16  I   UNK A   0      -8.150  10.361  68.725  1.00  0.00    -0.151 I  
HETATM   17  C   UNK A   0      -9.633  14.102  66.823  1.00  0.00    -0.282 A  
HETATM   18  C   UNK A   0      -9.187  13.200  67.819  1.00  0.00    -0.203 A  
BRANCH  13  19
HETATM   19  C   UNK A   0     -10.125   9.892  66.131  1.00  0.00    -0.245 C  
HETATM   20  O   UNK A   0      -9.293   9.106  65.434  1.00  0.00    -0.307 OA 
HETATM   21  H   UNK A   0      -9.534   8.190  65.353  1.00  0.00     0.000 HD 
BRANCH  19  22
ATOM     22  N   SER A   1     -11.186   9.399  66.666  1.00  0.00     0.387 NA 
ATOM     23  H   SER A   1     -12.097   9.835  66.526  1.00  0.00     0.000 HD 
BRANCH  22  24
ATOM     24  CA  SER A   1     -11.042   8.170  67.495  1.00  0.00     0.375 C  
BRANCH  24  25
ATOM     25  C   SER A   1     -11.098   8.611  68.969  1.00  0.00     0.225 C  
ATOM     26  H   SER A   1     -12.280   8.328  70.517  1.00  0.00     0.000 HD 
ATOM     27  O   SER A   1     -12.245   8.056  69.607  1.00  0.00     1.029 OA 
ENDBRANCH  24  25
BRANCH  24  28
ATOM     28  CB  SER A   1      -9.698   7.448  67.260  1.00  0.00    -0.157 C  
ATOM     29  OG  SER A   1      -9.808   6.234  66.519  1.00  0.00    -0.199 OA 
ATOM     30  HG  SER A   1      -8.981   5.790  66.375  1.00  0.00     0.000 HD 
ENDBRANCH  24  28
ENDBRANCH  22  24
ENDBRANCH  19  22
ENDBRANCH  13  19
BRANCH  18  31
HETATM   31  C   UNK A   0      -8.616  13.670  69.134  1.00  0.00     0.476 C  
HETATM   32  H   UNK A   0      -8.776  15.114  70.435  1.00  0.00     0.000 HD 
HETATM   33  O   UNK A   0      -9.136  14.818  69.607  1.00  0.00     0.031 OA 
BRANCH  31  34
ATOM     34  N   SER A   1      -7.658  13.084  69.767  1.00  0.00     0.332 NA 
ATOM     35  H   SER A   1      -7.728  12.878  70.763  1.00  0.00     0.000 HD 
BRANCH  34  36
ATOM     36  CA  SER A   1      -6.439  12.719  68.981  1.00  0.00    -0.096 C  
BRANCH  36  37
ATOM     37  CB  SER A   1      -5.998  13.955  68.193  1.00  0.00    -0.125 C  
ATOM     38  HG  SER A   1      -6.135  15.912  68.378  1.00  0.00     0.000 HD 
ATOM     39  OG  SER A   1      -6.408  15.145  68.867  1.00  0.00    -0.088 OA 
ENDBRANCH  36  37
BRANCH  36  40
ATOM     40  C   SER A   1      -5.325  12.275  69.948  1.00  0.00    -0.091 C  
ATOM     41  H   SER A   1      -5.078  10.907  71.345  1.00  0.00     0.000 HD 
ATOM     42  O   SER A   1      -5.765  11.180  70.750  1.00  0.00    -0.194 OA 
ENDBRANCH  36  40
ENDBRANCH  34  36
ENDBRANCH  31  34
ENDBRANCH  18  31
ENDBRANCH   8  10
ENDBRANCH   5   8
ENDBRANCH   1   5
TORSDOF 13
ENDMDL
MODEL      267
REMARK 921   NORMALIZED FREE ENERGY PREDICTED BY IDOCK:    6.18 KCAL/MOL
REMARK 922        TOTAL FREE ENERGY PREDICTED BY IDOCK:    9.95 KCAL/MOL
REMARK 923 INTER-LIGAND FREE ENERGY PREDICTED BY IDOCK:    1.63 KCAL/MOL
REMARK 924 INTRA-LIGAND FREE ENERGY PREDICTED BY IDOCK:    8.32 KCAL/MOL
REMARK 927      BINDING AFFINITY PREDICTED BY RF-SCORE:    0.00 PKD
ROOT
HETATM    1  C   UNK A   0      -6.825   9.329  67.573  1.00  0.00    -0.077 C  
HETATM    2  O   UNK A   0      -6.416  10.384  68.462  1.00  0.00    -0.051 OA 
HETATM    3  C   UNK A   0      -6.038   9.438  66.286  1.00  0.00    -0.060 C  
HETATM    4  H   UNK A   0      -6.910  10.316  69.270  1.00  0.00     0.000 HD 
ENDROOT
BRANCH   1   5
HETATM    5  C   UNK A   0      -6.506   8.018  68.271  1.00  0.00    -0.055 C  
HETATM    6  O   UNK A   0      -5.398   8.088  69.045  1.00  0.00    -0.025 OA 
HETATM    7  H   UNK A   0      -5.198   7.268  69.481  1.00  0.00     0.000 HD 
BRANCH   5   8
HETATM    8  N   UNK A   0      -7.247   6.964  68.174  1.00  0.00    -0.089 NA 
HETATM    9  H   UNK A   0      -7.074   6.279  67.439  1.00  0.00     0.000 HD 
BRANCH   8  10
HETATM   10  C   UNK A   0      -8.313   6.765  69.105  1.00  0.00    -0.125 A  
HETATM   11  C   UNK A   0      -9.530   7.481  69.013  1.00  0.00    -0.145 A  
HETATM   12  I   UNK A   0      -9.789   8.841  67.312  1.00  0.00    -0.341 I  
HETATM   13  C   UNK A   0     -10.598   7.206  69.894  1.00  0.00    -0.246 A  
HETATM   14  I   UNK A   0      -6.244   4.840  70.322  1.00  0.00    -0.024 I  
HETATM   15  C   UNK A   0     -10.529   6.022  70.685  1.00  0.00    -0.246 A  
HETATM   16  I   UNK A   0     -12.436   5.190  71.354  1.00  0.00     5.311 I  
HETATM   17  C   UNK A   0      -8.210   5.704  70.055  1.00  0.00    -0.110 A  
HETATM   18  C   UNK A   0      -9.332   5.254  70.791  1.00  0.00    -0.205 A  
BRANCH  13  19
HETATM   19  C   UNK A   0     -11.733   8.158  70.111  1.00  0.00     0.199 C  
HETATM   20  O   UNK A   0     -12.752   7.725  70.866  1.00  0.00    -0.525 OA 
HETATM   21  H   UNK A   0     -13.472   8.329  71.004  1.00  0.00     0.000 HD 
BRANCH  19  22
ATOM     22  N   SER A   1     -11.752   9.347  69.619  1.00  0.00    -0.389 NA 
ATOM     23  H   SER A   1     -11.227   9.575  68.774  1.00  0.00     0.000 HD 
BRANCH  22  24
ATOM     24  CA  SER A   1     -12.565  10.379  70.321  1.00  0.00    -0.192 C  
BRANCH  24  25
ATOM     25  C   SER A   1     -11.945  11.748  69.985  1.00  0.00    -0.344 C  
ATOM     26  H   SER A   1     -10.147  12.476  69.653  1.00  0.00     0.000 HD 
ATOM     27  O   SER A   1     -10.529  11.631  69.860  1.00  0.00     0.363 OA 
ENDBRANCH  24  25
BRANCH  24  28
ATOM     28  CB  SER A   1     -12.549  10.207  71.855  1.00  0.00    -0.343 C  
ATOM     29  OG  SER A   1     -12.860   8.888  72.299  1.00  0.00    -0.378 OA 
ATOM     30  HG  SER A   1     -12.850   8.782  73.243  1.00  0.00     0.000 HD 
ENDBRANCH  24  28
ENDBRANCH  22  24
ENDBRANCH  19  22
ENDBRANCH  13  19
BRANCH  18  31
HETATM   31  C   UNK A   0      -9.303   3.985  71.608  1.00  0.00    -0.135 C  
HETATM   32  H   UNK A   0     -10.222   2.275  71.798  1.00  0.00     0.000 HD 
HETATM   33  O   UNK A   0     -10.239   3.073  71.284  1.00  0.00     0.066 OA 
BRANCH  31  34
ATOM     34  N   SER A   1      -8.502   3.767  72.594  1.00  0.00    -0.093 NA 
ATOM     35  H   SER A   1      -7.492   3.719  72.456  1.00  0.00     0.000 HD 
BRANCH  34  36
ATOM     36  CA  SER A   1      -9.112   3.588  73.947  1.00  0.00    -0.089 C  
BRANCH  36  37
ATOM     37  CB  SER A   1      -9.354   4.978  74.543  1.00  0.00    -0.125 C  
ATOM     38  HG  SER A   1     -10.753   6.363  74.457  1.00  0.00     0.000 HD 
ATOM     39  OG  SER A   1     -10.602   5.501  74.088  1.00  0.00    -0.277 OA 
ENDBRANCH  36  37
BRANCH  36  40
ATOM     40  C   SER A   1     -10.443   2.826  73.808  1.00  0.00    -0.151 C  
ATOM     41  H   SER A   1     -12.300   3.025  74.439  1.00  0.00     0.000 HD 
ATOM     42  O   SER A   1     -11.479   3.495  74.525  1.00  0.00     0.530 OA 
ENDBRANCH  36  40
ENDBRANCH  34  36
ENDBRANCH  31  34
ENDBRANCH  18  31
ENDBRANCH   8  10
ENDBRANCH   5   8
ENDBRANCH   1   5
TORSDOF 13
ENDMDL
MODEL      268
REMARK 921   NORMALIZED FREE ENERGY PREDICTED BY IDOCK:    6.73 KCAL/MOL
REMARK 922        TOTAL FREE ENERGY PREDICTED BY IDOCK:   10.91 KCAL/MOL
REMARK 923 INTER-LIGAND FREE ENERGY PREDICTED BY IDOCK:    3.46 KCAL/MOL
REMARK 924 INTRA-LIGAND FREE ENERGY PREDICTED BY IDOCK:    7.45 KCAL/MOL
REMARK 927      BINDING AFFINITY PREDICTED BY RF-SCORE:    0.00 PKD
ROOT
HETATM    1  C   UNK A   0      -9.752   7.409  66.021  1.00  0.00     0.215 C  
HETATM    2  O   UNK A   0     -10.149   8.453  66.928  1.00  0.00    -0.239 OA 
HETATM    3  C   UNK A   0      -8.883   8.004  64.936  1.00  0.00     0.190 C  
HETATM    4  H   UNK A   0     -10.695   8.079  67.609  1.00  0.00     0.000 HD 
ENDROOT
BRANCH   1   5
HETATM    5  C   UNK A   0      -8.956   6.401  66.832  1.00  0.00    -0.124 C  
HETATM    6  O   UNK A   0      -7.652   6.351  66.477  1.00  0.00    -0.091 OA 
HETATM    7  H   UNK A   0      -7.154   5.720  66.984  1.00  0.00     0.000 HD 
BRANCH   5   8
HETATM    8  N   UNK A   0      -9.465   5.705  67.795  1.00  0.00    -0.113 NA 
HETATM    9  H   UNK A   0     -10.041   4.889  67.590  1.00  0.00     0.000 HD 
BRANCH   8  10
HETATM   10  C   UNK A   0      -9.214   6.088  69.148  1.00  0.00    -0.126 A  
HETATM   11  C   UNK A   0      -7.907   6.111  69.690  1.00  0.00    -0.103 A  
HETATM   12  I   UNK A   0      -6.236   5.651  68.345  1.00  0.00    -0.033 I  
HETATM   13  C   UNK A   0      -7.677   6.572  71.004  1.00  0.00    -0.094 A  
HETATM   14  I   UNK A   0     -12.284   6.296  69.149  1.00  0.00     5.121 I  
HETATM   15  C   UNK A   0      -8.732   7.264  71.667  1.00  0.00    -0.117 A  
HETATM   16  I   UNK A   0      -8.140   8.649  73.250  1.00  0.00     0.697 I  
HETATM   17  C   UNK A   0     -10.290   6.611  69.928  1.00  0.00    -0.200 A  
HETATM   18  C   UNK A   0     -10.062   7.287  71.150  1.00  0.00    -0.190 A  
BRANCH  13  19
HETATM   19  C   UNK A   0      -6.422   6.267  71.761  1.00  0.00    -0.050 C  
HETATM   20  O   UNK A   0      -6.488   5.292  72.677  1.00  0.00    -0.051 OA 
HETATM   21  H   UNK A   0      -5.691   5.098  73.157  1.00  0.00     0.000 HD 
BRANCH  19  22
ATOM     22  N   SER A   1      -5.313   6.886  71.553  1.00  0.00    -0.027 NA 
ATOM     23  H   SER A   1      -4.421   6.473  71.824  1.00  0.00     0.000 HD 
BRANCH  22  24
ATOM     24  CA  SER A   1      -5.375   8.226  70.905  1.00  0.00    -0.029 C  
BRANCH  24  25
ATOM     25  C   SER A   1      -5.314   9.275  72.030  1.00  0.00    -0.072 C  
ATOM     26  H   SER A   1      -5.171  11.233  72.173  1.00  0.00     0.000 HD 
ATOM     27  O   SER A   1      -5.209  10.586  71.478  1.00  0.00    -0.124 OA 
ENDBRANCH  24  25
BRANCH  24  28
ATOM     28  CB  SER A   1      -6.681   8.445  70.113  1.00  0.00    -0.039 C  
ATOM     29  OG  SER A   1      -7.162   9.788  70.138  1.00  0.00    -0.109 OA 
ATOM     30  HG  SER A   1      -7.966   9.922  69.650  1.00  0.00     0.000 HD 
ENDBRANCH  24  28
ENDBRANCH  22  24
ENDBRANCH  19  22
ENDBRANCH  13  19
BRANCH  18  31
HETATM   31  C   UNK A   0     -11.148   8.059  71.858  1.00  0.00    -0.276 C  
HETATM   32  H   UNK A   0     -12.904   7.817  72.674  1.00  0.00     0.000 HD 
HETATM   33  O   UNK A   0     -12.220   7.332  72.228  1.00  0.00    -0.252 OA 
BRANCH  31  34
ATOM     34  N   SER A   1     -11.128   9.331  72.063  1.00  0.00    -0.245 NA 
ATOM     35  H   SER A   1     -10.606   9.735  72.842  1.00  0.00     0.000 HD 
BRANCH  34  36
ATOM     36  CA  SER A   1     -11.899  10.191  71.114  1.00  0.00    -0.381 C  
BRANCH  36  37
ATOM     37  CB  SER A   1     -12.264  11.488  71.843  1.00  0.00     0.756 C  
ATOM     38  HG  SER A   1     -13.068  13.227  71.383  1.00  0.00     0.000 HD 
ATOM     39  OG  SER A   1     -12.841  12.422  70.931  1.00  0.00    -0.218 OA 
ENDBRANCH  36  37
BRANCH  36  40
ATOM     40  C   SER A   1     -11.027  10.498  69.882  1.00  0.00    -0.298 C  
ATOM     41  H   SER A   1     -11.000  10.020  67.970  1.00  0.00     0.000 HD 
ATOM     42  O   SER A   1     -11.538   9.831  68.729  1.00  0.00     0.077 OA 
ENDBRANCH  36  40
ENDBRANCH  34  36
ENDBRANCH  31  34
ENDBRANCH  18  31
ENDBRANCH   8  10
ENDBRANCH   5   8
ENDBRANCH   1   5
TORSDOF 13
ENDMDL
MODEL      269
REMARK 921   NORMALIZED FREE ENERGY PREDICTED BY IDOCK:    7.13 KCAL/MOL
REMARK 922        TOTAL FREE ENERGY PREDICTED BY IDOCK:   11.62 KCAL/MOL
REMARK 923 INTER-LIGAND FREE ENERGY PREDICTED BY IDOCK:    7.66 KCAL/MOL
REMARK 924 INTRA-LIGAND FREE ENERGY PREDICTED BY IDOCK:    3.96 KCAL/MOL
REMARK 927      BINDING AFFINITY PREDICTED BY RF-SCORE:    0.00 PKD
ROOT
HETATM    1  C   UNK A   0     -11.753  19.847  67.175  1.00  0.00     1.478 C  
HETATM    2  O   UNK A   0     -12.775  19.380  66.277  1.00  0.00     4.961 OA 
HETATM    3  C   UNK A   0     -12.359  20.052  68.545  1.00  0.00     5.173 C  
HETATM    4  H   UNK A   0     -12.394  19.252  65.416  1.00  0.00     0.000 HD 
ENDROOT
BRANCH   1   5
HETATM    5  C   UNK A   0     -10.689  18.763  67.232  1.00  0.00    -0.425 C  
HETATM    6  O   UNK A   0      -9.470  19.199  66.839  1.00  0.00    -0.300 OA 
HETATM    7  H   UNK A   0      -8.805  18.522  66.874  1.00  0.00     0.000 HD 
BRANCH   5   8
HETATM    8  N   UNK A   0     -10.918  17.567  67.664  1.00  0.00    -0.218 NA 
HETATM    9  H   UNK A   0     -11.875  17.250  67.814  1.00  0.00     0.000 HD 
BRANCH   8  10
HETATM   10  C   UNK A   0      -9.820  16.692  67.930  1.00  0.00    -0.248 A  
HETATM   11  C   UNK A   0      -8.610  17.159  68.495  1.00  0.00    -0.258 A  
HETATM   12  I   UNK A   0      -8.502  19.273  69.072  1.00  0.00     0.153 I  
HETATM   13  C   UNK A   0      -7.572  16.261  68.824  1.00  0.00    -0.199 A  
HETATM   14  I   UNK A   0     -11.754  14.666  66.655  1.00  0.00    -0.146 I  
HETATM   15  C   UNK A   0      -7.868  14.867  68.835  1.00  0.00    -0.161 A  
HETATM   16  I   UNK A   0      -6.604  13.616  70.104  1.00  0.00     0.545 I  
HETATM   17  C   UNK A   0     -10.005  15.285  67.768  1.00  0.00    -0.224 A  
HETATM   18  C   UNK A   0      -9.084  14.349  68.296  1.00  0.00    -0.193 A  
BRANCH  13  19
HETATM   19  C   UNK A   0      -6.160  16.705  69.050  1.00  0.00    -0.162 C  
HETATM   20  O   UNK A   0      -5.884  17.273  70.232  1.00  0.00    -0.232 OA 
HETATM   21  H   UNK A   0      -4.988  17.554  70.375  1.00  0.00     0.000 HD 
BRANCH  19  22
ATOM     22  N   SER A   1      -5.230  16.548  68.175  1.00  0.00    -0.104 NA 
ATOM     23  H   SER A   1      -4.577  15.767  68.234  1.00  0.00     0.000 HD 
BRANCH  22  24
ATOM     24  CA  SER A   1      -5.138  17.545  67.071  1.00  0.00    -0.138 C  
BRANCH  24  25
ATOM     25  C   SER A   1      -5.455  18.923  67.680  1.00  0.00    -0.171 C  
ATOM     26  H   SER A   1      -5.807  20.745  67.024  1.00  0.00     0.000 HD 
ATOM     27  O   SER A   1      -5.612  19.894  66.648  1.00  0.00    -0.169 OA 
ENDBRANCH  24  25
BRANCH  24  28
ATOM     28  CB  SER A   1      -6.151  17.275  65.939  1.00  0.00     0.200 C  
ATOM     29  OG  SER A   1      -7.067  18.343  65.706  1.00  0.00    -0.391 OA 
ATOM     30  HG  SER A   1      -7.691  18.177  65.009  1.00  0.00     0.000 HD 
ENDBRANCH  24  28
ENDBRANCH  22  24
ENDBRANCH  19  22
ENDBRANCH  13  19
BRANCH  18  31
HETATM   31  C   UNK A   0      -9.382  12.871  68.356  1.00  0.00    -0.147 C  
HETATM   32  H   UNK A   0     -10.667  11.605  69.099  1.00  0.00     0.000 HD 
HETATM   33  O   UNK A   0     -10.479  12.535  69.062  1.00  0.00    -0.130 OA 
BRANCH  31  34
ATOM     34  N   SER A   1      -8.640  11.953  67.838  1.00  0.00    -0.154 NA 
ATOM     35  H   SER A   1      -7.856  11.552  68.354  1.00  0.00     0.000 HD 
BRANCH  34  36
ATOM     36  CA  SER A   1      -8.973  11.501  66.453  1.00  0.00    -0.197 C  
BRANCH  36  37
ATOM     37  CB  SER A   1      -7.664  11.132  65.749  1.00  0.00     0.121 C  
ATOM     38  HG  SER A   1      -7.016   9.701  64.561  1.00  0.00     0.000 HD 
ATOM     39  OG  SER A   1      -7.828   9.930  64.997  1.00  0.00    -0.120 OA 
ENDBRANCH  36  37
BRANCH  36  40
ATOM     40  C   SER A   1      -9.903  10.275  66.528  1.00  0.00    -0.212 C  
ATOM     41  H   SER A   1     -11.747   9.888  67.109  1.00  0.00     0.000 HD 
ATOM     42  O   SER A   1     -11.174  10.643  67.062  1.00  0.00    -0.266 OA 
ENDBRANCH  36  40
ENDBRANCH  34  36
ENDBRANCH  31  34
ENDBRANCH  18  31
ENDBRANCH   8  10
ENDBRANCH   5   8
ENDBRANCH   1   5
TORSDOF 13
ENDMDL
MODEL      270
REMARK 921   NORMALIZED FREE ENERGY PREDICTED BY IDOCK:    7.43 KCAL/MOL
REMARK 922        TOTAL FREE ENERGY PREDICTED BY IDOCK:   12.15 KCAL/MOL
REMARK 923 INTER-LIGAND FREE ENERGY PREDICTED BY IDOCK:   -2.39 KCAL/MOL
REMARK 924 INTRA-LIGAND FREE ENERGY PREDICTED BY IDOCK:   14.55 KCAL/MOL
REMARK 927      BINDING AFFINITY PREDICTED BY RF-SCORE:    0.00 PKD
ROOT
HETATM    1  C   UNK A   0      -9.841   4.488  71.658  1.00  0.00    -0.190 C  
HETATM    2  O   UNK A   0      -8.746   4.023  72.467  1.00  0.00    -0.101 OA 
HETATM    3  C   UNK A   0      -9.828   6.000  71.637  1.00  0.00    -0.196 C  
HETATM    4  H   UNK A   0      -8.754   3.073  72.480  1.00  0.00     0.000 HD 
ENDROOT
BRANCH   1   5
HETATM    5  C   UNK A   0      -9.615   3.945  70.257  1.00  0.00    -0.201 C  
HETATM    6  O   UNK A   0      -9.356   2.617  70.242  1.00  0.00    -0.125 OA 
HETATM    7  H   UNK A   0      -9.214   2.278  69.366  1.00  0.00     0.000 HD 
BRANCH   5   8
HETATM    8  N   UNK A   0      -9.715   4.669  69.191  1.00  0.00    -0.179 NA 
HETATM    9  H   UNK A   0     -10.490   4.526  68.545  1.00  0.00     0.000 HD 
BRANCH   8  10
HETATM   10  C   UNK A   0      -8.731   5.670  68.924  1.00  0.00    -0.107 A  
HETATM   11  C   UNK A   0      -8.925   6.666  67.938  1.00  0.00    -0.112 A  
HETATM   12  I   UNK A   0     -10.854   6.707  66.894  1.00  0.00     0.076 I  
HETATM   13  C   UNK A   0      -7.975   7.692  67.751  1.00  0.00    -0.121 A  
HETATM   14  I   UNK A   0      -7.220   4.070  71.075  1.00  0.00    -0.033 I  
HETATM   15  C   UNK A   0      -6.967   7.865  68.745  1.00  0.00    -0.066 A  
HETATM   16  I   UNK A   0      -6.088   9.859  68.900  1.00  0.00    -0.040 I  
HETATM   17  C   UNK A   0      -7.593   5.764  69.781  1.00  0.00    -0.080 A  
HETATM   18  C   UNK A   0      -6.747   6.899  69.773  1.00  0.00    -0.049 A  
BRANCH  13  19
HETATM   19  C   UNK A   0      -7.916   8.525  66.508  1.00  0.00    -0.099 C  
HETATM   20  O   UNK A   0      -8.770   9.554  66.426  1.00  0.00    -0.131 OA 
HETATM   21  H   UNK A   0      -8.732  10.082  65.637  1.00  0.00     0.000 HD 
BRANCH  19  22
ATOM     22  N   SER A   1      -7.087   8.294  65.551  1.00  0.00    -0.066 NA 
ATOM     23  H   SER A   1      -6.286   7.677  65.686  1.00  0.00     0.000 HD 
BRANCH  22  24
ATOM     24  CA  SER A   1      -7.333   8.958  64.241  1.00  0.00    -0.100 C  
BRANCH  24  25
ATOM     25  C   SER A   1      -8.621   8.345  63.660  1.00  0.00     0.129 C  
ATOM     26  H   SER A   1      -9.136   7.309  62.068  1.00  0.00     0.000 HD 
ATOM     27  O   SER A   1      -8.342   7.686  62.427  1.00  0.00    -0.136 OA 
ENDBRANCH  24  25
BRANCH  24  28
ATOM     28  CB  SER A   1      -6.191   8.724  63.230  1.00  0.00    -0.089 C  
ATOM     29  OG  SER A   1      -5.919   7.349  62.963  1.00  0.00    -0.048 OA 
ATOM     30  HG  SER A   1      -5.215   7.206  62.340  1.00  0.00     0.000 HD 
ENDBRANCH  24  28
ENDBRANCH  22  24
ENDBRANCH  19  22
ENDBRANCH  13  19
BRANCH  18  31
HETATM   31  C   UNK A   0      -5.697   7.129  70.831  1.00  0.00    -0.027 C  
HETATM   32  H   UNK A   0      -4.467   8.496  71.485  1.00  0.00     0.000 HD 
HETATM   33  O   UNK A   0      -5.128   8.350  70.818  1.00  0.00    -0.022 OA 
BRANCH  31  34
ATOM     34  N   SER A   1      -5.293   6.236  71.668  1.00  0.00    -0.025 NA 
ATOM     35  H   SER A   1      -4.714   5.451  71.368  1.00  0.00     0.000 HD 
BRANCH  34  36
ATOM     36  CA  SER A   1      -5.706   6.397  73.095  1.00  0.00    -0.038 C  
BRANCH  36  37
ATOM     37  CB  SER A   1      -7.148   6.912  73.114  1.00  0.00    -0.074 C  
ATOM     38  HG  SER A   1      -8.223   8.160  74.195  1.00  0.00     0.000 HD 
ATOM     39  OG  SER A   1      -7.328   7.841  74.183  1.00  0.00    -0.120 OA 
ENDBRANCH  36  37
BRANCH  36  40
ATOM     40  C   SER A   1      -5.615   5.034  73.808  1.00  0.00    -0.018 C  
ATOM     41  H   SER A   1      -5.650   3.129  73.303  1.00  0.00     0.000 HD 
ATOM     42  O   SER A   1      -5.706   3.969  72.864  1.00  0.00    -0.006 OA 
ENDBRANCH  36  40
ENDBRANCH  34  36
ENDBRANCH  31  34
ENDBRANCH  18  31
ENDBRANCH   8  10
ENDBRANCH   5   8
ENDBRANCH   1   5
TORSDOF 13
ENDMDL
MODEL      271
REMARK 921   NORMALIZED FREE ENERGY PREDICTED BY IDOCK:    8.09 KCAL/MOL
REMARK 922        TOTAL FREE ENERGY PREDICTED BY IDOCK:   13.31 KCAL/MOL
REMARK 923 INTER-LIGAND FREE ENERGY PREDICTED BY IDOCK:    9.61 KCAL/MOL
REMARK 924 INTRA-LIGAND FREE ENERGY PREDICTED BY IDOCK:    3.70 KCAL/MOL
REMARK 927      BINDING AFFINITY PREDICTED BY RF-SCORE:    0.00 PKD
ROOT
HETATM    1  C   UNK A   0      -7.011  11.068  69.788  1.00  0.00    -0.090 C  
HETATM    2  O   UNK A   0      -7.407  12.392  70.187  1.00  0.00     0.316 OA 
HETATM    3  C   UNK A   0      -5.504  10.965  69.852  1.00  0.00    -0.050 C  
HETATM    4  H   UNK A   0      -8.354  12.457  70.147  1.00  0.00     0.000 HD 
ENDROOT
BRANCH   1   5
HETATM    5  C   UNK A   0      -7.642  10.103  70.779  1.00  0.00     0.675 C  
HETATM    6  O   UNK A   0      -7.395  10.434  72.067  1.00  0.00     1.843 OA 
HETATM    7  H   UNK A   0      -7.789   9.831  72.687  1.00  0.00     0.000 HD 
BRANCH   5   8
HETATM    8  N   UNK A   0      -8.380   9.104  70.424  1.00  0.00    -0.165 NA 
HETATM    9  H   UNK A   0      -8.846   8.534  71.129  1.00  0.00     0.000 HD 
BRANCH   8  10
HETATM   10  C   UNK A   0      -8.540   8.804  69.036  1.00  0.00    -0.132 A  
HETATM   11  C   UNK A   0      -9.136   9.719  68.136  1.00  0.00    -0.125 A  
HETATM   12  I   UNK A   0      -9.710  11.688  68.913  1.00  0.00     0.279 I  
HETATM   13  C   UNK A   0      -9.207   9.433  66.756  1.00  0.00    -0.179 A  
HETATM   14  I   UNK A   0      -7.296   6.147  69.965  1.00  0.00    -0.082 I  
HETATM   15  C   UNK A   0      -8.431   8.347  66.254  1.00  0.00    -0.127 A  
HETATM   16  I   UNK A   0      -7.887   8.438  64.140  1.00  0.00    -0.124 I  
HETATM   17  C   UNK A   0      -7.942   7.617  68.514  1.00  0.00    -0.123 A  
HETATM   18  C   UNK A   0      -7.793   7.410  67.122  1.00  0.00    -0.117 A  
BRANCH  13  19
HETATM   19  C   UNK A   0     -10.141  10.145  65.828  1.00  0.00    -0.254 C  
HETATM   20  O   UNK A   0     -11.434  10.184  66.181  1.00  0.00     0.655 OA 
HETATM   21  H   UNK A   0     -12.026  10.636  65.592  1.00  0.00     0.000 HD 
BRANCH  19  22
ATOM     22  N   SER A   1      -9.749  10.714  64.743  1.00  0.00    -0.264 NA 
ATOM     23  H   SER A   1      -9.339  10.172  63.982  1.00  0.00     0.000 HD 
BRANCH  22  24
ATOM     24  CA  SER A   1      -9.913  12.191  64.632  1.00  0.00    -0.202 C  
BRANCH  24  25
ATOM     25  C   SER A   1     -10.745  12.459  63.365  1.00  0.00    -0.352 C  
ATOM     26  H   SER A   1     -12.403  13.413  62.901  1.00  0.00     0.000 HD 
ATOM     27  O   SER A   1     -11.890  13.248  63.683  1.00  0.00    -0.473 OA 
ENDBRANCH  24  25
BRANCH  24  28
ATOM     28  CB  SER A   1      -8.566  12.930  64.489  1.00  0.00     3.372 C  
ATOM     29  OG  SER A   1      -8.243  13.303  63.151  1.00  0.00     6.052 OA 
ATOM     30  HG  SER A   1      -7.414  13.758  63.063  1.00  0.00     0.000 HD 
ENDBRANCH  24  28
ENDBRANCH  22  24
ENDBRANCH  19  22
ENDBRANCH  13  19
BRANCH  18  31
HETATM   31  C   UNK A   0      -6.949   6.293  66.559  1.00  0.00    -0.067 C  
HETATM   32  H   UNK A   0      -5.408   5.982  65.404  1.00  0.00     0.000 HD 
HETATM   33  O   UNK A   0      -5.940   6.685  65.759  1.00  0.00    -0.028 OA 
BRANCH  31  34
ATOM     34  N   SER A   1      -7.174   5.038  66.750  1.00  0.00    -0.076 NA 
ATOM     35  H   SER A   1      -6.410   4.379  66.899  1.00  0.00     0.000 HD 
BRANCH  34  36
ATOM     36  CA  SER A   1      -8.600   4.588  66.744  1.00  0.00    -0.104 C  
BRANCH  36  37
ATOM     37  CB  SER A   1      -9.152   4.788  65.330  1.00  0.00    -0.155 C  
ATOM     38  HG  SER A   1      -9.268   3.745  63.662  1.00  0.00     0.000 HD 
ATOM     39  OG  SER A   1      -8.926   3.621  64.540  1.00  0.00    -0.115 OA 
ENDBRANCH  36  37
BRANCH  36  40
ATOM     40  C   SER A   1      -8.665   3.101  67.138  1.00  0.00    -0.123 C  
ATOM     41  H   SER A   1      -7.538   1.807  68.108  1.00  0.00     0.000 HD 
ATOM     42  O   SER A   1      -7.497   2.724  67.865  1.00  0.00    -0.056 OA 
ENDBRANCH  36  40
ENDBRANCH  34  36
ENDBRANCH  31  34
ENDBRANCH  18  31
ENDBRANCH   8  10
ENDBRANCH   5   8
ENDBRANCH   1   5
TORSDOF 13
ENDMDL
MODEL      272
REMARK 921   NORMALIZED FREE ENERGY PREDICTED BY IDOCK:    8.29 KCAL/MOL
REMARK 922        TOTAL FREE ENERGY PREDICTED BY IDOCK:   13.66 KCAL/MOL
REMARK 923 INTER-LIGAND FREE ENERGY PREDICTED BY IDOCK:   -0.68 KCAL/MOL
REMARK 924 INTRA-LIGAND FREE ENERGY PREDICTED BY IDOCK:   14.34 KCAL/MOL
REMARK 927      BINDING AFFINITY PREDICTED BY RF-SCORE:    0.00 PKD
ROOT
HETATM    1  C   UNK A   0      -9.836   4.426  71.430  1.00  0.00    -0.192 C  
HETATM    2  O   UNK A   0      -8.653   3.915  72.071  1.00  0.00    -0.096 OA 
HETATM    3  C   UNK A   0      -9.782   5.937  71.435  1.00  0.00    -0.196 C  
HETATM    4  H   UNK A   0      -8.687   2.965  72.069  1.00  0.00     0.000 HD 
ENDROOT
BRANCH   1   5
HETATM    5  C   UNK A   0      -9.821   3.908  70.002  1.00  0.00    -0.079 C  
HETATM    6  O   UNK A   0      -9.499   2.596  69.921  1.00  0.00    -0.139 OA 
HETATM    7  H   UNK A   0      -9.490   2.272  69.028  1.00  0.00     0.000 HD 
BRANCH   5   8
HETATM    8  N   UNK A   0     -10.138   4.633  68.981  1.00  0.00    -0.112 NA 
HETATM    9  H   UNK A   0     -11.069   4.564  68.571  1.00  0.00     0.000 HD 
BRANCH   8  10
HETATM   10  C   UNK A   0      -9.174   5.533  68.430  1.00  0.00    -0.112 A  
HETATM   11  C   UNK A   0      -9.421   6.256  67.240  1.00  0.00    -0.119 A  
HETATM   12  I   UNK A   0     -11.397   6.050  66.311  1.00  0.00     2.456 I  
HETATM   13  C   UNK A   0      -8.488   7.201  66.761  1.00  0.00    -0.121 A  
HETATM   14  I   UNK A   0      -7.553   4.503  70.834  1.00  0.00    -0.058 I  
HETATM   15  C   UNK A   0      -7.436   7.607  67.634  1.00  0.00    -0.104 A  
HETATM   16  I   UNK A   0      -6.563   9.574  67.252  1.00  0.00    -0.072 I  
HETATM   17  C   UNK A   0      -7.997   5.829  69.183  1.00  0.00    -0.097 A  
HETATM   18  C   UNK A   0      -7.161   6.922  68.855  1.00  0.00    -0.089 A  
BRANCH  13  19
HETATM   19  C   UNK A   0      -8.493   7.701  65.350  1.00  0.00    -0.098 C  
HETATM   20  O   UNK A   0      -8.821   6.821  64.395  1.00  0.00    -0.192 OA 
HETATM   21  H   UNK A   0      -8.825   7.139  63.500  1.00  0.00     0.000 HD 
BRANCH  19  22
ATOM     22  N   SER A   1      -8.214   8.919  65.040  1.00  0.00    -0.143 NA 
ATOM     23  H   SER A   1      -8.087   9.630  65.760  1.00  0.00     0.000 HD 
BRANCH  22  24
ATOM     24  CA  SER A   1      -8.081   9.256  63.595  1.00  0.00    -0.155 C  
BRANCH  24  25
ATOM     25  C   SER A   1      -6.580   9.454  63.314  1.00  0.00    -0.093 C  
ATOM     26  H   SER A   1      -5.054   8.341  62.760  1.00  0.00     0.000 HD 
ATOM     27  O   SER A   1      -5.981   8.218  62.933  1.00  0.00    -0.076 OA 
ENDBRANCH  24  25
BRANCH  24  28
ATOM     28  CB  SER A   1      -8.817  10.558  63.217  1.00  0.00    -0.210 C  
ATOM     29  OG  SER A   1     -10.221  10.529  63.464  1.00  0.00    -0.478 OA 
ATOM     30  HG  SER A   1     -10.675  11.331  63.231  1.00  0.00     0.000 HD 
ENDBRANCH  24  28
ENDBRANCH  22  24
ENDBRANCH  19  22
ENDBRANCH  13  19
BRANCH  18  31
HETATM   31  C   UNK A   0      -6.063   7.400  69.773  1.00  0.00    -0.027 C  
HETATM   32  H   UNK A   0      -4.480   8.541  69.790  1.00  0.00     0.000 HD 
HETATM   33  O   UNK A   0      -5.172   8.240  69.213  1.00  0.00    -0.029 OA 
BRANCH  31  34
ATOM     34  N   SER A   1      -5.909   7.014  70.993  1.00  0.00    -0.031 NA 
ATOM     35  H   SER A   1      -5.587   6.072  71.215  1.00  0.00     0.000 HD 
BRANCH  34  36
ATOM     36  CA  SER A   1      -6.221   8.003  72.070  1.00  0.00    -0.045 C  
BRANCH  36  37
ATOM     37  CB  SER A   1      -7.545   8.684  71.716  1.00  0.00    -0.087 C  
ATOM     38  HG  SER A   1      -8.160  10.500  71.261  1.00  0.00     0.000 HD 
ATOM     39  OG  SER A   1      -7.338  10.077  71.480  1.00  0.00     0.282 OA 
ENDBRANCH  36  37
BRANCH  36  40
ATOM     40  C   SER A   1      -6.342   7.266  73.418  1.00  0.00    -0.064 C  
ATOM     41  H   SER A   1      -6.484   7.747  75.325  1.00  0.00     0.000 HD 
ATOM     42  O   SER A   1      -6.409   8.201  74.494  1.00  0.00    -0.102 OA 
ENDBRANCH  36  40
ENDBRANCH  34  36
ENDBRANCH  31  34
ENDBRANCH  18  31
ENDBRANCH   8  10
ENDBRANCH   5   8
ENDBRANCH   1   5
TORSDOF 13
ENDMDL
MODEL      273
REMARK 921   NORMALIZED FREE ENERGY PREDICTED BY IDOCK:    9.28 KCAL/MOL
REMARK 922        TOTAL FREE ENERGY PREDICTED BY IDOCK:   15.41 KCAL/MOL
REMARK 923 INTER-LIGAND FREE ENERGY PREDICTED BY IDOCK:   11.90 KCAL/MOL
REMARK 924 INTRA-LIGAND FREE ENERGY PREDICTED BY IDOCK:    3.50 KCAL/MOL
REMARK 927      BINDING AFFINITY PREDICTED BY RF-SCORE:    0.00 PKD
ROOT
HETATM    1  C   UNK A   0     -11.424   4.459  66.577  1.00  0.00     3.552 C  
HETATM    2  O   UNK A   0     -10.931   4.668  67.913  1.00  0.00     0.687 OA 
HETATM    3  C   UNK A   0     -12.631   5.343  66.355  1.00  0.00     7.029 C  
HETATM    4  H   UNK A   0     -10.173   4.112  68.052  1.00  0.00     0.000 HD 
ENDROOT
BRANCH   1   5
HETATM    5  C   UNK A   0     -10.306   4.854  65.628  1.00  0.00    -0.124 C  
HETATM    6  O   UNK A   0      -9.319   3.931  65.562  1.00  0.00    -0.142 OA 
HETATM    7  H   UNK A   0      -8.620   4.177  64.969  1.00  0.00     0.000 HD 
BRANCH   5   8
HETATM    8  N   UNK A   0     -10.326   5.934  64.918  1.00  0.00     1.326 NA 
HETATM    9  H   UNK A   0     -10.996   6.034  64.156  1.00  0.00     0.000 HD 
BRANCH   8  10
HETATM   10  C   UNK A   0      -9.404   6.985  65.209  1.00  0.00     0.773 A  
HETATM   11  C   UNK A   0      -9.549   7.815  66.345  1.00  0.00    -0.165 A  
HETATM   12  I   UNK A   0     -11.185   7.366  67.736  1.00  0.00     0.921 I  
HETATM   13  C   UNK A   0      -8.579   8.792  66.655  1.00  0.00    -0.120 A  
HETATM   14  I   UNK A   0      -8.190   5.997  62.560  1.00  0.00     0.073 I  
HETATM   15  C   UNK A   0      -7.330   8.740  65.969  1.00  0.00    -0.089 A  
HETATM   16  I   UNK A   0      -5.622   9.641  66.993  1.00  0.00    -0.047 I  
HETATM   17  C   UNK A   0      -8.218   7.099  64.421  1.00  0.00     0.020 A  
HETATM   18  C   UNK A   0      -7.128   7.903  64.832  1.00  0.00    -0.067 A  
BRANCH  13  19
HETATM   19  C   UNK A   0      -8.849   9.935  67.583  1.00  0.00    -0.125 C  
HETATM   20  O   UNK A   0      -8.912   9.653  68.892  1.00  0.00    -0.135 OA 
HETATM   21  H   UNK A   0      -9.083  10.379  69.481  1.00  0.00     0.000 HD 
BRANCH  19  22
ATOM     22  N   SER A   1      -9.004  11.146  67.175  1.00  0.00    -0.143 NA 
ATOM     23  H   SER A   1      -8.209  11.779  67.089  1.00  0.00     0.000 HD 
BRANCH  22  24
ATOM     24  CA  SER A   1     -10.383  11.593  66.830  1.00  0.00    -0.220 C  
BRANCH  24  25
ATOM     25  C   SER A   1     -10.244  12.877  65.991  1.00  0.00    -0.284 C  
ATOM     26  H   SER A   1      -9.176  14.529  66.046  1.00  0.00     0.000 HD 
ATOM     27  O   SER A   1      -9.261  13.737  66.564  1.00  0.00    -0.257 OA 
ENDBRANCH  24  25
BRANCH  24  28
ATOM     28  CB  SER A   1     -11.231  11.922  68.077  1.00  0.00    -0.257 C  
ATOM     29  OG  SER A   1     -12.299  11.008  68.316  1.00  0.00    -0.717 OA 
ATOM     30  HG  SER A   1     -12.821  11.210  69.083  1.00  0.00     0.000 HD 
ENDBRANCH  24  28
ENDBRANCH  22  24
ENDBRANCH  19  22
ENDBRANCH  13  19
BRANCH  18  31
HETATM   31  C   UNK A   0      -5.783   7.845  64.150  1.00  0.00    -0.052 C  
HETATM   32  H   UNK A   0      -4.279   6.639  63.848  1.00  0.00     0.000 HD 
HETATM   33  O   UNK A   0      -5.126   6.676  64.277  1.00  0.00    -0.024 OA 
BRANCH  31  34
ATOM     34  N   SER A   1      -5.231   8.833  63.533  1.00  0.00    -0.061 NA 
ATOM     35  H   SER A   1      -4.239   8.822  63.295  1.00  0.00     0.000 HD 
BRANCH  34  36
ATOM     36  CA  SER A   1      -6.103   9.995  63.181  1.00  0.00    -0.131 C  
BRANCH  36  37
ATOM     37  CB  SER A   1      -5.262  10.989  62.375  1.00  0.00    -0.177 C  
ATOM     38  HG  SER A   1      -5.341  12.901  61.906  1.00  0.00     0.000 HD 
ATOM     39  OG  SER A   1      -5.863  12.284  62.406  1.00  0.00     1.116 OA 
ENDBRANCH  36  37
BRANCH  36  40
ATOM     40  C   SER A   1      -7.296   9.500  62.342  1.00  0.00    -0.101 C  
ATOM     41  H   SER A   1      -9.158  10.053  62.000  1.00  0.00     0.000 HD 
ATOM     42  O   SER A   1      -8.422  10.358  62.518  1.00  0.00    -0.155 OA 
ENDBRANCH  36  40
ENDBRANCH  34  36
ENDBRANCH  31  34
ENDBRANCH  18  31
ENDBRANCH   8  10
ENDBRANCH   5   8
ENDBRANCH   1   5
TORSDOF 13
ENDMDL
MODEL      274
REMARK 921   NORMALIZED FREE ENERGY PREDICTED BY IDOCK:   10.50 KCAL/MOL
REMARK 922        TOTAL FREE ENERGY PREDICTED BY IDOCK:   17.55 KCAL/MOL
REMARK 923 INTER-LIGAND FREE ENERGY PREDICTED BY IDOCK:    8.66 KCAL/MOL
REMARK 924 INTRA-LIGAND FREE ENERGY PREDICTED BY IDOCK:    8.89 KCAL/MOL
REMARK 927      BINDING AFFINITY PREDICTED BY RF-SCORE:    0.00 PKD
ROOT
HETATM    1  C   UNK A   0     -10.182  19.296  64.645  1.00  0.00     3.531 C  
HETATM    2  O   UNK A   0     -11.299  19.793  65.402  1.00  0.00    -0.179 OA 
HETATM    3  C   UNK A   0      -8.991  20.200  64.874  1.00  0.00     1.943 C  
HETATM    4  H   UNK A   0     -12.047  19.226  65.257  1.00  0.00     0.000 HD 
ENDROOT
BRANCH   1   5
HETATM    5  C   UNK A   0      -9.884  17.900  65.166  1.00  0.00     1.616 C  
HETATM    6  O   UNK A   0     -10.954  17.074  65.101  1.00  0.00    -0.528 OA 
HETATM    7  H   UNK A   0     -10.769  16.201  65.427  1.00  0.00     0.000 HD 
BRANCH   5   8
HETATM    8  N   UNK A   0      -8.716  17.529  65.575  1.00  0.00     0.050 NA 
HETATM    9  H   UNK A   0      -7.876  17.952  65.181  1.00  0.00     0.000 HD 
BRANCH   8  10
HETATM   10  C   UNK A   0      -8.609  16.523  66.584  1.00  0.00    -0.254 A  
HETATM   11  C   UNK A   0      -9.242  15.264  66.454  1.00  0.00    -0.307 A  
HETATM   12  I   UNK A   0     -10.309  14.844  64.584  1.00  0.00     0.978 I  
HETATM   13  C   UNK A   0      -9.053  14.257  67.425  1.00  0.00    -0.199 A  
HETATM   14  I   UNK A   0      -7.000  18.756  67.959  1.00  0.00    -0.281 I  
HETATM   15  C   UNK A   0      -8.008  14.432  68.380  1.00  0.00    -0.141 A  
HETATM   16  I   UNK A   0      -7.195  12.611  69.273  1.00  0.00     0.519 I  
HETATM   17  C   UNK A   0      -7.713  16.733  67.675  1.00  0.00    -0.167 A  
HETATM   18  C   UNK A   0      -7.326  15.676  68.533  1.00  0.00    -0.122 A  
BRANCH  13  19
HETATM   19  C   UNK A   0      -9.968  13.080  67.560  1.00  0.00    -0.212 C  
HETATM   20  O   UNK A   0     -10.681  12.739  66.477  1.00  0.00    -0.254 OA 
HETATM   21  H   UNK A   0     -11.262  11.992  66.563  1.00  0.00     0.000 HD 
BRANCH  19  22
ATOM     22  N   SER A   1     -10.077  12.400  68.647  1.00  0.00    -0.369 NA 
ATOM     23  H   SER A   1      -9.256  12.011  69.109  1.00  0.00     0.000 HD 
BRANCH  22  24
ATOM     24  CA  SER A   1     -11.442  12.200  69.209  1.00  0.00    -0.302 C  
BRANCH  24  25
ATOM     25  C   SER A   1     -11.293  12.126  70.740  1.00  0.00     1.354 C  
ATOM     26  H   SER A   1     -12.470  12.250  72.313  1.00  0.00     0.000 HD 
ATOM     27  O   SER A   1     -12.562  12.296  71.369  1.00  0.00    -0.307 OA 
ENDBRANCH  24  25
BRANCH  24  28
ATOM     28  CB  SER A   1     -12.099  10.891  68.726  1.00  0.00    -0.054 C  
ATOM     29  OG  SER A   1     -13.355  10.605  69.339  1.00  0.00    -0.198 OA 
ATOM     30  HG  SER A   1     -13.759   9.798  69.042  1.00  0.00     0.000 HD 
ENDBRANCH  24  28
ENDBRANCH  22  24
ENDBRANCH  19  22
ENDBRANCH  13  19
BRANCH  18  31
HETATM   31  C   UNK A   0      -6.201  15.817  69.529  1.00  0.00    -0.154 C  
HETATM   32  H   UNK A   0      -4.989  14.746  70.620  1.00  0.00     0.000 HD 
HETATM   33  O   UNK A   0      -5.698  14.658  69.994  1.00  0.00    -0.106 OA 
BRANCH  31  34
ATOM     34  N   SER A   1      -5.760  16.941  69.980  1.00  0.00    -0.220 NA 
ATOM     35  H   SER A   1      -5.253  17.591  69.380  1.00  0.00     0.000 HD 
BRANCH  34  36
ATOM     36  CA  SER A   1      -6.022  17.253  71.418  1.00  0.00     1.417 C  
BRANCH  36  37
ATOM     37  CB  SER A   1      -5.184  16.295  72.269  1.00  0.00     0.895 C  
ATOM     38  HG  SER A   1      -4.933  14.347  72.430  1.00  0.00     0.000 HD 
ATOM     39  OG  SER A   1      -5.453  14.942  71.902  1.00  0.00    -0.045 OA 
ENDBRANCH  36  37
BRANCH  36  40
ATOM     40  C   SER A   1      -5.621  18.713  71.704  1.00  0.00     0.064 C  
ATOM     41  H   SER A   1      -6.524  20.457  71.878  1.00  0.00     0.000 HD 
ATOM     42  O   SER A   1      -6.771  19.557  71.701  1.00  0.00     0.690 OA 
ENDBRANCH  36  40
ENDBRANCH  34  36
ENDBRANCH  31  34
ENDBRANCH  18  31
ENDBRANCH   8  10
ENDBRANCH   5   8
ENDBRANCH   1   5
TORSDOF 13
ENDMDL
MODEL      275
REMARK 921   NORMALIZED FREE ENERGY PREDICTED BY IDOCK:   11.09 KCAL/MOL
REMARK 922        TOTAL FREE ENERGY PREDICTED BY IDOCK:   18.58 KCAL/MOL
REMARK 923 INTER-LIGAND FREE ENERGY PREDICTED BY IDOCK:    8.56 KCAL/MOL
REMARK 924 INTRA-LIGAND FREE ENERGY PREDICTED BY IDOCK:   10.02 KCAL/MOL
REMARK 927      BINDING AFFINITY PREDICTED BY RF-SCORE:    0.00 PKD
ROOT
HETATM    1  C   UNK A   0     -10.174  19.293  64.644  1.00  0.00     3.531 C  
HETATM    2  O   UNK A   0     -11.324  19.761  65.371  1.00  0.00    -0.179 OA 
HETATM    3  C   UNK A   0      -9.043  20.280  64.827  1.00  0.00     2.270 C  
HETATM    4  H   UNK A   0     -12.035  19.142  65.255  1.00  0.00     0.000 HD 
ENDROOT
BRANCH   1   5
HETATM    5  C   UNK A   0      -9.795  17.948  65.239  1.00  0.00     1.181 C  
HETATM    6  O   UNK A   0     -10.808  17.052  65.204  1.00  0.00    -0.617 OA 
HETATM    7  H   UNK A   0     -10.571  16.210  65.577  1.00  0.00     0.000 HD 
BRANCH   5   8
HETATM    8  N   UNK A   0      -8.612  17.676  65.682  1.00  0.00    -0.238 NA 
HETATM    9  H   UNK A   0      -7.794  18.121  65.266  1.00  0.00     0.000 HD 
BRANCH   8  10
HETATM   10  C   UNK A   0      -8.458  16.748  66.757  1.00  0.00    -0.234 A  
HETATM   11  C   UNK A   0      -8.994  15.440  66.699  1.00  0.00    -0.286 A  
HETATM   12  I   UNK A   0      -9.982  14.823  64.840  1.00  0.00     0.941 I  
HETATM   13  C   UNK A   0      -8.756  14.515  67.738  1.00  0.00    -0.174 A  
HETATM   14  I   UNK A   0      -7.049  19.178  68.012  1.00  0.00    -0.300 I  
HETATM   15  C   UNK A   0      -7.751  14.828  68.700  1.00  0.00    -0.130 A  
HETATM   16  I   UNK A   0      -6.831  13.134  69.728  1.00  0.00     0.711 I  
HETATM   17  C   UNK A   0      -7.606  17.094  67.850  1.00  0.00    -0.175 A  
HETATM   18  C   UNK A   0      -7.165  16.126  68.784  1.00  0.00    -0.170 A  
BRANCH  13  19
HETATM   19  C   UNK A   0      -9.587  13.285  67.932  1.00  0.00    -0.217 C  
HETATM   20  O   UNK A   0      -9.227  12.459  68.924  1.00  0.00    -0.386 OA 
HETATM   21  H   UNK A   0      -9.754  11.679  69.047  1.00  0.00     0.000 HD 
BRANCH  19  22
ATOM     22  N   SER A   1     -10.614  13.013  67.205  1.00  0.00    -0.241 NA 
ATOM     23  H   SER A   1     -11.372  13.686  67.092  1.00  0.00     0.000 HD 
BRANCH  22  24
ATOM     24  CA  SER A   1     -10.660  11.684  66.535  1.00  0.00    -0.253 C  
BRANCH  24  25
ATOM     25  C   SER A   1     -11.433  11.870  65.216  1.00  0.00    -0.253 C  
ATOM     26  H   SER A   1     -11.695  10.869  63.542  1.00  0.00     0.000 HD 
ATOM     27  O   SER A   1     -11.218  10.754  64.355  1.00  0.00     0.140 OA 
ENDBRANCH  24  25
BRANCH  24  28
ATOM     28  CB  SER A   1     -11.393  10.618  67.375  1.00  0.00    -0.105 C  
ATOM     29  OG  SER A   1     -11.565   9.366  66.713  1.00  0.00     0.746 OA 
ATOM     30  HG  SER A   1     -12.016   8.710  67.231  1.00  0.00     0.000 HD 
ENDBRANCH  24  28
ENDBRANCH  22  24
ENDBRANCH  19  22
ENDBRANCH  13  19
BRANCH  18  31
HETATM   31  C   UNK A   0      -6.078  16.415  69.790  1.00  0.00    -0.212 C  
HETATM   32  H   UNK A   0      -4.813  15.509  70.967  1.00  0.00     0.000 HD 
HETATM   33  O   UNK A   0      -5.497  15.328  70.333  1.00  0.00    -0.127 OA 
BRANCH  31  34
ATOM     34  N   SER A   1      -5.737  17.595  70.181  1.00  0.00    -0.244 NA 
ATOM     35  H   SER A   1      -5.265  18.245  69.553  1.00  0.00     0.000 HD 
BRANCH  34  36
ATOM     36  CA  SER A   1      -6.060  17.971  71.591  1.00  0.00     1.732 C  
BRANCH  36  37
ATOM     37  CB  SER A   1      -5.176  17.132  72.518  1.00  0.00     2.197 C  
ATOM     38  HG  SER A   1      -4.723  15.228  72.750  1.00  0.00     0.000 HD 
ATOM     39  OG  SER A   1      -5.271  15.749  72.174  1.00  0.00    -0.034 OA 
ENDBRANCH  36  37
BRANCH  36  40
ATOM     40  C   SER A   1      -5.777  19.471  71.795  1.00  0.00    -0.224 C  
ATOM     41  H   SER A   1      -6.812  21.149  71.842  1.00  0.00     0.000 HD 
ATOM     42  O   SER A   1      -6.987  20.224  71.715  1.00  0.00    -0.086 OA 
ENDBRANCH  36  40
ENDBRANCH  34  36
ENDBRANCH  31  34
ENDBRANCH  18  31
ENDBRANCH   8  10
ENDBRANCH   5   8
ENDBRANCH   1   5
TORSDOF 13
ENDMDL
MODEL      276
REMARK 921   NORMALIZED FREE ENERGY PREDICTED BY IDOCK:   11.40 KCAL/MOL
REMARK 922        TOTAL FREE ENERGY PREDICTED BY IDOCK:   19.14 KCAL/MOL
REMARK 923 INTER-LIGAND FREE ENERGY PREDICTED BY IDOCK:   16.95 KCAL/MOL
REMARK 924 INTRA-LIGAND FREE ENERGY PREDICTED BY IDOCK:    2.19 KCAL/MOL
REMARK 927      BINDING AFFINITY PREDICTED BY RF-SCORE:    0.00 PKD
ROOT
HETATM    1  C   UNK A   0     -11.367   3.620  66.394  1.00  0.00     4.887 C  
HETATM    2  O   UNK A   0     -10.947   3.713  67.767  1.00  0.00     2.335 OA 
HETATM    3  C   UNK A   0     -12.658   4.389  66.222  1.00  0.00    10.655 C  
HETATM    4  H   UNK A   0     -10.136   3.230  67.874  1.00  0.00     0.000 HD 
ENDROOT
BRANCH   1   5
HETATM    5  C   UNK A   0     -10.269   4.251  65.554  1.00  0.00    -0.207 C  
HETATM    6  O   UNK A   0      -9.210   3.430  65.368  1.00  0.00    -0.143 OA 
HETATM    7  H   UNK A   0      -8.523   3.824  64.843  1.00  0.00     0.000 HD 
BRANCH   5   8
HETATM    8  N   UNK A   0     -10.365   5.428  65.030  1.00  0.00     0.183 NA 
HETATM    9  H   UNK A   0     -11.104   5.632  64.358  1.00  0.00     0.000 HD 
BRANCH   8  10
HETATM   10  C   UNK A   0      -9.427   6.442  65.398  1.00  0.00     0.571 A  
HETATM   11  C   UNK A   0      -9.538   7.158  66.613  1.00  0.00    -0.170 A  
HETATM   12  I   UNK A   0     -11.142   6.583  67.994  1.00  0.00     0.131 I  
HETATM   13  C   UNK A   0      -8.553   8.095  66.991  1.00  0.00    -0.124 A  
HETATM   14  I   UNK A   0      -8.288   5.711  62.634  1.00  0.00     0.070 I  
HETATM   15  C   UNK A   0      -7.322   8.105  66.272  1.00  0.00    -0.078 A  
HETATM   16  I   UNK A   0      -5.583   8.893  67.334  1.00  0.00    -0.038 I  
HETATM   17  C   UNK A   0      -8.261   6.627  64.595  1.00  0.00    -0.034 A  
HETATM   18  C   UNK A   0      -7.155   7.381  65.053  1.00  0.00    -0.064 A  
BRANCH  13  19
HETATM   19  C   UNK A   0      -8.791   9.144  68.033  1.00  0.00    -0.129 C  
HETATM   20  O   UNK A   0      -9.676  10.106  67.735  1.00  0.00    -0.150 OA 
HETATM   21  H   UNK A   0      -9.827  10.771  68.397  1.00  0.00     0.000 HD 
BRANCH  19  22
ATOM     22  N   SER A   1      -8.199   9.141  69.176  1.00  0.00    -0.114 NA 
ATOM     23  H   SER A   1      -7.483   9.832  69.400  1.00  0.00     0.000 HD 
BRANCH  22  24
ATOM     24  CA  SER A   1      -8.593   8.095  70.161  1.00  0.00    -0.129 C  
BRANCH  24  25
ATOM     25  C   SER A   1      -8.890   8.816  71.489  1.00  0.00    -0.225 C  
ATOM     26  H   SER A   1      -9.991   8.499  73.090  1.00  0.00     0.000 HD 
ATOM     27  O   SER A   1      -9.808   8.054  72.270  1.00  0.00    -0.194 OA 
ENDBRANCH  24  25
BRANCH  24  28
ATOM     28  CB  SER A   1      -7.474   7.063  70.414  1.00  0.00    -0.085 C  
ATOM     29  OG  SER A   1      -7.709   6.206  71.530  1.00  0.00    -0.097 OA 
ATOM     30  HG  SER A   1      -7.020   5.571  71.685  1.00  0.00     0.000 HD 
ENDBRANCH  24  28
ENDBRANCH  22  24
ENDBRANCH  19  22
ENDBRANCH  13  19
BRANCH  18  31
HETATM   31  C   UNK A   0      -5.828   7.383  64.335  1.00  0.00    -0.037 C  
HETATM   32  H   UNK A   0      -4.343   6.204  63.874  1.00  0.00     0.000 HD 
HETATM   33  O   UNK A   0      -5.179   6.203  64.327  1.00  0.00    -0.016 OA 
BRANCH  31  34
ATOM     34  N   SER A   1      -5.283   8.425  63.806  1.00  0.00    -0.052 NA 
ATOM     35  H   SER A   1      -4.269   8.513  63.731  1.00  0.00     0.000 HD 
BRANCH  34  36
ATOM     36  CA  SER A   1      -6.196   9.499  63.309  1.00  0.00    -0.099 C  
BRANCH  36  37
ATOM     37  CB  SER A   1      -5.342  10.550  62.594  1.00  0.00    -0.142 C  
ATOM     38  HG  SER A   1      -5.471  12.470  62.167  1.00  0.00     0.000 HD 
ATOM     39  OG  SER A   1      -6.000  11.817  62.611  1.00  0.00     0.692 OA 
ENDBRANCH  36  37
BRANCH  36  40
ATOM     40  C   SER A   1      -7.218   8.886  62.333  1.00  0.00    -0.099 C  
ATOM     41  H   SER A   1      -9.097   9.193  61.820  1.00  0.00     0.000 HD 
ATOM     42  O   SER A   1      -8.467   9.571  62.422  1.00  0.00    -0.151 OA 
ENDBRANCH  36  40
ENDBRANCH  34  36
ENDBRANCH  31  34
ENDBRANCH  18  31
ENDBRANCH   8  10
ENDBRANCH   5   8
ENDBRANCH   1   5
TORSDOF 13
ENDMDL
MODEL      277
REMARK 921   NORMALIZED FREE ENERGY PREDICTED BY IDOCK:   11.82 KCAL/MOL
REMARK 922        TOTAL FREE ENERGY PREDICTED BY IDOCK:   19.88 KCAL/MOL
REMARK 923 INTER-LIGAND FREE ENERGY PREDICTED BY IDOCK:    5.25 KCAL/MOL
REMARK 924 INTRA-LIGAND FREE ENERGY PREDICTED BY IDOCK:   14.63 KCAL/MOL
REMARK 927      BINDING AFFINITY PREDICTED BY RF-SCORE:    0.00 PKD
ROOT
HETATM    1  C   UNK A   0     -10.599   9.445  69.152  1.00  0.00    -0.218 C  
HETATM    2  O   UNK A   0     -10.750   8.036  68.905  1.00  0.00    -0.360 OA 
HETATM    3  C   UNK A   0      -9.240   9.888  68.657  1.00  0.00    -0.139 C  
HETATM    4  H   UNK A   0     -11.603   7.759  69.217  1.00  0.00     0.000 HD 
ENDROOT
BRANCH   1   5
HETATM    5  C   UNK A   0     -11.694  10.150  68.370  1.00  0.00     0.309 C  
HETATM    6  O   UNK A   0     -12.255   9.363  67.423  1.00  0.00     2.734 OA 
HETATM    7  H   UNK A   0     -12.940   9.803  66.933  1.00  0.00     0.000 HD 
BRANCH   5   8
HETATM    8  N   UNK A   0     -12.083  11.356  68.622  1.00  0.00    -0.542 NA 
HETATM    9  H   UNK A   0     -12.980  11.521  69.078  1.00  0.00     0.000 HD 
BRANCH   8  10
HETATM   10  C   UNK A   0     -11.248  12.456  68.258  1.00  0.00    -0.263 A  
HETATM   11  C   UNK A   0     -11.168  13.628  69.046  1.00  0.00    -0.273 A  
HETATM   12  I   UNK A   0     -12.284  13.667  70.934  1.00  0.00    -0.068 I  
HETATM   13  C   UNK A   0     -10.273  14.667  68.709  1.00  0.00    -0.242 A  
HETATM   14  I   UNK A   0     -10.715  10.626  65.842  1.00  0.00     0.190 I  
HETATM   15  C   UNK A   0      -9.269  14.398  67.734  1.00  0.00    -0.192 A  
HETATM   16  I   UNK A   0      -7.464  15.625  67.836  1.00  0.00    -0.202 I  
HETATM   17  C   UNK A   0     -10.352  12.307  67.155  1.00  0.00    -0.218 A  
HETATM   18  C   UNK A   0      -9.295  13.220  66.928  1.00  0.00    -0.244 A  
BRANCH  13  19
HETATM   19  C   UNK A   0     -10.408  16.057  69.247  1.00  0.00    -0.251 C  
HETATM   20  O   UNK A   0     -11.608  16.409  69.728  1.00  0.00    -0.317 OA 
HETATM   21  H   UNK A   0     -11.693  17.291  70.070  1.00  0.00     0.000 HD 
BRANCH  19  22
ATOM     22  N   SER A   1      -9.430  16.894  69.272  1.00  0.00    -0.127 NA 
ATOM     23  H   SER A   1      -8.930  17.094  70.138  1.00  0.00     0.000 HD 
BRANCH  22  24
ATOM     24  CA  SER A   1      -9.053  17.562  67.995  1.00  0.00    -0.269 C  
BRANCH  24  25
ATOM     25  C   SER A   1      -7.662  18.187  68.207  1.00  0.00    -0.283 C  
ATOM     26  H   SER A   1      -6.364  19.215  67.143  1.00  0.00     0.000 HD 
ATOM     27  O   SER A   1      -7.222  18.830  67.013  1.00  0.00    -0.206 OA 
ENDBRANCH  24  25
BRANCH  24  28
ATOM     28  CB  SER A   1     -10.031  18.689  67.601  1.00  0.00    -0.341 C  
ATOM     29  OG  SER A   1     -11.324  18.232  67.210  1.00  0.00     0.155 OA 
ATOM     30  HG  SER A   1     -11.926  18.925  66.967  1.00  0.00     0.000 HD 
ENDBRANCH  24  28
ENDBRANCH  22  24
ENDBRANCH  19  22
ENDBRANCH  13  19
BRANCH  18  31
HETATM   31  C   UNK A   0      -8.197  12.949  65.929  1.00  0.00     1.594 C  
HETATM   32  H   UNK A   0      -6.288  12.560  65.832  1.00  0.00     0.000 HD 
HETATM   33  O   UNK A   0      -6.979  12.731  66.461  1.00  0.00     0.462 OA 
BRANCH  31  34
ATOM     34  N   SER A   1      -8.349  12.973  64.650  1.00  0.00     3.282 NA 
ATOM     35  H   SER A   1      -8.668  13.815  64.169  1.00  0.00     0.000 HD 
BRANCH  34  36
ATOM     36  CA  SER A   1      -8.041  11.719  63.898  1.00  0.00     1.909 C  
BRANCH  36  37
ATOM     37  CB  SER A   1      -7.423  10.720  64.880  1.00  0.00     0.220 C  
ATOM     38  HG  SER A   1      -7.978   9.070  65.805  1.00  0.00     0.000 HD 
ATOM     39  OG  SER A   1      -8.361   9.690  65.195  1.00  0.00    -0.124 OA 
ENDBRANCH  36  37
BRANCH  36  40
ATOM     40  C   SER A   1      -9.342  11.149  63.303  1.00  0.00    -0.297 C  
ATOM     41  H   SER A   1     -11.139  11.815  62.842  1.00  0.00     0.000 HD 
ATOM     42  O   SER A   1     -10.337  12.167  63.209  1.00  0.00    -0.432 OA 
ENDBRANCH  36  40
ENDBRANCH  34  36
ENDBRANCH  31  34
ENDBRANCH  18  31
ENDBRANCH   8  10
ENDBRANCH   5   8
ENDBRANCH   1   5
TORSDOF 13
ENDMDL
MODEL      278
REMARK 921   NORMALIZED FREE ENERGY PREDICTED BY IDOCK:   12.75 KCAL/MOL
REMARK 922        TOTAL FREE ENERGY PREDICTED BY IDOCK:   21.50 KCAL/MOL
REMARK 923 INTER-LIGAND FREE ENERGY PREDICTED BY IDOCK:   -4.04 KCAL/MOL
REMARK 924 INTRA-LIGAND FREE ENERGY PREDICTED BY IDOCK:   25.54 KCAL/MOL
REMARK 927      BINDING AFFINITY PREDICTED BY RF-SCORE:    0.00 PKD
ROOT
HETATM    1  C   UNK A   0      -8.228   6.151  69.596  1.00  0.00    -0.116 C  
HETATM    2  O   UNK A   0      -7.634   6.775  68.444  1.00  0.00    -0.099 OA 
HETATM    3  C   UNK A   0      -7.211   6.118  70.716  1.00  0.00    -0.074 C  
HETATM    4  H   UNK A   0      -8.272   6.796  67.741  1.00  0.00     0.000 HD 
ENDROOT
BRANCH   1   5
HETATM    5  C   UNK A   0      -9.417   7.008  69.997  1.00  0.00    -0.161 C  
HETATM    6  O   UNK A   0     -10.590   6.336  69.953  1.00  0.00    -0.204 OA 
HETATM    7  H   UNK A   0     -11.334   6.871  70.203  1.00  0.00     0.000 HD 
BRANCH   5   8
HETATM    8  N   UNK A   0      -9.307   8.234  70.391  1.00  0.00    -0.157 NA 
HETATM    9  H   UNK A   0      -9.259   8.451  71.386  1.00  0.00     0.000 HD 
BRANCH   8  10
HETATM   10  C   UNK A   0      -9.255   9.283  69.423  1.00  0.00    -0.159 A  
HETATM   11  C   UNK A   0     -10.156  10.373  69.451  1.00  0.00    -0.229 A  
HETATM   12  I   UNK A   0     -11.583  10.475  71.113  1.00  0.00     0.436 I  
HETATM   13  C   UNK A   0     -10.030  11.438  68.533  1.00  0.00    -0.203 A  
HETATM   14  I   UNK A   0      -6.996   7.503  68.328  1.00  0.00    -0.072 I  
HETATM   15  C   UNK A   0      -8.830  11.530  67.770  1.00  0.00    -0.153 A  
HETATM   16  I   UNK A   0      -8.292  13.519  67.042  1.00  0.00     0.203 I  
HETATM   17  C   UNK A   0      -8.166   9.315  68.499  1.00  0.00    -0.114 A  
HETATM   18  C   UNK A   0      -7.880  10.466  67.727  1.00  0.00    -0.101 A  
BRANCH  13  19
HETATM   19  C   UNK A   0     -11.143  12.400  68.252  1.00  0.00    -0.243 C  
HETATM   20  O   UNK A   0     -12.319  12.158  68.848  1.00  0.00    -0.100 OA 
HETATM   21  H   UNK A   0     -13.025  12.768  68.669  1.00  0.00     0.000 HD 
BRANCH  19  22
ATOM     22  N   SER A   1     -11.003  13.427  67.490  1.00  0.00    -0.263 NA 
ATOM     23  H   SER A   1     -10.526  13.354  66.591  1.00  0.00     0.000 HD 
BRANCH  22  24
ATOM     24  CA  SER A   1     -11.560  14.726  67.961  1.00  0.00    -0.343 C  
BRANCH  24  25
ATOM     25  C   SER A   1     -10.813  15.839  67.203  1.00  0.00    -0.289 C  
ATOM     26  H   SER A   1      -9.794  16.012  65.528  1.00  0.00     0.000 HD 
ATOM     27  O   SER A   1     -10.255  15.325  65.996  1.00  0.00    -0.279 OA 
ENDBRANCH  24  25
BRANCH  24  28
ATOM     28  CB  SER A   1     -11.351  14.949  69.473  1.00  0.00    -0.281 C  
ATOM     29  OG  SER A   1     -10.882  16.253  69.813  1.00  0.00    -0.318 OA 
ATOM     30  HG  SER A   1     -10.753  16.391  70.744  1.00  0.00     0.000 HD 
ENDBRANCH  24  28
ENDBRANCH  22  24
ENDBRANCH  19  22
ENDBRANCH  13  19
BRANCH  18  31
HETATM   31  C   UNK A   0      -6.602  10.609  66.938  1.00  0.00    -0.086 C  
HETATM   32  H   UNK A   0      -5.373  11.965  66.261  1.00  0.00     0.000 HD 
HETATM   33  O   UNK A   0      -6.178  11.875  66.757  1.00  0.00    -0.141 OA 
BRANCH  31  34
ATOM     34  N   SER A   1      -5.959   9.629  66.402  1.00  0.00    -0.058 NA 
ATOM     35  H   SER A   1      -4.942   9.643  66.322  1.00  0.00     0.000 HD 
BRANCH  34  36
ATOM     36  CA  SER A   1      -6.763   8.473  65.902  1.00  0.00    -0.057 C  
BRANCH  36  37
ATOM     37  CB  SER A   1      -8.239   8.879  65.925  1.00  0.00    -0.119 C  
ATOM     38  HG  SER A   1      -9.393  10.183  65.003  1.00  0.00     0.000 HD 
ATOM     39  OG  SER A   1      -8.478   9.930  64.989  1.00  0.00    -0.136 OA 
ENDBRANCH  36  37
BRANCH  36  40
ATOM     40  C   SER A   1      -6.324   8.131  64.465  1.00  0.00    -0.064 C  
ATOM     41  H   SER A   1      -4.911   8.690  63.209  1.00  0.00     0.000 HD 
ATOM     42  O   SER A   1      -5.181   8.901  64.095  1.00  0.00    -0.053 OA 
ENDBRANCH  36  40
ENDBRANCH  34  36
ENDBRANCH  31  34
ENDBRANCH  18  31
ENDBRANCH   8  10
ENDBRANCH   5   8
ENDBRANCH   1   5
TORSDOF 13
ENDMDL
MODEL      279
REMARK 921   NORMALIZED FREE ENERGY PREDICTED BY IDOCK:   13.24 KCAL/MOL
REMARK 922        TOTAL FREE ENERGY PREDICTED BY IDOCK:   22.37 KCAL/MOL
REMARK 923 INTER-LIGAND FREE ENERGY PREDICTED BY IDOCK:    6.79 KCAL/MOL
REMARK 924 INTRA-LIGAND FREE ENERGY PREDICTED BY IDOCK:   15.58 KCAL/MOL
REMARK 927      BINDING AFFINITY PREDICTED BY RF-SCORE:    0.00 PKD
ROOT
HETATM    1  C   UNK A   0     -11.919  16.281  65.630  1.00  0.00     1.441 C  
HETATM    2  O   UNK A   0     -12.130  17.702  65.553  1.00  0.00     2.819 OA 
HETATM    3  C   UNK A   0     -13.182  15.572  65.195  1.00  0.00     1.715 C  
HETATM    4  H   UNK A   0     -11.337  18.147  65.827  1.00  0.00     0.000 HD 
ENDROOT
BRANCH   1   5
HETATM    5  C   UNK A   0     -10.782  15.954  64.676  1.00  0.00    -0.078 C  
HETATM    6  O   UNK A   0     -10.559  16.931  63.766  1.00  0.00     1.191 OA 
HETATM    7  H   UNK A   0      -9.849  16.726  63.170  1.00  0.00     0.000 HD 
BRANCH   5   8
HETATM    8  N   UNK A   0     -10.070  14.879  64.763  1.00  0.00    -0.443 NA 
HETATM    9  H   UNK A   0      -9.454  14.608  63.997  1.00  0.00     0.000 HD 
BRANCH   8  10
HETATM   10  C   UNK A   0     -10.153  14.072  65.939  1.00  0.00    -0.321 A  
HETATM   11  C   UNK A   0     -10.301  12.667  65.873  1.00  0.00    -0.276 A  
HETATM   12  I   UNK A   0     -10.280  11.729  63.890  1.00  0.00    -0.510 I  
HETATM   13  C   UNK A   0     -10.297  11.884  67.048  1.00  0.00    -0.239 A  
HETATM   14  I   UNK A   0      -9.978  16.843  67.267  1.00  0.00    -0.300 I  
HETATM   15  C   UNK A   0      -9.869  12.496  68.262  1.00  0.00    -0.227 A  
HETATM   16  I   UNK A   0      -9.078  11.159  69.798  1.00  0.00     1.895 I  
HETATM   17  C   UNK A   0      -9.923  14.680  67.211  1.00  0.00    -0.235 A  
HETATM   18  C   UNK A   0      -9.686  13.907  68.372  1.00  0.00    -0.226 A  
BRANCH  13  19
HETATM   19  C   UNK A   0     -10.826  10.484  67.089  1.00  0.00    -0.259 C  
HETATM   20  O   UNK A   0     -10.177   9.568  66.356  1.00  0.00    -0.264 OA 
HETATM   21  H   UNK A   0     -10.513   8.680  66.383  1.00  0.00     0.000 HD 
BRANCH  19  22
ATOM     22  N   SER A   1     -11.845  10.142  67.796  1.00  0.00    -0.217 NA 
ATOM     23  H   SER A   1     -12.729  10.646  67.723  1.00  0.00     0.000 HD 
BRANCH  22  24
ATOM     24  CA  SER A   1     -11.693   8.989  68.726  1.00  0.00     1.274 C  
BRANCH  24  25
ATOM     25  C   SER A   1     -11.462   9.570  70.133  1.00  0.00    -0.162 C  
ATOM     26  H   SER A   1     -12.386   9.558  71.871  1.00  0.00     0.000 HD 
ATOM     27  O   SER A   1     -12.529   9.199  71.003  1.00  0.00    -0.274 OA 
ENDBRANCH  24  25
BRANCH  24  28
ATOM     28  CB  SER A   1     -10.488   8.093  68.372  1.00  0.00    -0.161 C  
ATOM     29  OG  SER A   1     -10.841   6.830  67.811  1.00  0.00    -0.280 OA 
ATOM     30  HG  SER A   1     -10.099   6.279  67.593  1.00  0.00     0.000 HD 
ENDBRANCH  24  28
ENDBRANCH  22  24
ENDBRANCH  19  22
ENDBRANCH  13  19
BRANCH  18  31
HETATM   31  C   UNK A   0      -9.198  14.520  69.662  1.00  0.00     0.455 C  
HETATM   32  H   UNK A   0      -7.662  14.516  70.865  1.00  0.00     0.000 HD 
HETATM   33  O   UNK A   0      -7.969  14.130  70.053  1.00  0.00     0.656 OA 
BRANCH  31  34
ATOM     34  N   SER A   1      -9.891  15.314  70.403  1.00  0.00    -0.348 NA 
ATOM     35  H   SER A   1      -9.442  16.010  71.000  1.00  0.00     0.000 HD 
BRANCH  34  36
ATOM     36  CA  SER A   1     -11.378  15.176  70.354  1.00  0.00    -0.290 C  
BRANCH  36  37
ATOM     37  CB  SER A   1     -11.721  13.696  70.550  1.00  0.00    -0.099 C  
ATOM     38  HG  SER A   1     -10.995  11.956  69.978  1.00  0.00     0.000 HD 
ATOM     39  OG  SER A   1     -10.782  12.874  69.857  1.00  0.00     0.449 OA 
ENDBRANCH  36  37
BRANCH  36  40
ATOM     40  C   SER A   1     -12.006  16.024  71.476  1.00  0.00    -0.475 C  
ATOM     41  H   SER A   1     -11.802  17.844  72.205  1.00  0.00     0.000 HD 
ATOM     42  O   SER A   1     -11.414  17.321  71.513  1.00  0.00     0.583 OA 
ENDBRANCH  36  40
ENDBRANCH  34  36
ENDBRANCH  31  34
ENDBRANCH  18  31
ENDBRANCH   8  10
ENDBRANCH   5   8
ENDBRANCH   1   5
TORSDOF 13
ENDMDL
MODEL      280
REMARK 921   NORMALIZED FREE ENERGY PREDICTED BY IDOCK:   14.66 KCAL/MOL
REMARK 922        TOTAL FREE ENERGY PREDICTED BY IDOCK:   24.88 KCAL/MOL
REMARK 923 INTER-LIGAND FREE ENERGY PREDICTED BY IDOCK:   22.89 KCAL/MOL
REMARK 924 INTRA-LIGAND FREE ENERGY PREDICTED BY IDOCK:    1.99 KCAL/MOL
REMARK 927      BINDING AFFINITY PREDICTED BY RF-SCORE:    0.00 PKD
ROOT
HETATM    1  C   UNK A   0     -10.893   2.354  66.644  1.00  0.00     5.347 C  
HETATM    2  O   UNK A   0     -10.404   2.436  67.995  1.00  0.00     0.804 OA 
HETATM    3  C   UNK A   0     -12.299   2.907  66.596  1.00  0.00    18.405 C  
HETATM    4  H   UNK A   0      -9.521   2.088  68.025  1.00  0.00     0.000 HD 
ENDROOT
BRANCH   1   5
HETATM    5  C   UNK A   0      -9.968   3.204  65.790  1.00  0.00     0.381 C  
HETATM    6  O   UNK A   0      -8.806   2.580  65.488  1.00  0.00    -0.118 OA 
HETATM    7  H   UNK A   0      -8.227   3.112  64.954  1.00  0.00     0.000 HD 
BRANCH   5   8
HETATM    8  N   UNK A   0     -10.285   4.379  65.354  1.00  0.00    -0.323 NA 
HETATM    9  H   UNK A   0     -11.215   4.550  64.971  1.00  0.00     0.000 HD 
BRANCH   8  10
HETATM   10  C   UNK A   0      -9.325   5.435  65.411  1.00  0.00     0.014 A  
HETATM   11  C   UNK A   0      -9.015   6.099  66.621  1.00  0.00    -0.130 A  
HETATM   12  I   UNK A   0      -9.973   5.377  68.457  1.00  0.00    -0.201 I  
HETATM   13  C   UNK A   0      -8.003   7.082  66.666  1.00  0.00    -0.108 A  
HETATM   14  I   UNK A   0      -9.246   4.875  62.386  1.00  0.00     0.178 I  
HETATM   15  C   UNK A   0      -7.123   7.193  65.550  1.00  0.00    -0.064 A  
HETATM   16  I   UNK A   0      -5.153   8.050  65.948  1.00  0.00    -0.024 I  
HETATM   17  C   UNK A   0      -8.544   5.720  64.250  1.00  0.00     0.078 A  
HETATM   18  C   UNK A   0      -7.382   6.526  64.316  1.00  0.00    -0.073 A  
BRANCH  13  19
HETATM   19  C   UNK A   0      -7.889   8.076  67.780  1.00  0.00    -0.126 C  
HETATM   20  O   UNK A   0      -7.965   7.598  69.030  1.00  0.00    -0.117 OA 
HETATM   21  H   UNK A   0      -7.893   8.229  69.737  1.00  0.00     0.000 HD 
BRANCH  19  22
ATOM     22  N   SER A   1      -7.714   9.335  67.578  1.00  0.00    -0.092 NA 
ATOM     23  H   SER A   1      -7.528   9.697  66.643  1.00  0.00     0.000 HD 
BRANCH  22  24
ATOM     24  CA  SER A   1      -7.790  10.246  68.754  1.00  0.00    -0.106 C  
BRANCH  24  25
ATOM     25  C   SER A   1      -9.282  10.434  69.084  1.00  0.00    -0.191 C  
ATOM     26  H   SER A   1     -10.577   9.710  70.377  1.00  0.00     0.000 HD 
ATOM     27  O   SER A   1      -9.656   9.594  70.174  1.00  0.00    -0.228 OA 
ENDBRANCH  24  25
BRANCH  24  28
ATOM     28  CB  SER A   1      -7.181  11.636  68.471  1.00  0.00    -0.094 C  
ATOM     29  OG  SER A   1      -6.641  12.284  69.621  1.00  0.00    -0.258 OA 
ATOM     30  HG  SER A   1      -6.267  13.139  69.446  1.00  0.00     0.000 HD 
ENDBRANCH  24  28
ENDBRANCH  22  24
ENDBRANCH  19  22
ENDBRANCH  13  19
BRANCH  18  31
HETATM   31  C   UNK A   0      -6.412   6.635  63.165  1.00  0.00    -0.042 C  
HETATM   32  H   UNK A   0      -5.170   5.561  62.112  1.00  0.00     0.000 HD 
HETATM   33  O   UNK A   0      -5.780   5.492  62.836  1.00  0.00    -0.014 OA 
BRANCH  31  34
ATOM     34  N   SER A   1      -6.128   7.732  62.549  1.00  0.00    -0.071 NA 
ATOM     35  H   SER A   1      -5.497   7.742  61.748  1.00  0.00     0.000 HD 
BRANCH  34  36
ATOM     36  CA  SER A   1      -6.759   8.988  63.057  1.00  0.00    -0.090 C  
BRANCH  36  37
ATOM     37  CB  SER A   1      -5.822  10.153  62.731  1.00  0.00    -0.121 C  
ATOM     38  HG  SER A   1      -5.661  12.057  63.212  1.00  0.00     0.000 HD 
ATOM     39  OG  SER A   1      -6.242  11.334  63.415  1.00  0.00     0.623 OA 
ENDBRANCH  36  37
BRANCH  36  40
ATOM     40  C   SER A   1      -8.122   9.187  62.367  1.00  0.00    -0.139 C  
ATOM     41  H   SER A   1      -9.811  10.135  62.739  1.00  0.00     0.000 HD 
ATOM     42  O   SER A   1      -8.971  10.011  63.164  1.00  0.00    -0.215 OA 
ENDBRANCH  36  40
ENDBRANCH  34  36
ENDBRANCH  31  34
ENDBRANCH  18  31
ENDBRANCH   8  10
ENDBRANCH   5   8
ENDBRANCH   1   5
TORSDOF 13
ENDMDL
MODEL      281
REMARK 921   NORMALIZED FREE ENERGY PREDICTED BY IDOCK:   14.70 KCAL/MOL
REMARK 922        TOTAL FREE ENERGY PREDICTED BY IDOCK:   24.94 KCAL/MOL
REMARK 923 INTER-LIGAND FREE ENERGY PREDICTED BY IDOCK:   11.80 KCAL/MOL
REMARK 924 INTRA-LIGAND FREE ENERGY PREDICTED BY IDOCK:   13.14 KCAL/MOL
REMARK 927      BINDING AFFINITY PREDICTED BY RF-SCORE:    0.00 PKD
ROOT
HETATM    1  C   UNK A   0     -11.785  11.676  63.678  1.00  0.00    -0.303 C  
HETATM    2  O   UNK A   0     -10.962  11.645  62.498  1.00  0.00    -0.054 OA 
HETATM    3  C   UNK A   0     -11.596  10.384  64.442  1.00  0.00     2.925 C  
HETATM    4  H   UNK A   0     -11.081  12.457  62.018  1.00  0.00     0.000 HD 
ENDROOT
BRANCH   1   5
HETATM    5  C   UNK A   0     -11.309  12.851  64.515  1.00  0.00    -0.341 C  
HETATM    6  O   UNK A   0      -9.970  12.855  64.706  1.00  0.00    -0.496 OA 
HETATM    7  H   UNK A   0      -9.672  13.589  65.230  1.00  0.00     0.000 HD 
BRANCH   5   8
HETATM    8  N   UNK A   0     -12.098  13.777  64.952  1.00  0.00    -0.382 NA 
HETATM    9  H   UNK A   0     -12.804  14.181  64.337  1.00  0.00     0.000 HD 
BRANCH   8  10
HETATM   10  C   UNK A   0     -11.974  14.231  66.301  1.00  0.00    -0.412 A  
HETATM   11  C   UNK A   0     -12.064  13.344  67.400  1.00  0.00    -0.293 A  
HETATM   12  I   UNK A   0     -12.285  11.204  66.970  1.00  0.00     3.889 I  
HETATM   13  C   UNK A   0     -11.856  13.804  68.718  1.00  0.00    -0.398 A  
HETATM   14  I   UNK A   0     -11.739  16.938  64.857  1.00  0.00     2.793 I  
HETATM   15  C   UNK A   0     -11.287  15.099  68.896  1.00  0.00    -0.301 A  
HETATM   16  I   UNK A   0     -10.223  15.442  70.773  1.00  0.00     1.359 I  
HETATM   17  C   UNK A   0     -11.592  15.585  66.540  1.00  0.00     0.182 A  
HETATM   18  C   UNK A   0     -11.155  16.020  67.814  1.00  0.00    -0.273 A  
BRANCH  13  19
HETATM   19  C   UNK A   0     -12.307  13.039  69.923  1.00  0.00    -0.110 C  
HETATM   20  O   UNK A   0     -11.539  13.121  71.017  1.00  0.00    -0.173 OA 
HETATM   21  H   UNK A   0     -11.826  12.636  71.782  1.00  0.00     0.000 HD 
BRANCH  19  22
ATOM     22  N   SER A   1     -13.386  12.336  69.941  1.00  0.00     1.600 NA 
ATOM     23  H   SER A   1     -14.210  12.624  69.413  1.00  0.00     0.000 HD 
BRANCH  22  24
ATOM     24  CA  SER A   1     -13.392  11.091  70.758  1.00  0.00     0.303 C  
BRANCH  24  25
ATOM     25  C   SER A   1     -13.191  11.513  72.225  1.00  0.00     0.008 C  
ATOM     26  H   SER A   1     -11.943  11.097  73.689  1.00  0.00     0.000 HD 
ATOM     27  O   SER A   1     -12.067  10.837  72.784  1.00  0.00     2.039 OA 
ENDBRANCH  24  25
BRANCH  24  28
ATOM     28  CB  SER A   1     -12.254  10.122  70.376  1.00  0.00    -0.218 C  
ATOM     29  OG  SER A   1     -12.567   8.744  70.570  1.00  0.00    -0.419 OA 
ATOM     30  HG  SER A   1     -11.866   8.148  70.335  1.00  0.00     0.000 HD 
ENDBRANCH  24  28
ENDBRANCH  22  24
ENDBRANCH  19  22
ENDBRANCH  13  19
BRANCH  18  31
HETATM   31  C   UNK A   0     -10.517  17.371  68.029  1.00  0.00    -0.383 C  
HETATM   32  H   UNK A   0     -10.247  18.726  69.406  1.00  0.00     0.000 HD 
HETATM   33  O   UNK A   0     -10.649  17.876  69.270  1.00  0.00    -0.119 OA 
BRANCH  31  34
ATOM     34  N   SER A   1      -9.930  18.058  67.109  1.00  0.00    -0.311 NA 
ATOM     35  H   SER A   1      -9.031  17.770  66.724  1.00  0.00     0.000 HD 
BRANCH  34  36
ATOM     36  CA  SER A   1     -10.622  19.293  66.630  1.00  0.00    -0.438 C  
BRANCH  36  37
ATOM     37  CB  SER A   1      -9.557  20.365  66.385  1.00  0.00    -0.252 C  
ATOM     38  HG  SER A   1      -7.596  20.439  66.200  1.00  0.00     0.000 HD 
ATOM     39  OG  SER A   1      -8.257  19.774  66.351  1.00  0.00    -0.317 OA 
ENDBRANCH  36  37
BRANCH  36  40
ATOM     40  C   SER A   1     -11.376  18.980  65.323  1.00  0.00     1.489 C  
ATOM     41  H   SER A   1     -11.027  18.001  63.648  1.00  0.00     0.000 HD 
ATOM     42  O   SER A   1     -10.563  18.194  64.453  1.00  0.00     1.205 OA 
ENDBRANCH  36  40
ENDBRANCH  34  36
ENDBRANCH  31  34
ENDBRANCH  18  31
ENDBRANCH   8  10
ENDBRANCH   5   8
ENDBRANCH   1   5
TORSDOF 13
ENDMDL
MODEL      282
REMARK 921   NORMALIZED FREE ENERGY PREDICTED BY IDOCK:   15.49 KCAL/MOL
REMARK 922        TOTAL FREE ENERGY PREDICTED BY IDOCK:   26.32 KCAL/MOL
REMARK 923 INTER-LIGAND FREE ENERGY PREDICTED BY IDOCK:   15.05 KCAL/MOL
REMARK 924 INTRA-LIGAND FREE ENERGY PREDICTED BY IDOCK:   11.27 KCAL/MOL
REMARK 927      BINDING AFFINITY PREDICTED BY RF-SCORE:    0.00 PKD
ROOT
HETATM    1  C   UNK A   0     -10.399   7.127  65.735  1.00  0.00     1.601 C  
HETATM    2  O   UNK A   0     -10.622   8.390  66.388  1.00  0.00    -0.314 OA 
HETATM    3  C   UNK A   0      -9.193   7.247  64.831  1.00  0.00     0.993 C  
HETATM    4  H   UNK A   0     -11.380   8.314  66.955  1.00  0.00     0.000 HD 
ENDROOT
BRANCH   1   5
HETATM    5  C   UNK A   0     -10.132   6.107  66.829  1.00  0.00    -0.182 C  
HETATM    6  O   UNK A   0      -8.881   5.595  66.778  1.00  0.00    -0.114 OA 
HETATM    7  H   UNK A   0      -8.713   4.957  67.462  1.00  0.00     0.000 HD 
BRANCH   5   8
HETATM    8  N   UNK A   0     -10.994   5.805  67.743  1.00  0.00    -0.268 NA 
HETATM    9  H   UNK A   0     -11.871   5.350  67.491  1.00  0.00     0.000 HD 
BRANCH   8  10
HETATM   10  C   UNK A   0     -10.710   6.113  69.109  1.00  0.00    -0.316 A  
HETATM   11  C   UNK A   0      -9.478   5.769  69.714  1.00  0.00    -0.148 A  
HETATM   12  I   UNK A   0      -7.944   4.841  68.450  1.00  0.00    -0.083 I  
HETATM   13  C   UNK A   0      -9.190   6.159  71.039  1.00  0.00    -0.166 A  
HETATM   14  I   UNK A   0     -13.591   7.185  68.961  1.00  0.00    14.842 I  
HETATM   15  C   UNK A   0     -10.036   7.129  71.654  1.00  0.00    -0.177 A  
HETATM   16  I   UNK A   0      -9.151   8.304  73.269  1.00  0.00     0.142 I  
HETATM   17  C   UNK A   0     -11.629   6.929  69.837  1.00  0.00    -0.202 A  
HETATM   18  C   UNK A   0     -11.277   7.524  71.072  1.00  0.00    -0.281 A  
BRANCH  13  19
HETATM   19  C   UNK A   0      -8.111   5.517  71.855  1.00  0.00    -0.115 C  
HETATM   20  O   UNK A   0      -8.501   4.696  72.839  1.00  0.00    -0.109 OA 
HETATM   21  H   UNK A   0      -7.816   4.289  73.357  1.00  0.00     0.000 HD 
BRANCH  19  22
ATOM     22  N   SER A   1      -6.858   5.716  71.637  1.00  0.00    -0.064 NA 
ATOM     23  H   SER A   1      -6.435   6.630  71.796  1.00  0.00     0.000 HD 
BRANCH  22  24
ATOM     24  CA  SER A   1      -6.047   4.568  71.143  1.00  0.00    -0.018 C  
BRANCH  24  25
ATOM     25  C   SER A   1      -5.993   4.679  69.608  1.00  0.00    -0.018 C  
ATOM     26  H   SER A   1      -5.105   3.743  68.123  1.00  0.00     0.000 HD 
ATOM     27  O   SER A   1      -5.139   3.673  69.070  1.00  0.00    -0.009 OA 
ENDBRANCH  24  25
BRANCH  24  28
ATOM     28  CB  SER A   1      -6.667   3.202  71.505  1.00  0.00    -0.026 C  
ATOM     29  OG  SER A   1      -5.835   2.083  71.202  1.00  0.00    -0.012 OA 
ATOM     30  HG  SER A   1      -6.217   1.242  71.425  1.00  0.00     0.000 HD 
ENDBRANCH  24  28
ENDBRANCH  22  24
ENDBRANCH  19  22
ENDBRANCH  13  19
BRANCH  18  31
HETATM   31  C   UNK A   0     -12.132   8.579  71.730  1.00  0.00    -0.333 C  
HETATM   32  H   UNK A   0     -13.996   9.112  71.947  1.00  0.00     0.000 HD 
HETATM   33  O   UNK A   0     -13.458   8.448  71.533  1.00  0.00    -0.328 OA 
BRANCH  31  34
ATOM     34  N   SER A   1     -11.673   9.587  72.390  1.00  0.00     0.265 NA 
ATOM     35  H   SER A   1     -11.261   9.471  73.316  1.00  0.00     0.000 HD 
BRANCH  34  36
ATOM     36  CA  SER A   1     -11.767  10.931  71.744  1.00  0.00     1.194 C  
BRANCH  36  37
ATOM     37  CB  SER A   1     -11.800  10.724  70.227  1.00  0.00    -0.349 C  
ATOM     38  HG  SER A   1     -10.807   9.670  68.891  1.00  0.00     0.000 HD 
ATOM     39  OG  SER A   1     -10.787   9.799  69.832  1.00  0.00    -0.239 OA 
ENDBRANCH  36  37
BRANCH  36  40
ATOM     40  C   SER A   1     -13.055  11.633  72.216  1.00  0.00     0.044 C  
ATOM     41  H   SER A   1     -13.596  13.443  72.782  1.00  0.00     0.000 HD 
ATOM     42  O   SER A   1     -12.802  13.010  72.491  1.00  0.00    -0.159 OA 
ENDBRANCH  36  40
ENDBRANCH  34  36
ENDBRANCH  31  34
ENDBRANCH  18  31
ENDBRANCH   8  10
ENDBRANCH   5   8
ENDBRANCH   1   5
TORSDOF 13
ENDMDL
MODEL      283
REMARK 921   NORMALIZED FREE ENERGY PREDICTED BY IDOCK:   20.77 KCAL/MOL
REMARK 922        TOTAL FREE ENERGY PREDICTED BY IDOCK:   35.63 KCAL/MOL
REMARK 923 INTER-LIGAND FREE ENERGY PREDICTED BY IDOCK:   15.85 KCAL/MOL
REMARK 924 INTRA-LIGAND FREE ENERGY PREDICTED BY IDOCK:   19.78 KCAL/MOL
REMARK 927      BINDING AFFINITY PREDICTED BY RF-SCORE:    0.00 PKD
ROOT
HETATM    1  C   UNK A   0      -6.347  17.050  70.751  1.00  0.00     1.269 C  
HETATM    2  O   UNK A   0      -5.161  17.822  70.491  1.00  0.00    -0.230 OA 
HETATM    3  C   UNK A   0      -7.093  17.672  71.911  1.00  0.00     7.124 C  
HETATM    4  H   UNK A   0      -4.692  17.431  69.763  1.00  0.00     0.000 HD 
ENDROOT
BRANCH   1   5
HETATM    5  C   UNK A   0      -7.196  17.111  69.493  1.00  0.00     0.099 C  
HETATM    6  O   UNK A   0      -7.842  18.292  69.349  1.00  0.00     0.053 OA 
HETATM    7  H   UNK A   0      -8.373  18.330  68.562  1.00  0.00     0.000 HD 
BRANCH   5   8
HETATM    8  N   UNK A   0      -7.250  16.155  68.626  1.00  0.00    -0.151 NA 
HETATM    9  H   UNK A   0      -6.687  16.200  67.776  1.00  0.00     0.000 HD 
BRANCH   8  10
HETATM   10  C   UNK A   0      -8.102  15.034  68.865  1.00  0.00    -0.176 A  
HETATM   11  C   UNK A   0      -9.397  14.944  68.302  1.00  0.00    -0.195 A  
HETATM   12  I   UNK A   0     -10.027  16.539  66.934  1.00  0.00    -0.312 I  
HETATM   13  C   UNK A   0     -10.187  13.789  68.485  1.00  0.00    -0.235 A  
HETATM   14  I   UNK A   0      -5.715  14.206  70.621  1.00  0.00    -0.182 I  
HETATM   15  C   UNK A   0      -9.558  12.621  69.007  1.00  0.00     0.389 A  
HETATM   16  I   UNK A   0     -10.493  10.710  68.508  1.00  0.00    -0.295 I  
HETATM   17  C   UNK A   0      -7.576  13.903  69.561  1.00  0.00     0.360 A  
HETATM   18  C   UNK A   0      -8.246  12.656  69.567  1.00  0.00     1.322 A  
BRANCH  13  19
HETATM   19  C   UNK A   0     -11.667  13.777  68.262  1.00  0.00    -0.359 C  
HETATM   20  O   UNK A   0     -12.369  14.791  68.788  1.00  0.00    -0.574 OA 
HETATM   21  H   UNK A   0     -13.308  14.783  68.646  1.00  0.00     0.000 HD 
BRANCH  19  22
ATOM     22  N   SER A   1     -12.265  12.857  67.590  1.00  0.00    -0.252 NA 
ATOM     23  H   SER A   1     -13.049  12.340  67.988  1.00  0.00     0.000 HD 
BRANCH  22  24
ATOM     24  CA  SER A   1     -11.776  12.572  66.212  1.00  0.00    -0.404 C  
BRANCH  24  25
ATOM     25  C   SER A   1     -10.388  11.920  66.352  1.00  0.00    -0.219 C  
ATOM     26  H   SER A   1      -8.778  12.175  67.456  1.00  0.00     0.000 HD 
ATOM     27  O   SER A   1      -9.635  12.577  67.370  1.00  0.00    -0.186 OA 
ENDBRANCH  24  25
BRANCH  24  28
ATOM     28  CB  SER A   1     -11.624  13.848  65.358  1.00  0.00    -0.325 C  
ATOM     29  OG  SER A   1     -12.497  14.911  65.733  1.00  0.00    -0.007 OA 
ATOM     30  HG  SER A   1     -12.404  15.697  65.207  1.00  0.00     0.000 HD 
ENDBRANCH  24  28
ENDBRANCH  22  24
ENDBRANCH  19  22
ENDBRANCH  13  19
BRANCH  18  31
HETATM   31  C   UNK A   0      -7.595  11.394  70.078  1.00  0.00     1.063 C  
HETATM   32  H   UNK A   0      -7.255   9.542  69.570  1.00  0.00     0.000 HD 
HETATM   33  O   UNK A   0      -7.665  10.336  69.248  1.00  0.00    -0.104 OA 
BRANCH  31  34
ATOM     34  N   SER A   1      -7.055  11.269  71.242  1.00  0.00     1.990 NA 
ATOM     35  H   SER A   1      -6.973  12.064  71.876  1.00  0.00     0.000 HD 
BRANCH  34  36
ATOM     36  CA  SER A   1      -6.553   9.914  71.623  1.00  0.00     0.574 C  
BRANCH  36  37
ATOM     37  CB  SER A   1      -6.345   9.898  73.140  1.00  0.00     1.300 C  
ATOM     38  HG  SER A   1      -7.242  10.639  74.730  1.00  0.00     0.000 HD 
ATOM     39  OG  SER A   1      -7.371  10.649  73.789  1.00  0.00     4.667 OA 
ENDBRANCH  36  37
BRANCH  36  40
ATOM     40  C   SER A   1      -7.592   8.853  71.214  1.00  0.00    -0.103 C  
ATOM     41  H   SER A   1      -7.611   6.925  70.804  1.00  0.00     0.000 HD 
ATOM     42  O   SER A   1      -6.971   7.579  71.056  1.00  0.00    -0.053 OA 
ENDBRANCH  36  40
ENDBRANCH  34  36
ENDBRANCH  31  34
ENDBRANCH  18  31
ENDBRANCH   8  10
ENDBRANCH   5   8
ENDBRANCH   1   5
TORSDOF 13
ENDMDL
MODEL      284
REMARK 921   NORMALIZED FREE ENERGY PREDICTED BY IDOCK:   21.65 KCAL/MOL
REMARK 922        TOTAL FREE ENERGY PREDICTED BY IDOCK:   37.17 KCAL/MOL
REMARK 923 INTER-LIGAND FREE ENERGY PREDICTED BY IDOCK:   10.30 KCAL/MOL
REMARK 924 INTRA-LIGAND FREE ENERGY PREDICTED BY IDOCK:   26.87 KCAL/MOL
REMARK 927      BINDING AFFINITY PREDICTED BY RF-SCORE:    0.00 PKD
ROOT
HETATM    1  C   UNK A   0      -9.559  15.885  69.255  1.00  0.00    -0.266 C  
HETATM    2  O   UNK A   0      -9.120  16.057  70.615  1.00  0.00     1.473 OA 
HETATM    3  C   UNK A   0      -8.868  16.909  68.383  1.00  0.00    -0.244 C  
HETATM    4  H   UNK A   0      -9.554  15.414  71.163  1.00  0.00     0.000 HD 
ENDROOT
BRANCH   1   5
HETATM    5  C   UNK A   0      -9.153  14.483  68.836  1.00  0.00    -0.111 C  
HETATM    6  O   UNK A   0      -8.022  14.057  69.445  1.00  0.00    -0.338 OA 
HETATM    7  H   UNK A   0      -7.767  13.180  69.182  1.00  0.00     0.000 HD 
BRANCH   5   8
HETATM    8  N   UNK A   0      -9.847  13.756  68.023  1.00  0.00    -0.232 NA 
HETATM    9  H   UNK A   0     -10.855  13.889  67.950  1.00  0.00     0.000 HD 
BRANCH   8  10
HETATM   10  C   UNK A   0      -9.192  12.765  67.230  1.00  0.00    -0.203 A  
HETATM   11  C   UNK A   0      -8.861  12.991  65.873  1.00  0.00     0.619 A  
HETATM   12  I   UNK A   0      -9.278  14.976  65.037  1.00  0.00     3.572 I  
HETATM   13  C   UNK A   0      -8.141  12.028  65.134  1.00  0.00     1.762 A  
HETATM   14  I   UNK A   0      -9.487  11.171  69.845  1.00  0.00     2.121 I  
HETATM   15  C   UNK A   0      -7.521  10.961  65.847  1.00  0.00    -0.048 A  
HETATM   16  I   UNK A   0      -5.797  10.024  64.886  1.00  0.00    -0.130 I  
HETATM   17  C   UNK A   0      -8.718  11.577  67.864  1.00  0.00    -0.144 A  
HETATM   18  C   UNK A   0      -7.806  10.705  67.222  1.00  0.00    -0.112 A  
BRANCH  13  19
HETATM   19  C   UNK A   0      -8.098  12.022  63.638  1.00  0.00     2.592 C  
HETATM   20  O   UNK A   0      -6.956  12.422  63.062  1.00  0.00     2.933 OA 
HETATM   21  H   UNK A   0      -6.929  12.418  62.112  1.00  0.00     0.000 HD 
BRANCH  19  22
ATOM     22  N   SER A   1      -9.091  11.642  62.912  1.00  0.00    -0.630 NA 
ATOM     23  H   SER A   1      -9.024  11.628  61.894  1.00  0.00     0.000 HD 
BRANCH  22  24
ATOM     24  CA  SER A   1     -10.341  11.224  63.606  1.00  0.00    -0.408 C  
BRANCH  24  25
ATOM     25  C   SER A   1     -11.514  11.890  62.863  1.00  0.00     0.310 C  
ATOM     26  H   SER A   1     -13.454  12.096  63.119  1.00  0.00     0.000 HD 
ATOM     27  O   SER A   1     -12.730  11.685  63.577  1.00  0.00    -0.445 OA 
ENDBRANCH  24  25
BRANCH  24  28
ATOM     28  CB  SER A   1     -10.384  11.677  65.080  1.00  0.00    -0.281 C  
ATOM     29  OG  SER A   1      -9.251  12.439  65.492  1.00  0.00    -0.439 OA 
ATOM     30  HG  SER A   1      -9.278  12.719  66.399  1.00  0.00     0.000 HD 
ENDBRANCH  24  28
ENDBRANCH  22  24
ENDBRANCH  19  22
ENDBRANCH  13  19
BRANCH  18  31
HETATM   31  C   UNK A   0      -7.106   9.589  67.957  1.00  0.00    -0.080 C  
HETATM   32  H   UNK A   0      -5.435   9.185  68.879  1.00  0.00     0.000 HD 
HETATM   33  O   UNK A   0      -5.876   9.888  68.416  1.00  0.00    -0.043 OA 
BRANCH  31  34
ATOM     34  N   SER A   1      -7.581   8.400  68.107  1.00  0.00    -0.097 NA 
ATOM     35  H   SER A   1      -7.182   7.603  67.611  1.00  0.00     0.000 HD 
BRANCH  34  36
ATOM     36  CA  SER A   1      -8.740   8.237  69.037  1.00  0.00    -0.143 C  
BRANCH  36  37
ATOM     37  CB  SER A   1      -9.819   7.430  68.309  1.00  0.00    -0.160 C  
ATOM     38  HG  SER A   1     -11.028   7.688  66.774  1.00  0.00     0.000 HD 
ATOM     39  OG  SER A   1     -10.358   8.188  67.225  1.00  0.00    -0.249 OA 
ENDBRANCH  36  37
BRANCH  36  40
ATOM     40  C   SER A   1      -8.277   7.490  70.302  1.00  0.00    -0.128 C  
ATOM     41  H   SER A   1      -8.680   5.787  71.210  1.00  0.00     0.000 HD 
ATOM     42  O   SER A   1      -8.966   6.248  70.430  1.00  0.00    -0.151 OA 
ENDBRANCH  36  40
ENDBRANCH  34  36
ENDBRANCH  31  34
ENDBRANCH  18  31
ENDBRANCH   8  10
ENDBRANCH   5   8
ENDBRANCH   1   5
TORSDOF 13
ENDMDL
MODEL      285
REMARK 921   NORMALIZED FREE ENERGY PREDICTED BY IDOCK:   22.68 KCAL/MOL
REMARK 922        TOTAL FREE ENERGY PREDICTED BY IDOCK:   38.99 KCAL/MOL
REMARK 923 INTER-LIGAND FREE ENERGY PREDICTED BY IDOCK:    7.35 KCAL/MOL
REMARK 924 INTRA-LIGAND FREE ENERGY PREDICTED BY IDOCK:   31.65 KCAL/MOL
REMARK 927      BINDING AFFINITY PREDICTED BY RF-SCORE:    0.00 PKD
ROOT
HETATM    1  C   UNK A   0     -11.358  17.471  67.217  1.00  0.00     0.606 C  
HETATM    2  O   UNK A   0     -11.812  18.351  68.261  1.00  0.00     1.104 OA 
HETATM    3  C   UNK A   0     -11.881  17.972  65.890  1.00  0.00     3.470 C  
HETATM    4  H   UNK A   0     -11.483  18.036  69.095  1.00  0.00     0.000 HD 
ENDROOT
BRANCH   1   5
HETATM    5  C   UNK A   0      -9.839  17.520  67.231  1.00  0.00    -0.294 C  
HETATM    6  O   UNK A   0      -9.353  18.782  67.274  1.00  0.00    -0.285 OA 
HETATM    7  H   UNK A   0      -8.403  18.813  67.282  1.00  0.00     0.000 HD 
BRANCH   5   8
HETATM    8  N   UNK A   0      -9.096  16.464  67.254  1.00  0.00    -0.198 NA 
HETATM    9  H   UNK A   0      -8.194  16.460  66.777  1.00  0.00     0.000 HD 
BRANCH   8  10
HETATM   10  C   UNK A   0      -9.545  15.300  67.950  1.00  0.00    -0.199 A  
HETATM   11  C   UNK A   0     -10.903  15.117  68.303  1.00  0.00    -0.262 A  
HETATM   12  I   UNK A   0     -12.344  16.632  67.638  1.00  0.00     3.886 I  
HETATM   13  C   UNK A   0     -11.335  13.922  68.917  1.00  0.00    -0.319 A  
HETATM   14  I   UNK A   0      -6.535  14.669  67.849  1.00  0.00    -0.121 I  
HETATM   15  C   UNK A   0     -10.445  12.809  68.923  1.00  0.00    -0.078 A  
HETATM   16  I   UNK A   0     -11.362  10.832  69.077  1.00  0.00    -0.377 I  
HETATM   17  C   UNK A   0      -8.630  14.223  68.157  1.00  0.00    -0.172 A  
HETATM   18  C   UNK A   0      -9.072  12.939  68.555  1.00  0.00    -0.049 A  
BRANCH  13  19
HETATM   19  C   UNK A   0     -12.635  13.814  69.653  1.00  0.00     0.029 C  
HETATM   20  O   UNK A   0     -13.585  13.049  69.099  1.00  0.00     2.761 OA 
HETATM   21  H   UNK A   0     -14.409  12.981  69.566  1.00  0.00     0.000 HD 
BRANCH  19  22
ATOM     22  N   SER A   1     -12.854  14.407  70.774  1.00  0.00    -0.351 NA 
ATOM     23  H   SER A   1     -13.428  13.972  71.496  1.00  0.00     0.000 HD 
BRANCH  22  24
ATOM     24  CA  SER A   1     -12.242  15.749  70.983  1.00  0.00    -0.418 C  
BRANCH  24  25
ATOM     25  C   SER A   1     -11.350  16.035  69.760  1.00  0.00    -0.331 C  
ATOM     26  H   SER A   1      -9.539  16.727  69.425  1.00  0.00     0.000 HD 
ATOM     27  O   SER A   1     -10.089  16.551  70.179  1.00  0.00     0.116 OA 
ENDBRANCH  24  25
BRANCH  24  28
ATOM     28  CB  SER A   1     -11.359  15.811  72.247  1.00  0.00    -0.164 C  
ATOM     29  OG  SER A   1     -11.455  17.037  72.970  1.00  0.00     0.092 OA 
ATOM     30  HG  SER A   1     -10.911  17.074  73.748  1.00  0.00     0.000 HD 
ENDBRANCH  24  28
ENDBRANCH  22  24
ENDBRANCH  19  22
ENDBRANCH  13  19
BRANCH  18  31
HETATM   31  C   UNK A   0      -8.164  11.734  68.538  1.00  0.00    -0.134 C  
HETATM   32  H   UNK A   0      -6.545  11.059  67.685  1.00  0.00     0.000 HD 
HETATM   33  O   UNK A   0      -7.116  11.817  67.696  1.00  0.00    -0.091 OA 
BRANCH  31  34
ATOM     34  N   SER A   1      -8.366  10.655  69.214  1.00  0.00    -0.291 NA 
ATOM     35  H   SER A   1      -8.492  10.679  70.226  1.00  0.00     0.000 HD 
BRANCH  34  36
ATOM     36  CA  SER A   1      -8.409   9.368  68.455  1.00  0.00    -0.119 C  
BRANCH  36  37
ATOM     37  CB  SER A   1      -9.604   9.424  67.499  1.00  0.00    -0.141 C  
ATOM     38  HG  SER A   1     -10.746   8.139  66.536  1.00  0.00     0.000 HD 
ATOM     39  OG  SER A   1     -10.005   8.104  67.130  1.00  0.00    -0.188 OA 
ENDBRANCH  36  37
BRANCH  36  40
ATOM     40  C   SER A   1      -7.099   9.200  67.664  1.00  0.00    -0.082 C  
ATOM     41  H   SER A   1      -5.607   7.912  67.586  1.00  0.00     0.000 HD 
ATOM     42  O   SER A   1      -6.415   8.016  68.074  1.00  0.00    -0.053 OA 
ENDBRANCH  36  40
ENDBRANCH  34  36
ENDBRANCH  31  34
ENDBRANCH  18  31
ENDBRANCH   8  10
ENDBRANCH   5   8
ENDBRANCH   1   5
TORSDOF 13
ENDMDL
MODEL      286
REMARK 921   NORMALIZED FREE ENERGY PREDICTED BY IDOCK:   26.93 KCAL/MOL
REMARK 922        TOTAL FREE ENERGY PREDICTED BY IDOCK:   46.46 KCAL/MOL
REMARK 923 INTER-LIGAND FREE ENERGY PREDICTED BY IDOCK:   29.04 KCAL/MOL
REMARK 924 INTRA-LIGAND FREE ENERGY PREDICTED BY IDOCK:   17.42 KCAL/MOL
REMARK 927      BINDING AFFINITY PREDICTED BY RF-SCORE:    0.00 PKD
ROOT
HETATM    1  C   UNK A   0     -12.293  16.574  64.292  1.00  0.00     1.756 C  
HETATM    2  O   UNK A   0     -11.233  17.073  63.458  1.00  0.00     0.278 OA 
HETATM    3  C   UNK A   0     -12.750  15.235  63.757  1.00  0.00     0.885 C  
HETATM    4  H   UNK A   0     -10.947  17.914  63.794  1.00  0.00     0.000 HD 
ENDROOT
BRANCH   1   5
HETATM    5  C   UNK A   0     -11.715  16.408  65.687  1.00  0.00     1.049 C  
HETATM    6  O   UNK A   0     -12.662  16.197  66.629  1.00  0.00     2.189 OA 
HETATM    7  H   UNK A   0     -12.301  16.093  67.502  1.00  0.00     0.000 HD 
BRANCH   5   8
HETATM    8  N   UNK A   0     -10.446  16.413  65.934  1.00  0.00    -0.346 NA 
HETATM    9  H   UNK A   0      -9.848  17.132  65.528  1.00  0.00     0.000 HD 
BRANCH   8  10
HETATM   10  C   UNK A   0      -9.888  15.405  66.779  1.00  0.00    -0.245 A  
HETATM   11  C   UNK A   0      -8.963  14.451  66.295  1.00  0.00     0.004 A  
HETATM   12  I   UNK A   0      -8.304  14.634  64.210  1.00  0.00    16.037 I  
HETATM   13  C   UNK A   0      -8.363  13.518  67.168  1.00  0.00    -0.151 A  
HETATM   14  I   UNK A   0     -11.767  16.751  68.810  1.00  0.00     1.478 I  
HETATM   15  C   UNK A   0      -8.494  13.731  68.571  1.00  0.00    -0.117 A  
HETATM   16  I   UNK A   0      -6.945  12.851  69.836  1.00  0.00     1.267 I  
HETATM   17  C   UNK A   0     -10.150  15.459  68.182  1.00  0.00    -0.222 A  
HETATM   18  C   UNK A   0      -9.399  14.696  69.107  1.00  0.00    -0.051 A  
BRANCH  13  19
HETATM   19  C   UNK A   0      -7.698  12.267  66.683  1.00  0.00     0.186 C  
HETATM   20  O   UNK A   0      -6.798  11.703  67.499  1.00  0.00    -0.086 OA 
HETATM   21  H   UNK A   0      -6.377  10.909  67.192  1.00  0.00     0.000 HD 
BRANCH  19  22
ATOM     22  N   SER A   1      -7.968  11.728  65.546  1.00  0.00     0.142 NA 
ATOM     23  H   SER A   1      -7.350  11.853  64.744  1.00  0.00     0.000 HD 
BRANCH  22  24
ATOM     24  CA  SER A   1      -9.213  10.918  65.438  1.00  0.00    -0.207 C  
BRANCH  24  25
ATOM     25  C   SER A   1      -8.789   9.488  65.053  1.00  0.00    -0.195 C  
ATOM     26  H   SER A   1      -8.978   8.294  63.500  1.00  0.00     0.000 HD 
ATOM     27  O   SER A   1      -9.240   9.176  63.737  1.00  0.00     0.030 OA 
ENDBRANCH  24  25
BRANCH  24  28
ATOM     28  CB  SER A   1     -10.173  11.443  64.350  1.00  0.00    -0.308 C  
ATOM     29  OG  SER A   1      -9.948  10.892  63.054  1.00  0.00    -0.401 OA 
ATOM     30  HG  SER A   1     -10.539  11.215  62.384  1.00  0.00     0.000 HD 
ENDBRANCH  24  28
ENDBRANCH  22  24
ENDBRANCH  19  22
ENDBRANCH  13  19
BRANCH  18  31
HETATM   31  C   UNK A   0      -9.487  14.921  70.597  1.00  0.00     1.453 C  
HETATM   32  H   UNK A   0      -8.711  14.310  72.279  1.00  0.00     0.000 HD 
HETATM   33  O   UNK A   0      -8.655  14.168  71.341  1.00  0.00     4.493 OA 
BRANCH  31  34
ATOM     34  N   SER A   1     -10.325  15.718  71.168  1.00  0.00     0.407 NA 
ATOM     35  H   SER A   1     -10.037  16.637  71.504  1.00  0.00     0.000 HD 
BRANCH  34  36
ATOM     36  CA  SER A   1     -11.733  15.240  71.318  1.00  0.00    -0.372 C  
BRANCH  36  37
ATOM     37  CB  SER A   1     -12.278  14.930  69.921  1.00  0.00    -0.309 C  
ATOM     38  HG  SER A   1     -11.810  13.746  68.417  1.00  0.00     0.000 HD 
ATOM     39  OG  SER A   1     -11.472  13.938  69.284  1.00  0.00    -0.265 OA 
ENDBRANCH  36  37
BRANCH  36  40
ATOM     40  C   SER A   1     -11.750  13.972  72.193  1.00  0.00     1.046 C  
ATOM     41  H   SER A   1     -13.024  13.045  73.377  1.00  0.00     0.000 HD 
ATOM     42  O   SER A   1     -13.013  13.826  72.839  1.00  0.00    -0.386 OA 
ENDBRANCH  36  40
ENDBRANCH  34  36
ENDBRANCH  31  34
ENDBRANCH  18  31
ENDBRANCH   8  10
ENDBRANCH   5   8
ENDBRANCH   1   5
TORSDOF 13
ENDMDL
MODEL      287
REMARK 921   NORMALIZED FREE ENERGY PREDICTED BY IDOCK:   28.37 KCAL/MOL
REMARK 922        TOTAL FREE ENERGY PREDICTED BY IDOCK:   49.00 KCAL/MOL
REMARK 923 INTER-LIGAND FREE ENERGY PREDICTED BY IDOCK:   29.05 KCAL/MOL
REMARK 924 INTRA-LIGAND FREE ENERGY PREDICTED BY IDOCK:   19.95 KCAL/MOL
REMARK 927      BINDING AFFINITY PREDICTED BY RF-SCORE:    0.00 PKD
ROOT
HETATM    1  C   UNK A   0     -11.569  17.079  67.603  1.00  0.00     0.675 C  
HETATM    2  O   UNK A   0     -11.718  17.926  68.756  1.00  0.00     0.942 OA 
HETATM    3  C   UNK A   0     -12.382  17.653  66.464  1.00  0.00     5.164 C  
HETATM    4  H   UNK A   0     -11.207  17.565  69.472  1.00  0.00     0.000 HD 
ENDROOT
BRANCH   1   5
HETATM    5  C   UNK A   0     -10.093  17.081  67.243  1.00  0.00    -0.295 C  
HETATM    6  O   UNK A   0      -9.583  18.328  67.115  1.00  0.00    -0.270 OA 
HETATM    7  H   UNK A   0      -8.660  18.329  66.890  1.00  0.00     0.000 HD 
BRANCH   5   8
HETATM    8  N   UNK A   0      -9.391  16.003  67.125  1.00  0.00    -0.209 NA 
HETATM    9  H   UNK A   0      -8.651  15.947  66.425  1.00  0.00     0.000 HD 
BRANCH   8  10
HETATM   10  C   UNK A   0      -9.657  14.891  67.981  1.00  0.00    -0.207 A  
HETATM   11  C   UNK A   0     -10.776  14.864  68.847  1.00  0.00    -0.245 A  
HETATM   12  I   UNK A   0     -12.178  16.548  68.755  1.00  0.00     2.548 I  
HETATM   13  C   UNK A   0     -11.063  13.720  69.621  1.00  0.00    -0.094 A  
HETATM   14  I   UNK A   0      -7.027  13.910  66.721  1.00  0.00     2.827 I  
HETATM   15  C   UNK A   0     -10.376  12.510  69.312  1.00  0.00     0.318 A  
HETATM   16  I   UNK A   0     -11.377  10.653  69.882  1.00  0.00    -0.410 I  
HETATM   17  C   UNK A   0      -8.865  13.711  67.845  1.00  0.00    -0.188 A  
HETATM   18  C   UNK A   0      -9.256  12.482  68.429  1.00  0.00    -0.139 A  
BRANCH  13  19
HETATM   19  C   UNK A   0     -11.968  13.756  70.814  1.00  0.00    -0.240 C  
HETATM   20  O   UNK A   0     -12.864  12.766  70.926  1.00  0.00    -0.225 OA 
HETATM   21  H   UNK A   0     -13.437  12.789  71.683  1.00  0.00     0.000 HD 
BRANCH  19  22
ATOM     22  N   SER A   1     -11.902  14.675  71.713  1.00  0.00    -0.393 NA 
ATOM     23  H   SER A   1     -11.970  15.661  71.463  1.00  0.00     0.000 HD 
BRANCH  22  24
ATOM     24  CA  SER A   1     -11.725  14.251  73.130  1.00  0.00     0.861 C  
BRANCH  24  25
ATOM     25  C   SER A   1     -11.410  12.744  73.114  1.00  0.00     9.335 C  
ATOM     26  H   SER A   1     -12.020  11.132  74.065  1.00  0.00     0.000 HD 
ATOM     27  O   SER A   1     -12.214  12.062  74.074  1.00  0.00     9.676 OA 
ENDBRANCH  24  25
BRANCH  24  28
ATOM     28  CB  SER A   1     -12.994  14.469  73.980  1.00  0.00     1.084 C  
ATOM     29  OG  SER A   1     -13.933  15.377  73.408  1.00  0.00    -0.508 OA 
ATOM     30  HG  SER A   1     -14.714  15.511  73.932  1.00  0.00     0.000 HD 
ENDBRANCH  24  28
ENDBRANCH  22  24
ENDBRANCH  19  22
ENDBRANCH  13  19
BRANCH  18  31
HETATM   31  C   UNK A   0      -8.574  11.178  68.094  1.00  0.00    -0.140 C  
HETATM   32  H   UNK A   0      -8.810   9.249  68.260  1.00  0.00     0.000 HD 
HETATM   33  O   UNK A   0      -9.239  10.070  68.471  1.00  0.00    -0.135 OA 
BRANCH  31  34
ATOM     34  N   SER A   1      -7.411  11.080  67.546  1.00  0.00    -0.098 NA 
ATOM     35  H   SER A   1      -6.600  11.564  67.932  1.00  0.00     0.000 HD 
BRANCH  34  36
ATOM     36  CA  SER A   1      -7.299  10.228  66.323  1.00  0.00    -0.118 C  
BRANCH  36  37
ATOM     37  CB  SER A   1      -7.623   8.786  66.721  1.00  0.00    -0.090 C  
ATOM     38  HG  SER A   1      -7.263   6.978  66.024  1.00  0.00     0.000 HD 
ATOM     39  OG  SER A   1      -7.062   7.874  65.777  1.00  0.00    -0.059 OA 
ENDBRANCH  36  37
BRANCH  36  40
ATOM     40  C   SER A   1      -8.298  10.728  65.262  1.00  0.00    -0.086 C  
ATOM     41  H   SER A   1      -9.960  10.085  64.419  1.00  0.00     0.000 HD 
ATOM     42  O   SER A   1      -9.345   9.777  65.073  1.00  0.00    -0.232 OA 
ENDBRANCH  36  40
ENDBRANCH  34  36
ENDBRANCH  31  34
ENDBRANCH  18  31
ENDBRANCH   8  10
ENDBRANCH   5   8
ENDBRANCH   1   5
TORSDOF 13
ENDMDL
MODEL      288
REMARK 921   NORMALIZED FREE ENERGY PREDICTED BY IDOCK:   30.41 KCAL/MOL
REMARK 922        TOTAL FREE ENERGY PREDICTED BY IDOCK:   52.59 KCAL/MOL
REMARK 923 INTER-LIGAND FREE ENERGY PREDICTED BY IDOCK:   16.01 KCAL/MOL
REMARK 924 INTRA-LIGAND FREE ENERGY PREDICTED BY IDOCK:   36.58 KCAL/MOL
REMARK 927      BINDING AFFINITY PREDICTED BY RF-SCORE:    0.00 PKD
ROOT
HETATM    1  C   UNK A   0      -7.079   6.024  68.890  1.00  0.00    -0.081 C  
HETATM    2  O   UNK A   0      -6.835   6.674  67.630  1.00  0.00    -0.074 OA 
HETATM    3  C   UNK A   0      -5.754   5.757  69.569  1.00  0.00    -0.016 C  
HETATM    4  H   UNK A   0      -7.667   6.841  67.203  1.00  0.00     0.000 HD 
ENDROOT
BRANCH   1   5
HETATM    5  C   UNK A   0      -7.910   6.983  69.726  1.00  0.00    -0.115 C  
HETATM    6  O   UNK A   0      -9.066   6.434  70.164  1.00  0.00    -0.152 OA 
HETATM    7  H   UNK A   0      -9.586   7.033  70.686  1.00  0.00     0.000 HD 
BRANCH   5   8
HETATM    8  N   UNK A   0      -7.523   8.178  70.029  1.00  0.00    -0.065 NA 
HETATM    9  H   UNK A   0      -7.069   8.358  70.925  1.00  0.00     0.000 HD 
BRANCH   8  10
HETATM   10  C   UNK A   0      -7.736   9.244  69.103  1.00  0.00    -0.078 A  
HETATM   11  C   UNK A   0      -8.131  10.535  69.525  1.00  0.00    -0.094 A  
HETATM   12  I   UNK A   0      -8.299  10.896  71.683  1.00  0.00    11.380 I  
HETATM   13  C   UNK A   0      -8.254  11.593  68.599  1.00  0.00    -0.110 A  
HETATM   14  I   UNK A   0      -7.056   7.001  67.109  1.00  0.00    -0.089 I  
HETATM   15  C   UNK A   0      -7.712  11.409  67.294  1.00  0.00    -0.145 A  
HETATM   16  I   UNK A   0      -7.155  13.223  66.210  1.00  0.00     4.652 I  
HETATM   17  C   UNK A   0      -7.387   9.047  67.732  1.00  0.00    -0.084 A  
HETATM   18  C   UNK A   0      -7.279  10.131  66.829  1.00  0.00    -0.093 A  
BRANCH  13  19
HETATM   19  C   UNK A   0      -9.023  12.843  68.895  1.00  0.00     0.338 C  
HETATM   20  O   UNK A   0      -9.610  12.924  70.097  1.00  0.00     2.204 OA 
HETATM   21  H   UNK A   0     -10.097  13.718  70.285  1.00  0.00     0.000 HD 
BRANCH  19  22
ATOM     22  N   SER A   1      -9.122  13.816  68.060  1.00  0.00    -0.184 NA 
ATOM     23  H   SER A   1      -9.311  13.645  67.072  1.00  0.00     0.000 HD 
BRANCH  22  24
ATOM     24  CA  SER A   1      -8.953  15.202  68.581  1.00  0.00    -0.191 C  
BRANCH  24  25
ATOM     25  C   SER A   1     -10.340  15.869  68.549  1.00  0.00    -0.232 C  
ATOM     26  H   SER A   1     -12.221  15.289  68.535  1.00  0.00     0.000 HD 
ATOM     27  O   SER A   1     -11.365  14.877  68.555  1.00  0.00    -0.270 OA 
ENDBRANCH  24  25
BRANCH  24  28
ATOM     28  CB  SER A   1      -7.993  16.049  67.720  1.00  0.00    -0.139 C  
ATOM     29  OG  SER A   1      -6.755  16.359  68.357  1.00  0.00    -0.134 OA 
ATOM     30  HG  SER A   1      -6.164  16.881  67.826  1.00  0.00     0.000 HD 
ENDBRANCH  24  28
ENDBRANCH  22  24
ENDBRANCH  19  22
ENDBRANCH  13  19
BRANCH  18  31
HETATM   31  C   UNK A   0      -6.676   9.977  65.454  1.00  0.00    -0.115 C  
HETATM   32  H   UNK A   0      -6.018  11.035  63.952  1.00  0.00     0.000 HD 
HETATM   33  O   UNK A   0      -6.398  11.131  64.818  1.00  0.00     0.412 OA 
BRANCH  31  34
ATOM     34  N   SER A   1      -6.480   8.849  64.863  1.00  0.00    -0.065 NA 
ATOM     35  H   SER A   1      -5.688   8.709  64.235  1.00  0.00     0.000 HD 
BRANCH  34  36
ATOM     36  CA  SER A   1      -7.460   7.753  65.133  1.00  0.00    -0.083 C  
BRANCH  36  37
ATOM     37  CB  SER A   1      -8.474   8.269  66.159  1.00  0.00    -0.134 C  
ATOM     38  HG  SER A   1      -9.804   9.718  66.273  1.00  0.00     0.000 HD 
ATOM     39  OG  SER A   1      -9.175   9.398  65.637  1.00  0.00    -0.193 OA 
ENDBRANCH  36  37
BRANCH  36  40
ATOM     40  C   SER A   1      -8.173   7.372  63.822  1.00  0.00     0.072 C  
ATOM     41  H   SER A   1      -8.020   7.817  61.907  1.00  0.00     0.000 HD 
ATOM     42  O   SER A   1      -7.581   8.052  62.716  1.00  0.00    -0.108 OA 
ENDBRANCH  36  40
ENDBRANCH  34  36
ENDBRANCH  31  34
ENDBRANCH  18  31
ENDBRANCH   8  10
ENDBRANCH   5   8
ENDBRANCH   1   5
TORSDOF 13
ENDMDL
MODEL      289
REMARK 921   NORMALIZED FREE ENERGY PREDICTED BY IDOCK:   33.10 KCAL/MOL
REMARK 922        TOTAL FREE ENERGY PREDICTED BY IDOCK:   57.32 KCAL/MOL
REMARK 923 INTER-LIGAND FREE ENERGY PREDICTED BY IDOCK:    1.52 KCAL/MOL
REMARK 924 INTRA-LIGAND FREE ENERGY PREDICTED BY IDOCK:   55.80 KCAL/MOL
REMARK 927      BINDING AFFINITY PREDICTED BY RF-SCORE:    0.00 PKD
ROOT
HETATM    1  C   UNK A   0      -9.599  15.907  69.273  1.00  0.00    -0.266 C  
HETATM    2  O   UNK A   0      -9.020  16.158  70.566  1.00  0.00     1.456 OA 
HETATM    3  C   UNK A   0      -8.933  16.804  68.254  1.00  0.00    -0.228 C  
HETATM    4  H   UNK A   0      -9.439  15.595  71.206  1.00  0.00     0.000 HD 
ENDROOT
BRANCH   1   5
HETATM    5  C   UNK A   0      -9.324  14.449  68.944  1.00  0.00    -0.096 C  
HETATM    6  O   UNK A   0      -8.086  14.049  69.317  1.00  0.00    -0.342 OA 
HETATM    7  H   UNK A   0      -7.914  13.138  69.111  1.00  0.00     0.000 HD 
BRANCH   5   8
HETATM    8  N   UNK A   0     -10.202  13.664  68.413  1.00  0.00    -0.242 NA 
HETATM    9  H   UNK A   0     -11.196  13.814  68.585  1.00  0.00     0.000 HD 
BRANCH   8  10
HETATM   10  C   UNK A   0      -9.771  12.583  67.585  1.00  0.00    -0.196 A  
HETATM   11  C   UNK A   0      -9.968  12.589  66.184  1.00  0.00    -0.255 A  
HETATM   12  I   UNK A   0     -10.859  14.382  65.286  1.00  0.00    -0.462 I  
HETATM   13  C   UNK A   0      -9.460  11.548  65.378  1.00  0.00    -0.220 A  
HETATM   14  I   UNK A   0      -8.952  11.447  70.324  1.00  0.00     4.967 I  
HETATM   15  C   UNK A   0      -8.519  10.648  65.958  1.00  0.00    -0.165 A  
HETATM   16  I   UNK A   0      -7.159   9.641  64.575  1.00  0.00    -0.135 I  
HETATM   17  C   UNK A   0      -8.982  11.543  68.163  1.00  0.00    -0.172 A  
HETATM   18  C   UNK A   0      -8.271  10.617  67.362  1.00  0.00    -0.115 A  
BRANCH  13  19
HETATM   19  C   UNK A   0      -9.949  11.289  63.987  1.00  0.00    -0.312 C  
HETATM   20  O   UNK A   0     -11.238  11.560  63.736  1.00  0.00    -0.400 OA 
HETATM   21  H   UNK A   0     -11.548  11.395  62.854  1.00  0.00     0.000 HD 
BRANCH  19  22
ATOM     22  N   SER A   1      -9.189  10.840  63.051  1.00  0.00    -0.276 NA 
ATOM     23  H   SER A   1      -9.563  10.624  62.127  1.00  0.00     0.000 HD 
BRANCH  22  24
ATOM     24  CA  SER A   1      -7.745  10.645  63.360  1.00  0.00     0.091 C  
BRANCH  24  25
ATOM     25  C   SER A   1      -7.354   9.253  62.831  1.00  0.00    -0.100 C  
ATOM     26  H   SER A   1      -5.777   8.076  62.893  1.00  0.00     0.000 HD 
ATOM     27  O   SER A   1      -6.019   8.935  63.219  1.00  0.00    -0.084 OA 
ENDBRANCH  24  25
BRANCH  24  28
ATOM     28  CB  SER A   1      -7.449  10.686  64.874  1.00  0.00     0.103 C  
ATOM     29  OG  SER A   1      -8.594  10.933  65.688  1.00  0.00    -0.178 OA 
ATOM     30  HG  SER A   1      -8.412  10.957  66.620  1.00  0.00     0.000 HD 
ENDBRANCH  24  28
ENDBRANCH  22  24
ENDBRANCH  19  22
ENDBRANCH  13  19
BRANCH  18  31
HETATM   31  C   UNK A   0      -7.243   9.676  67.940  1.00  0.00    -0.081 C  
HETATM   32  H   UNK A   0      -5.320   9.509  68.226  1.00  0.00     0.000 HD 
HETATM   33  O   UNK A   0      -5.967  10.101  67.862  1.00  0.00    -0.042 OA 
BRANCH  31  34
ATOM     34  N   SER A   1      -7.508   8.512  68.428  1.00  0.00    -0.093 NA 
ATOM     35  H   SER A   1      -7.189   7.659  67.967  1.00  0.00     0.000 HD 
BRANCH  34  36
ATOM     36  CA  SER A   1      -8.300   8.463  69.694  1.00  0.00    -0.122 C  
BRANCH  36  37
ATOM     37  CB  SER A   1      -9.431   7.449  69.504  1.00  0.00    -0.155 C  
ATOM     38  HG  SER A   1     -11.067   7.295  68.418  1.00  0.00     0.000 HD 
ATOM     39  OG  SER A   1     -10.365   7.924  68.535  1.00  0.00    -0.203 OA 
ENDBRANCH  36  37
BRANCH  36  40
ATOM     40  C   SER A   1      -7.381   8.029  70.852  1.00  0.00    -0.058 C  
ATOM     41  H   SER A   1      -7.261   6.527  72.123  1.00  0.00     0.000 HD 
ATOM     42  O   SER A   1      -7.828   6.794  71.409  1.00  0.00    -0.096 OA 
ENDBRANCH  36  40
ENDBRANCH  34  36
ENDBRANCH  31  34
ENDBRANCH  18  31
ENDBRANCH   8  10
ENDBRANCH   5   8
ENDBRANCH   1   5
TORSDOF 13
ENDMDL
MODEL      290
REMARK 921   NORMALIZED FREE ENERGY PREDICTED BY IDOCK:   35.22 KCAL/MOL
REMARK 922        TOTAL FREE ENERGY PREDICTED BY IDOCK:   61.06 KCAL/MOL
REMARK 923 INTER-LIGAND FREE ENERGY PREDICTED BY IDOCK:   48.22 KCAL/MOL
REMARK 924 INTRA-LIGAND FREE ENERGY PREDICTED BY IDOCK:   12.83 KCAL/MOL
REMARK 927      BINDING AFFINITY PREDICTED BY RF-SCORE:    0.00 PKD
ROOT
HETATM    1  C   UNK A   0     -12.307  16.665  64.261  1.00  0.00     2.226 C  
HETATM    2  O   UNK A   0     -11.270  17.120  63.374  1.00  0.00     1.306 OA 
HETATM    3  C   UNK A   0     -12.579  15.202  63.990  1.00  0.00     0.297 C  
HETATM    4  H   UNK A   0     -11.100  18.039  63.544  1.00  0.00     0.000 HD 
ENDROOT
BRANCH   1   5
HETATM    5  C   UNK A   0     -11.785  16.845  65.677  1.00  0.00     1.632 C  
HETATM    6  O   UNK A   0     -12.744  16.681  66.617  1.00  0.00     3.475 OA 
HETATM    7  H   UNK A   0     -12.418  16.794  67.502  1.00  0.00     0.000 HD 
BRANCH   5   8
HETATM    8  N   UNK A   0     -10.544  17.076  65.951  1.00  0.00    -0.326 NA 
HETATM    9  H   UNK A   0     -10.000  17.715  65.371  1.00  0.00     0.000 HD 
BRANCH   8  10
HETATM   10  C   UNK A   0      -9.937  16.429  67.071  1.00  0.00    -0.261 A  
HETATM   11  C   UNK A   0      -8.865  15.519  66.920  1.00  0.00    -0.255 A  
HETATM   12  I   UNK A   0      -8.065  15.210  64.900  1.00  0.00    11.783 I  
HETATM   13  C   UNK A   0      -8.229  14.957  68.047  1.00  0.00    -0.140 A  
HETATM   14  I   UNK A   0     -12.127  18.004  68.551  1.00  0.00     6.448 I  
HETATM   15  C   UNK A   0      -8.500  15.528  69.325  1.00  0.00    -0.265 A  
HETATM   16  I   UNK A   0      -6.962  15.258  70.855  1.00  0.00     2.021 I  
HETATM   17  C   UNK A   0     -10.317  16.830  68.388  1.00  0.00    -0.319 A  
HETATM   18  C   UNK A   0      -9.556  16.466  69.525  1.00  0.00    -0.045 A  
BRANCH  13  19
HETATM   19  C   UNK A   0      -7.378  13.727  67.968  1.00  0.00    -0.134 C  
HETATM   20  O   UNK A   0      -6.507  13.526  68.967  1.00  0.00    -0.096 OA 
HETATM   21  H   UNK A   0      -5.968  12.746  68.916  1.00  0.00     0.000 HD 
BRANCH  19  22
ATOM     22  N   SER A   1      -7.466  12.878  67.006  1.00  0.00    -0.379 NA 
ATOM     23  H   SER A   1      -6.783  12.868  66.248  1.00  0.00     0.000 HD 
BRANCH  22  24
ATOM     24  CA  SER A   1      -8.598  11.909  67.033  1.00  0.00    -0.176 C  
BRANCH  24  25
ATOM     25  C   SER A   1      -7.983  10.498  67.088  1.00  0.00    -0.116 C  
ATOM     26  H   SER A   1      -7.873   8.924  65.912  1.00  0.00     0.000 HD 
ATOM     27  O   SER A   1      -8.252   9.795  65.878  1.00  0.00    -0.114 OA 
ENDBRANCH  24  25
BRANCH  24  28
ATOM     28  CB  SER A   1      -9.487  11.997  65.775  1.00  0.00    -0.175 C  
ATOM     29  OG  SER A   1      -9.072  11.152  64.704  1.00  0.00    -0.321 OA 
ATOM     30  HG  SER A   1      -9.620  11.206  63.929  1.00  0.00     0.000 HD 
ENDBRANCH  24  28
ENDBRANCH  22  24
ENDBRANCH  19  22
ENDBRANCH  13  19
BRANCH  18  31
HETATM   31  C   UNK A   0      -9.794  17.078  70.883  1.00  0.00     3.319 C  
HETATM   32  H   UNK A   0     -11.201  17.349  72.207  1.00  0.00     0.000 HD 
HETATM   33  O   UNK A   0     -11.051  16.963  71.352  1.00  0.00     0.249 OA 
BRANCH  31  34
ATOM     34  N   SER A   1      -8.909  17.728  71.558  1.00  0.00     9.629 NA 
ATOM     35  H   SER A   1      -8.507  17.345  72.414  1.00  0.00     0.000 HD 
BRANCH  34  36
ATOM     36  CA  SER A   1      -8.494  19.066  71.036  1.00  0.00     4.468 C  
BRANCH  36  37
ATOM     37  CB  SER A   1      -7.864  18.860  69.656  1.00  0.00     0.454 C  
ATOM     38  HG  SER A   1      -8.387  18.057  67.934  1.00  0.00     0.000 HD 
ATOM     39  OG  SER A   1      -8.778  18.186  68.790  1.00  0.00    -0.294 OA 
ENDBRANCH  36  37
BRANCH  36  40
ATOM     40  C   SER A   1      -9.732  19.976  70.928  1.00  0.00     1.746 C  
ATOM     41  H   SER A   1     -10.117  21.910  70.954  1.00  0.00     0.000 HD 
ATOM     42  O   SER A   1      -9.354  21.349  71.021  1.00  0.00     2.585 OA 
ENDBRANCH  36  40
ENDBRANCH  34  36
ENDBRANCH  31  34
ENDBRANCH  18  31
ENDBRANCH   8  10
ENDBRANCH   5   8
ENDBRANCH   1   5
TORSDOF 13
ENDMDL
MODEL      291
REMARK 921   NORMALIZED FREE ENERGY PREDICTED BY IDOCK:   35.72 KCAL/MOL
REMARK 922        TOTAL FREE ENERGY PREDICTED BY IDOCK:   61.93 KCAL/MOL
REMARK 923 INTER-LIGAND FREE ENERGY PREDICTED BY IDOCK:   13.74 KCAL/MOL
REMARK 924 INTRA-LIGAND FREE ENERGY PREDICTED BY IDOCK:   48.19 KCAL/MOL
REMARK 927      BINDING AFFINITY PREDICTED BY RF-SCORE:    0.00 PKD
ROOT
HETATM    1  C   UNK A   0     -12.002  15.617  67.143  1.00  0.00     0.576 C  
HETATM    2  O   UNK A   0     -11.171  15.731  65.974  1.00  0.00    -0.160 OA 
HETATM    3  C   UNK A   0     -13.308  16.336  66.890  1.00  0.00     6.276 C  
HETATM    4  H   UNK A   0     -10.350  15.280  66.133  1.00  0.00     0.000 HD 
ENDROOT
BRANCH   1   5
HETATM    5  C   UNK A   0     -12.256  14.135  67.359  1.00  0.00    -0.243 C  
HETATM    6  O   UNK A   0     -13.397  13.705  66.774  1.00  0.00     0.551 OA 
HETATM    7  H   UNK A   0     -13.556  12.778  66.909  1.00  0.00     0.000 HD 
BRANCH   5   8
HETATM    8  N   UNK A   0     -11.437  13.360  67.990  1.00  0.00    -0.285 NA 
HETATM    9  H   UNK A   0     -11.747  12.850  68.817  1.00  0.00     0.000 HD 
BRANCH   8  10
HETATM   10  C   UNK A   0     -10.094  13.222  67.522  1.00  0.00    -0.223 A  
HETATM   11  C   UNK A   0      -9.267  14.344  67.280  1.00  0.00    -0.209 A  
HETATM   12  I   UNK A   0     -10.071  16.328  67.762  1.00  0.00    -0.271 I  
HETATM   13  C   UNK A   0      -7.919  14.179  66.899  1.00  0.00     0.154 A  
HETATM   14  I   UNK A   0     -10.898  10.252  67.562  1.00  0.00    -0.184 I  
HETATM   15  C   UNK A   0      -7.337  12.885  67.029  1.00  0.00     0.146 A  
HETATM   16  I   UNK A   0      -5.165  12.815  67.257  1.00  0.00     0.466 I  
HETATM   17  C   UNK A   0      -9.520  11.917  67.448  1.00  0.00    -0.175 A  
HETATM   18  C   UNK A   0      -8.126  11.726  67.294  1.00  0.00    -0.164 A  
BRANCH  13  19
HETATM   19  C   UNK A   0      -7.118  15.273  66.263  1.00  0.00     2.333 C  
HETATM   20  O   UNK A   0      -5.792  15.092  66.192  1.00  0.00     2.411 OA 
HETATM   21  H   UNK A   0      -5.284  15.786  65.788  1.00  0.00     0.000 HD 
BRANCH  19  22
ATOM     22  N   SER A   1      -7.651  16.343  65.785  1.00  0.00     0.457 NA 
ATOM     23  H   SER A   1      -7.923  16.403  64.804  1.00  0.00     0.000 HD 
BRANCH  22  24
ATOM     24  CA  SER A   1      -7.859  17.490  66.712  1.00  0.00    -0.230 C  
BRANCH  24  25
ATOM     25  C   SER A   1      -7.716  16.945  68.145  1.00  0.00    -0.187 C  
ATOM     26  H   SER A   1      -8.503  15.500  69.225  1.00  0.00     0.000 HD 
ATOM     27  O   SER A   1      -8.591  15.836  68.341  1.00  0.00    -0.163 OA 
ENDBRANCH  24  25
BRANCH  24  28
ATOM     28  CB  SER A   1      -9.261  18.120  66.575  1.00  0.00    -0.281 C  
ATOM     29  OG  SER A   1      -9.373  19.075  65.520  1.00  0.00    -0.147 OA 
ATOM     30  HG  SER A   1     -10.236  19.462  65.436  1.00  0.00     0.000 HD 
ENDBRANCH  24  28
ENDBRANCH  22  24
ENDBRANCH  19  22
ENDBRANCH  13  19
BRANCH  18  31
HETATM   31  C   UNK A   0      -7.475  10.375  67.462  1.00  0.00    -0.093 C  
HETATM   32  H   UNK A   0      -7.238   8.673  66.539  1.00  0.00     0.000 HD 
HETATM   33  O   UNK A   0      -7.648   9.523  66.433  1.00  0.00    -0.096 OA 
BRANCH  31  34
ATOM     34  N   SER A   1      -6.842   9.993  68.518  1.00  0.00    -0.054 NA 
ATOM     35  H   SER A   1      -6.546   9.025  68.638  1.00  0.00     0.000 HD 
BRANCH  34  36
ATOM     36  CA  SER A   1      -6.561  11.027  69.560  1.00  0.00    -0.118 C  
BRANCH  36  37
ATOM     37  CB  SER A   1      -6.896  12.398  68.967  1.00  0.00    -0.093 C  
ATOM     38  HG  SER A   1      -8.485  13.309  68.241  1.00  0.00     0.000 HD 
ATOM     39  OG  SER A   1      -8.277  12.459  68.609  1.00  0.00    -0.107 OA 
ENDBRANCH  36  37
BRANCH  36  40
ATOM     40  C   SER A   1      -7.434  10.752  70.799  1.00  0.00     1.863 C  
ATOM     41  H   SER A   1      -7.224  10.792  72.759  1.00  0.00     0.000 HD 
ATOM     42  O   SER A   1      -6.685  10.961  71.995  1.00  0.00     1.993 OA 
ENDBRANCH  36  40
ENDBRANCH  34  36
ENDBRANCH  31  34
ENDBRANCH  18  31
ENDBRANCH   8  10
ENDBRANCH   5   8
ENDBRANCH   1   5
TORSDOF 13
ENDMDL
MODEL      292
REMARK 921   NORMALIZED FREE ENERGY PREDICTED BY IDOCK:   46.42 KCAL/MOL
REMARK 922        TOTAL FREE ENERGY PREDICTED BY IDOCK:   80.77 KCAL/MOL
REMARK 923 INTER-LIGAND FREE ENERGY PREDICTED BY IDOCK:   51.92 KCAL/MOL
REMARK 924 INTRA-LIGAND FREE ENERGY PREDICTED BY IDOCK:   28.85 KCAL/MOL
REMARK 927      BINDING AFFINITY PREDICTED BY RF-SCORE:    0.00 PKD
ROOT
HETATM    1  C   UNK A   0     -10.716   7.395  65.859  1.00  0.00     2.269 C  
HETATM    2  O   UNK A   0     -10.796   8.687  65.230  1.00  0.00     2.393 OA 
HETATM    3  C   UNK A   0      -9.472   6.688  65.372  1.00  0.00     0.621 C  
HETATM    4  H   UNK A   0     -11.578   9.131  65.535  1.00  0.00     0.000 HD 
ENDROOT
BRANCH   1   5
HETATM    5  C   UNK A   0     -10.626   7.640  67.356  1.00  0.00    -0.286 C  
HETATM    6  O   UNK A   0      -9.558   7.035  67.925  1.00  0.00    -0.124 OA 
HETATM    7  H   UNK A   0      -9.501   7.188  68.861  1.00  0.00     0.000 HD 
BRANCH   5   8
HETATM    8  N   UNK A   0     -11.454   8.392  68.003  1.00  0.00     0.424 NA 
HETATM    9  H   UNK A   0     -12.412   8.081  68.163  1.00  0.00     0.000 HD 
BRANCH   8  10
HETATM   10  C   UNK A   0     -11.018   9.661  68.492  1.00  0.00    -0.108 A  
HETATM   11  C   UNK A   0     -10.213   9.781  69.649  1.00  0.00    -0.233 A  
HETATM   12  I   UNK A   0      -9.539   7.933  70.620  1.00  0.00    -0.186 I  
HETATM   13  C   UNK A   0      -9.727  11.040  70.064  1.00  0.00     0.976 A  
HETATM   14  I   UNK A   0     -12.722  10.619  66.116  1.00  0.00    11.281 I  
HETATM   15  C   UNK A   0      -9.830  12.133  69.155  1.00  0.00     0.361 A  
HETATM   16  I   UNK A   0      -8.394  13.758  69.423  1.00  0.00     1.314 I  
HETATM   17  C   UNK A   0     -11.270  10.826  67.706  1.00  0.00    -0.316 A  
HETATM   18  C   UNK A   0     -10.613  12.053  67.964  1.00  0.00    -0.233 A  
BRANCH  13  19
HETATM   19  C   UNK A   0      -9.216  11.294  71.448  1.00  0.00     9.329 C  
HETATM   20  O   UNK A   0     -10.042  11.004  72.463  1.00  0.00     8.646 OA 
HETATM   21  H   UNK A   0      -9.717  11.165  73.341  1.00  0.00     0.000 HD 
BRANCH  19  22
ATOM     22  N   SER A   1      -8.038  11.756  71.684  1.00  0.00     9.734 NA 
ATOM     23  H   SER A   1      -7.904  12.712  72.013  1.00  0.00     0.000 HD 
BRANCH  22  24
ATOM     24  CA  SER A   1      -6.877  10.849  71.461  1.00  0.00     2.792 C  
BRANCH  24  25
ATOM     25  C   SER A   1      -6.407  11.065  70.011  1.00  0.00    -0.146 C  
ATOM     26  H   SER A   1      -5.088  10.269  68.787  1.00  0.00     0.000 HD 
ATOM     27  O   SER A   1      -5.378  10.136  69.681  1.00  0.00    -0.038 OA 
ENDBRANCH  24  25
BRANCH  24  28
ATOM     28  CB  SER A   1      -7.242   9.360  71.632  1.00  0.00     0.369 C  
ATOM     29  OG  SER A   1      -7.221   8.609  70.419  1.00  0.00    -0.039 OA 
ATOM     30  HG  SER A   1      -7.446   7.692  70.524  1.00  0.00     0.000 HD 
ENDBRANCH  24  28
ENDBRANCH  22  24
ENDBRANCH  19  22
ENDBRANCH  13  19
BRANCH  18  31
HETATM   31  C   UNK A   0     -10.673  13.217  67.005  1.00  0.00    -0.262 C  
HETATM   32  H   UNK A   0     -11.427  13.732  65.281  1.00  0.00     0.000 HD 
HETATM   33  O   UNK A   0     -11.389  13.000  65.885  1.00  0.00    -0.297 OA 
BRANCH  31  34
ATOM     34  N   SER A   1     -10.052  14.334  67.170  1.00  0.00    -0.252 NA 
ATOM     35  H   SER A   1     -10.559  15.205  67.329  1.00  0.00     0.000 HD 
BRANCH  34  36
ATOM     36  CA  SER A   1      -8.558  14.302  67.118  1.00  0.00    -0.216 C  
BRANCH  36  37
ATOM     37  CB  SER A   1      -8.113  12.841  67.221  1.00  0.00    -0.172 C  
ATOM     38  HG  SER A   1      -8.701  11.215  68.166  1.00  0.00     0.000 HD 
ATOM     39  OG  SER A   1      -8.977  12.121  68.101  1.00  0.00    -0.184 OA 
ENDBRANCH  36  37
BRANCH  36  40
ATOM     40  C   SER A   1      -8.082  14.914  65.787  1.00  0.00     2.664 C  
ATOM     41  H   SER A   1      -8.635  14.876  63.894  1.00  0.00     0.000 HD 
ATOM     42  O   SER A   1      -8.928  14.499  64.715  1.00  0.00     1.840 OA 
ENDBRANCH  36  40
ENDBRANCH  34  36
ENDBRANCH  31  34
ENDBRANCH  18  31
ENDBRANCH   8  10
ENDBRANCH   5   8
ENDBRANCH   1   5
TORSDOF 13
ENDMDL
