MODEL        1
REMARK 921   NORMALIZED FREE ENERGY PREDICTED BY IDOCK:   -5.56 KCAL/MOL
REMARK 922        TOTAL FREE ENERGY PREDICTED BY IDOCK:  -10.20 KCAL/MOL
REMARK 923 INTER-LIGAND FREE ENERGY PREDICTED BY IDOCK:   -8.81 KCAL/MOL
REMARK 924 INTRA-LIGAND FREE ENERGY PREDICTED BY IDOCK:   -1.40 KCAL/MOL
REMARK 927      BINDING AFFINITY PREDICTED BY RF-SCORE:    0.00 PKD
ROOT
HETATM    1  C   UNL     1      -9.711  20.414  67.188  1.00  0.00    -0.601 C  
HETATM    2  C   UNL     1     -10.470  19.450  66.294  1.00  0.00    -0.493 C  
ENDROOT
BRANCH   2   3
HETATM    3  O   UNL     1      -9.612  18.334  66.027  1.00  0.00    -0.497 OA 
BRANCH   3   4
HETATM    4  C   UNL     1      -9.916  17.206  66.730  1.00  0.00    -0.291 C  
HETATM    5  O   UNL     1     -10.378  17.183  67.861  1.00  0.00    -0.318 OA 
BRANCH   4   6
HETATM    6  C   UNL     1      -9.682  16.000  65.857  1.00  0.00    -0.378 C  
BRANCH   6   7
HETATM    7  C   UNL     1     -10.800  15.859  64.831  1.00  0.00    -0.420 C  
BRANCH   7   8
HETATM    8  C   UNL     1     -11.844  14.835  65.262  1.00  0.00    -0.276 C  
BRANCH   8   9
HETATM    9  C   UNL     1     -12.134  13.868  64.115  1.00  0.00    -0.464 C  
BRANCH   9  10
HETATM   10  C   UNL     1     -12.096  12.421  64.588  1.00  0.00    -0.487 C  
BRANCH  10  11
HETATM   11  C   UNL     1     -10.747  12.084  65.222  1.00  0.00    -0.331 C  
BRANCH  11  12
HETATM   12  C   UNL     1     -10.953  11.365  66.552  1.00  0.00    -0.328 C  
BRANCH  12  13
HETATM   13  C   UNL     1     -11.762  12.206  67.542  1.00  0.00    -0.385 C  
HETATM   14  C   UNL     1     -10.936  12.603  68.785  1.00  0.00    -0.289 C  
HETATM   15  C   UNL     1     -11.826  13.284  69.824  1.00  0.00    -0.394 A  
HETATM   16  C   UNL     1      -9.706  13.447  68.407  1.00  0.00    -0.201 C  
HETATM   17  C   UNL     1     -12.019  14.680  69.764  1.00  0.00    -0.378 A  
HETATM   18  C   UNL     1     -12.785  15.355  70.716  1.00  0.00    -0.516 A  
HETATM   19  C   UNL     1     -13.398  14.650  71.743  1.00  0.00    -0.445 A  
HETATM   20  C   UNL     1     -13.260  13.267  71.804  1.00  0.00    -0.495 A  
HETATM   21  C   UNL     1     -12.488  12.583  70.853  1.00  0.00    -0.269 A  
HETATM   22  I   UNL     1     -12.420  10.487  71.078  1.00  0.00    -0.550 I  
ENDBRANCH  12  13
ENDBRANCH  11  12
ENDBRANCH  10  11
ENDBRANCH   9  10
ENDBRANCH   8   9
ENDBRANCH   7   8
ENDBRANCH   6   7
ENDBRANCH   4   6
ENDBRANCH   3   4
ENDBRANCH   2   3
TORSDOF 10
ENDMDL
MODEL        2
REMARK 921   NORMALIZED FREE ENERGY PREDICTED BY IDOCK:   -5.55 KCAL/MOL
REMARK 922        TOTAL FREE ENERGY PREDICTED BY IDOCK:  -10.19 KCAL/MOL
REMARK 923 INTER-LIGAND FREE ENERGY PREDICTED BY IDOCK:   -9.07 KCAL/MOL
REMARK 924 INTRA-LIGAND FREE ENERGY PREDICTED BY IDOCK:   -1.12 KCAL/MOL
REMARK 927      BINDING AFFINITY PREDICTED BY RF-SCORE:    0.00 PKD
ROOT
HETATM    1  C   UNL     1      -9.391  18.579  66.951  1.00  0.00    -0.294 C  
HETATM    2  C   UNL     1     -10.351  17.423  66.731  1.00  0.00    -0.305 C  
ENDROOT
BRANCH   2   3
HETATM    3  O   UNL     1     -10.027  16.820  65.471  1.00  0.00    -0.567 OA 
BRANCH   3   4
HETATM    4  C   UNL     1     -11.059  16.152  64.883  1.00  0.00    -0.325 C  
HETATM    5  O   UNL     1     -11.621  16.489  63.851  1.00  0.00    -1.175 OA 
BRANCH   4   6
HETATM    6  C   UNL     1     -11.332  14.885  65.653  1.00  0.00    -0.325 C  
BRANCH   6   7
HETATM    7  C   UNL     1     -12.590  14.202  65.129  1.00  0.00    -0.426 C  
BRANCH   7   8
HETATM    8  C   UNL     1     -12.411  12.693  65.007  1.00  0.00    -0.561 C  
BRANCH   8   9
HETATM    9  C   UNL     1     -11.750  12.352  63.673  1.00  0.00    -0.596 C  
BRANCH   9  10
HETATM   10  C   UNL     1     -10.317  11.875  63.871  1.00  0.00    -0.426 C  
BRANCH  10  11
HETATM   11  C   UNL     1     -10.268  10.625  64.748  1.00  0.00    -0.401 C  
BRANCH  11  12
HETATM   12  C   UNL     1      -9.647  10.954  66.102  1.00  0.00    -0.239 C  
BRANCH  12  13
HETATM   13  C   UNL     1     -10.522  10.482  67.267  1.00  0.00    -0.300 C  
HETATM   14  C   UNL     1     -10.204  11.230  68.579  1.00  0.00    -0.214 C  
HETATM   15  C   UNL     1     -10.966  10.609  69.748  1.00  0.00    -0.340 A  
HETATM   16  C   UNL     1     -10.445  12.744  68.445  1.00  0.00    -0.253 C  
HETATM   17  C   UNL     1     -12.267  11.065  70.048  1.00  0.00    -0.418 A  
HETATM   18  C   UNL     1     -12.988  10.562  71.133  1.00  0.00    -0.506 A  
HETATM   19  C   UNL     1     -12.436   9.574  71.937  1.00  0.00    -0.465 A  
HETATM   20  C   UNL     1     -11.171   9.075  71.641  1.00  0.00    -0.431 A  
HETATM   21  C   UNL     1     -10.440   9.579  70.554  1.00  0.00    -0.296 A  
HETATM   22  I   UNL     1      -8.559   8.681  70.233  1.00  0.00    -0.206 I  
ENDBRANCH  12  13
ENDBRANCH  11  12
ENDBRANCH  10  11
ENDBRANCH   9  10
ENDBRANCH   8   9
ENDBRANCH   7   8
ENDBRANCH   6   7
ENDBRANCH   4   6
ENDBRANCH   3   4
ENDBRANCH   2   3
TORSDOF 10
ENDMDL
MODEL        3
REMARK 921   NORMALIZED FREE ENERGY PREDICTED BY IDOCK:   -5.46 KCAL/MOL
REMARK 922        TOTAL FREE ENERGY PREDICTED BY IDOCK:  -10.04 KCAL/MOL
REMARK 923 INTER-LIGAND FREE ENERGY PREDICTED BY IDOCK:   -8.52 KCAL/MOL
REMARK 924 INTRA-LIGAND FREE ENERGY PREDICTED BY IDOCK:   -1.52 KCAL/MOL
REMARK 927      BINDING AFFINITY PREDICTED BY RF-SCORE:    0.00 PKD
ROOT
HETATM    1  C   UNL     1      -9.156  10.923  62.558  1.00  0.00    -0.361 C  
HETATM    2  C   UNL     1     -10.368  11.096  63.454  1.00  0.00    -0.360 C  
ENDROOT
BRANCH   2   3
HETATM    3  O   UNL     1     -10.735  12.481  63.431  1.00  0.00    -0.426 OA 
BRANCH   3   4
HETATM    4  C   UNL     1     -12.072  12.714  63.562  1.00  0.00    -0.561 C  
HETATM    5  O   UNL     1     -12.956  11.909  63.310  1.00  0.00    -0.707 OA 
BRANCH   4   6
HETATM    6  C   UNL     1     -12.280  14.083  64.155  1.00  0.00    -0.433 C  
BRANCH   6   7
HETATM    7  C   UNL     1     -10.954  14.668  64.628  1.00  0.00    -0.340 C  
BRANCH   7   8
HETATM    8  C   UNL     1     -11.067  16.154  64.949  1.00  0.00    -0.336 C  
BRANCH   8   9
HETATM    9  C   UNL     1     -10.244  16.485  66.192  1.00  0.00    -0.360 C  
BRANCH   9  10
HETATM   10  C   UNL     1      -8.906  15.759  66.181  1.00  0.00    -0.346 C  
BRANCH  10  11
HETATM   11  C   UNL     1      -8.653  15.048  67.509  1.00  0.00    -0.192 C  
BRANCH  11  12
HETATM   12  C   UNL     1      -8.811  13.540  67.341  1.00  0.00    -0.221 C  
BRANCH  12  13
HETATM   13  C   UNL     1      -9.550  12.903  68.521  1.00  0.00    -0.113 C  
HETATM   14  C   UNL     1     -11.074  12.831  68.287  1.00  0.00    -0.288 C  
HETATM   15  C   UNL     1     -11.789  12.358  69.552  1.00  0.00    -0.368 A  
HETATM   16  C   UNL     1     -11.423  11.981  67.052  1.00  0.00    -0.402 C  
HETATM   17  C   UNL     1     -11.967  10.976  69.773  1.00  0.00    -0.428 A  
HETATM   18  C   UNL     1     -12.652  10.494  70.890  1.00  0.00    -0.493 A  
HETATM   19  C   UNL     1     -13.161  11.381  71.829  1.00  0.00    -0.523 A  
HETATM   20  C   UNL     1     -12.964  12.748  71.660  1.00  0.00    -0.402 A  
HETATM   21  C   UNL     1     -12.280  13.239  70.538  1.00  0.00    -0.340 A  
HETATM   22  I   UNL     1     -12.043  15.333  70.464  1.00  0.00    -0.522 I  
ENDBRANCH  12  13
ENDBRANCH  11  12
ENDBRANCH  10  11
ENDBRANCH   9  10
ENDBRANCH   8   9
ENDBRANCH   7   8
ENDBRANCH   6   7
ENDBRANCH   4   6
ENDBRANCH   3   4
ENDBRANCH   2   3
TORSDOF 10
ENDMDL
MODEL        4
REMARK 921   NORMALIZED FREE ENERGY PREDICTED BY IDOCK:   -5.40 KCAL/MOL
REMARK 922        TOTAL FREE ENERGY PREDICTED BY IDOCK:   -9.95 KCAL/MOL
REMARK 923 INTER-LIGAND FREE ENERGY PREDICTED BY IDOCK:   -8.22 KCAL/MOL
REMARK 924 INTRA-LIGAND FREE ENERGY PREDICTED BY IDOCK:   -1.73 KCAL/MOL
REMARK 927      BINDING AFFINITY PREDICTED BY RF-SCORE:    0.00 PKD
ROOT
HETATM    1  C   UNL     1     -13.905  13.649  72.187  1.00  0.00    -0.642 C  
HETATM    2  C   UNL     1     -14.231  15.131  72.146  1.00  0.00    -0.559 C  
ENDROOT
BRANCH   2   3
HETATM    3  O   UNL     1     -13.349  15.747  71.199  1.00  0.00    -0.564 OA 
BRANCH   3   4
HETATM    4  C   UNL     1     -12.106  16.028  71.682  1.00  0.00    -0.472 C  
HETATM    5  O   UNL     1     -11.867  16.474  72.795  1.00  0.00    -0.539 OA 
BRANCH   4   6
HETATM    6  C   UNL     1     -11.074  15.613  70.666  1.00  0.00    -0.382 C  
BRANCH   6   7
HETATM    7  C   UNL     1     -11.700  15.510  69.280  1.00  0.00    -0.380 C  
BRANCH   7   8
HETATM    8  C   UNL     1     -11.815  14.064  68.812  1.00  0.00    -0.396 C  
BRANCH   8   9
HETATM    9  C   UNL     1     -11.967  14.017  67.293  1.00  0.00    -0.448 C  
BRANCH   9  10
HETATM   10  C   UNL     1     -11.169  15.127  66.621  1.00  0.00    -0.274 C  
BRANCH  10  11
HETATM   11  C   UNL     1      -9.923  14.570  65.933  1.00  0.00    -0.352 C  
BRANCH  11  12
HETATM   12  C   UNL     1      -8.721  14.655  66.868  1.00  0.00    -0.251 C  
BRANCH  12  13
HETATM   13  C   UNL     1      -8.042  16.025  66.810  1.00  0.00    -0.302 C  
HETATM   14  C   UNL     1      -8.230  16.828  68.115  1.00  0.00    -0.199 C  
HETATM   15  C   UNL     1      -7.695  18.250  67.951  1.00  0.00    -0.249 A  
HETATM   16  C   UNL     1      -7.624  16.098  69.327  1.00  0.00    -0.218 C  
HETATM   17  C   UNL     1      -6.338  18.517  68.229  1.00  0.00    -0.206 A  
HETATM   18  C   UNL     1      -5.811  19.807  68.138  1.00  0.00    -0.246 A  
HETATM   19  C   UNL     1      -6.623  20.863  67.747  1.00  0.00    -0.392 A  
HETATM   20  C   UNL     1      -7.956  20.624  67.426  1.00  0.00    -0.315 A  
HETATM   21  C   UNL     1      -8.492  19.331  67.519  1.00  0.00    -0.291 A  
HETATM   22  I   UNL     1     -10.517  19.147  66.959  1.00  0.00    -0.544 I  
ENDBRANCH  12  13
ENDBRANCH  11  12
ENDBRANCH  10  11
ENDBRANCH   9  10
ENDBRANCH   8   9
ENDBRANCH   7   8
ENDBRANCH   6   7
ENDBRANCH   4   6
ENDBRANCH   3   4
ENDBRANCH   2   3
TORSDOF 10
ENDMDL
MODEL        5
REMARK 921   NORMALIZED FREE ENERGY PREDICTED BY IDOCK:   -5.33 KCAL/MOL
REMARK 922        TOTAL FREE ENERGY PREDICTED BY IDOCK:   -9.85 KCAL/MOL
REMARK 923 INTER-LIGAND FREE ENERGY PREDICTED BY IDOCK:   -8.09 KCAL/MOL
REMARK 924 INTRA-LIGAND FREE ENERGY PREDICTED BY IDOCK:   -1.76 KCAL/MOL
REMARK 927      BINDING AFFINITY PREDICTED BY RF-SCORE:    0.00 PKD
ROOT
HETATM    1  C   UNL     1     -10.515  18.098  67.324  1.00  0.00    -0.407 C  
HETATM    2  C   UNL     1     -10.109  16.799  66.653  1.00  0.00    -0.300 C  
ENDROOT
BRANCH   2   3
HETATM    3  O   UNL     1     -10.299  16.958  65.241  1.00  0.00    -0.624 OA 
BRANCH   3   4
HETATM    4  C   UNL     1     -11.239  16.132  64.700  1.00  0.00    -0.298 C  
HETATM    5  O   UNL     1     -11.842  16.338  63.657  1.00  0.00    -0.831 OA 
BRANCH   4   6
HETATM    6  C   UNL     1     -11.346  14.886  65.541  1.00  0.00    -0.339 C  
BRANCH   6   7
HETATM    7  C   UNL     1     -10.618  13.726  64.871  1.00  0.00    -0.427 C  
BRANCH   7   8
HETATM    8  C   UNL     1     -11.546  12.905  63.984  1.00  0.00    -0.486 C  
BRANCH   8   9
HETATM    9  C   UNL     1     -10.834  11.639  63.512  1.00  0.00    -0.497 C  
BRANCH   9  10
HETATM   10  C   UNL     1      -9.768  11.199  64.506  1.00  0.00    -0.310 C  
BRANCH  10  11
HETATM   11  C   UNL     1     -10.151   9.881  65.177  1.00  0.00    -0.177 C  
BRANCH  11  12
HETATM   12  C   UNL     1      -9.935   9.972  66.684  1.00  0.00    -0.274 C  
BRANCH  12  13
HETATM   13  C   UNL     1     -10.796  11.064  67.324  1.00  0.00    -0.335 C  
HETATM   14  C   UNL     1     -10.110  11.710  68.546  1.00  0.00    -0.210 C  
HETATM   15  C   UNL     1     -11.069  12.661  69.259  1.00  0.00    -0.193 A  
HETATM   16  C   UNL     1      -8.778  12.381  68.165  1.00  0.00    -0.190 C  
HETATM   17  C   UNL     1     -11.142  14.009  68.849  1.00  0.00    -0.296 A  
HETATM   18  C   UNL     1     -11.969  14.929  69.497  1.00  0.00    -0.347 A  
HETATM   19  C   UNL     1     -12.763  14.522  70.560  1.00  0.00    -0.404 A  
HETATM   20  C   UNL     1     -12.744  13.189  70.960  1.00  0.00    -0.361 A  
HETATM   21  C   UNL     1     -11.913  12.261  70.316  1.00  0.00    -0.290 A  
HETATM   22  I   UNL     1     -12.040  10.281  71.030  1.00  0.00    -0.489 I  
ENDBRANCH  12  13
ENDBRANCH  11  12
ENDBRANCH  10  11
ENDBRANCH   9  10
ENDBRANCH   8   9
ENDBRANCH   7   8
ENDBRANCH   6   7
ENDBRANCH   4   6
ENDBRANCH   3   4
ENDBRANCH   2   3
TORSDOF 10
ENDMDL
MODEL        6
REMARK 921   NORMALIZED FREE ENERGY PREDICTED BY IDOCK:   -5.29 KCAL/MOL
REMARK 922        TOTAL FREE ENERGY PREDICTED BY IDOCK:   -9.79 KCAL/MOL
REMARK 923 INTER-LIGAND FREE ENERGY PREDICTED BY IDOCK:   -8.17 KCAL/MOL
REMARK 924 INTRA-LIGAND FREE ENERGY PREDICTED BY IDOCK:   -1.61 KCAL/MOL
REMARK 927      BINDING AFFINITY PREDICTED BY RF-SCORE:    0.00 PKD
ROOT
HETATM    1  C   UNL     1     -11.333  15.735  64.873  1.00  0.00    -0.284 C  
HETATM    2  C   UNL     1     -12.219  14.509  64.996  1.00  0.00    -0.373 C  
ENDROOT
BRANCH   2   3
HETATM    3  O   UNL     1     -12.425  13.983  63.679  1.00  0.00    -0.803 OA 
BRANCH   3   4
HETATM    4  C   UNL     1     -12.127  12.659  63.547  1.00  0.00    -0.561 C  
HETATM    5  O   UNL     1     -12.918  11.788  63.216  1.00  0.00    -0.633 OA 
BRANCH   4   6
HETATM    6  C   UNL     1     -10.652  12.458  63.778  1.00  0.00    -0.486 C  
BRANCH   6   7
HETATM    7  C   UNL     1     -10.205  11.108  63.229  1.00  0.00    -0.403 C  
BRANCH   7   8
HETATM    8  C   UNL     1      -9.715  10.178  64.333  1.00  0.00    -0.345 C  
BRANCH   8   9
HETATM    9  C   UNL     1      -8.270  10.515  64.698  1.00  0.00    -0.088 C  
BRANCH   9  10
HETATM   10  C   UNL     1      -7.987  10.220  66.165  1.00  0.00    -0.131 C  
BRANCH  10  11
HETATM   11  C   UNL     1      -7.561  11.485  66.909  1.00  0.00    -0.151 C  
BRANCH  11  12
HETATM   12  C   UNL     1      -8.717  12.478  66.967  1.00  0.00    -0.205 C  
BRANCH  12  13
HETATM   13  C   UNL     1      -9.478  12.400  68.293  1.00  0.00    -0.203 C  
HETATM   14  C   UNL     1     -11.007  12.471  68.097  1.00  0.00    -0.260 C  
HETATM   15  C   UNL     1     -11.717  12.571  69.446  1.00  0.00    -0.383 A  
HETATM   16  C   UNL     1     -11.526  11.307  67.234  1.00  0.00    -0.265 C  
HETATM   17  C   UNL     1     -12.069  11.390  70.133  1.00  0.00    -0.439 A  
HETATM   18  C   UNL     1     -12.759  11.426  71.347  1.00  0.00    -0.489 A  
HETATM   19  C   UNL     1     -13.097  12.646  71.918  1.00  0.00    -0.470 A  
HETATM   20  C   UNL     1     -12.726  13.828  71.284  1.00  0.00    -0.450 A  
HETATM   21  C   UNL     1     -12.036  13.798  70.063  1.00  0.00    -0.349 A  
HETATM   22  I   UNL     1     -11.522  15.681  69.266  1.00  0.00    -0.403 I  
ENDBRANCH  12  13
ENDBRANCH  11  12
ENDBRANCH  10  11
ENDBRANCH   9  10
ENDBRANCH   8   9
ENDBRANCH   7   8
ENDBRANCH   6   7
ENDBRANCH   4   6
ENDBRANCH   3   4
ENDBRANCH   2   3
TORSDOF 10
ENDMDL
MODEL        7
REMARK 921   NORMALIZED FREE ENERGY PREDICTED BY IDOCK:   -5.29 KCAL/MOL
REMARK 922        TOTAL FREE ENERGY PREDICTED BY IDOCK:   -9.78 KCAL/MOL
REMARK 923 INTER-LIGAND FREE ENERGY PREDICTED BY IDOCK:   -8.83 KCAL/MOL
REMARK 924 INTRA-LIGAND FREE ENERGY PREDICTED BY IDOCK:   -0.95 KCAL/MOL
REMARK 927      BINDING AFFINITY PREDICTED BY RF-SCORE:    0.00 PKD
ROOT
HETATM    1  C   UNL     1     -12.514  15.957  74.096  1.00  0.00    -0.776 C  
HETATM    2  C   UNL     1     -12.194  16.070  72.616  1.00  0.00    -0.522 C  
ENDROOT
BRANCH   2   3
HETATM    3  O   UNL     1     -13.358  15.665  71.885  1.00  0.00    -0.451 OA 
BRANCH   3   4
HETATM    4  C   UNL     1     -13.534  14.316  71.804  1.00  0.00    -0.381 C  
HETATM    5  O   UNL     1     -14.375  13.676  72.418  1.00  0.00    -0.661 OA 
BRANCH   4   6
HETATM    6  C   UNL     1     -12.594  13.755  70.768  1.00  0.00    -0.410 C  
BRANCH   6   7
HETATM    7  C   UNL     1     -12.431  12.251  70.954  1.00  0.00    -0.371 C  
BRANCH   7   8
HETATM    8  C   UNL     1     -12.030  11.557  69.657  1.00  0.00    -0.407 C  
BRANCH   8   9
HETATM    9  C   UNL     1     -11.857  12.588  68.544  1.00  0.00    -0.341 C  
BRANCH   9  10
HETATM   10  C   UNL     1     -10.689  12.230  67.634  1.00  0.00    -0.250 C  
BRANCH  10  11
HETATM   11  C   UNL     1      -9.408  12.934  68.078  1.00  0.00    -0.213 C  
BRANCH  11  12
HETATM   12  C   UNL     1      -8.939  13.907  67.002  1.00  0.00    -0.251 C  
BRANCH  12  13
HETATM   13  C   UNL     1      -9.170  15.366  67.403  1.00  0.00    -0.204 C  
HETATM   14  C   UNL     1      -9.346  16.290  66.179  1.00  0.00    -0.374 C  
HETATM   15  C   UNL     1      -9.394  17.753  66.615  1.00  0.00    -0.296 A  
HETATM   16  C   UNL     1     -10.560  15.881  65.326  1.00  0.00    -0.441 C  
HETATM   17  C   UNL     1     -10.631  18.332  66.968  1.00  0.00    -0.375 A  
HETATM   18  C   UNL     1     -10.735  19.677  67.329  1.00  0.00    -0.583 A  
HETATM   19  C   UNL     1      -9.600  20.476  67.368  1.00  0.00    -0.578 A  
HETATM   20  C   UNL     1      -8.360  19.923  67.065  1.00  0.00    -0.364 A  
HETATM   21  C   UNL     1      -8.249  18.573  66.698  1.00  0.00    -0.274 A  
HETATM   22  I   UNL     1      -6.290  17.897  66.310  1.00  0.00    -0.305 I  
ENDBRANCH  12  13
ENDBRANCH  11  12
ENDBRANCH  10  11
ENDBRANCH   9  10
ENDBRANCH   8   9
ENDBRANCH   7   8
ENDBRANCH   6   7
ENDBRANCH   4   6
ENDBRANCH   3   4
ENDBRANCH   2   3
TORSDOF 10
ENDMDL
MODEL        8
REMARK 921   NORMALIZED FREE ENERGY PREDICTED BY IDOCK:   -5.27 KCAL/MOL
REMARK 922        TOTAL FREE ENERGY PREDICTED BY IDOCK:   -9.75 KCAL/MOL
REMARK 923 INTER-LIGAND FREE ENERGY PREDICTED BY IDOCK:   -8.58 KCAL/MOL
REMARK 924 INTRA-LIGAND FREE ENERGY PREDICTED BY IDOCK:   -1.17 KCAL/MOL
REMARK 927      BINDING AFFINITY PREDICTED BY RF-SCORE:    0.00 PKD
ROOT
HETATM    1  C   UNL     1     -11.863   9.759  71.501  1.00  0.00    -0.476 C  
HETATM    2  C   UNL     1     -12.578  11.015  71.038  1.00  0.00    -0.411 C  
ENDROOT
BRANCH   2   3
HETATM    3  O   UNL     1     -13.215  11.601  72.180  1.00  0.00    -0.504 OA 
BRANCH   3   4
HETATM    4  C   UNL     1     -13.525  12.921  72.039  1.00  0.00    -0.473 C  
HETATM    5  O   UNL     1     -14.370  13.521  72.687  1.00  0.00    -0.716 OA 
BRANCH   4   6
HETATM    6  C   UNL     1     -12.596  13.543  71.029  1.00  0.00    -0.438 C  
BRANCH   6   7
HETATM    7  C   UNL     1     -12.850  15.042  70.920  1.00  0.00    -0.451 C  
BRANCH   7   8
HETATM    8  C   UNL     1     -11.576  15.815  70.603  1.00  0.00    -0.416 C  
BRANCH   8   9
HETATM    9  C   UNL     1     -11.274  15.736  69.107  1.00  0.00    -0.322 C  
BRANCH   9  10
HETATM   10  C   UNL     1     -10.664  17.034  68.596  1.00  0.00    -0.333 C  
BRANCH  10  11
HETATM   11  C   UNL     1      -9.668  16.768  67.468  1.00  0.00    -0.252 C  
BRANCH  11  12
HETATM   12  C   UNL     1     -10.407  16.482  66.166  1.00  0.00    -0.344 C  
BRANCH  12  13
HETATM   13  C   UNL     1      -9.965  15.161  65.531  1.00  0.00    -0.384 C  
HETATM   14  C   UNL     1     -11.083  14.097  65.551  1.00  0.00    -0.310 C  
HETATM   15  C   UNL     1     -10.547  12.748  65.075  1.00  0.00    -0.330 A  
HETATM   16  C   UNL     1     -12.323  14.558  64.765  1.00  0.00    -0.403 C  
HETATM   17  C   UNL     1     -10.566  12.441  63.698  1.00  0.00    -0.481 A  
HETATM   18  C   UNL     1     -10.131  11.204  63.217  1.00  0.00    -0.426 A  
HETATM   19  C   UNL     1      -9.644  10.248  64.098  1.00  0.00    -0.376 A  
HETATM   20  C   UNL     1      -9.574  10.538  65.457  1.00  0.00    -0.282 A  
HETATM   21  C   UNL     1     -10.014  11.776  65.947  1.00  0.00    -0.236 A  
HETATM   22  I   UNL     1      -9.800  12.057  68.026  1.00  0.00    -0.212 I  
ENDBRANCH  12  13
ENDBRANCH  11  12
ENDBRANCH  10  11
ENDBRANCH   9  10
ENDBRANCH   8   9
ENDBRANCH   7   8
ENDBRANCH   6   7
ENDBRANCH   4   6
ENDBRANCH   3   4
ENDBRANCH   2   3
TORSDOF 10
ENDMDL
MODEL        9
REMARK 921   NORMALIZED FREE ENERGY PREDICTED BY IDOCK:   -5.27 KCAL/MOL
REMARK 922        TOTAL FREE ENERGY PREDICTED BY IDOCK:   -9.74 KCAL/MOL
REMARK 923 INTER-LIGAND FREE ENERGY PREDICTED BY IDOCK:   -8.23 KCAL/MOL
REMARK 924 INTRA-LIGAND FREE ENERGY PREDICTED BY IDOCK:   -1.51 KCAL/MOL
REMARK 927      BINDING AFFINITY PREDICTED BY RF-SCORE:    0.00 PKD
ROOT
HETATM    1  C   UNL     1     -10.857  12.431  63.531  1.00  0.00    -0.487 C  
HETATM    2  C   UNL     1     -12.276  12.938  63.352  1.00  0.00    -0.490 C  
ENDROOT
BRANCH   2   3
HETATM    3  O   UNL     1     -12.618  13.701  64.516  1.00  0.00    -0.608 OA 
BRANCH   3   4
HETATM    4  C   UNL     1     -12.050  14.939  64.568  1.00  0.00    -0.407 C  
HETATM    5  O   UNL     1     -12.280  15.853  63.790  1.00  0.00    -0.817 OA 
BRANCH   4   6
HETATM    6  C   UNL     1     -11.171  15.029  65.788  1.00  0.00    -0.318 C  
BRANCH   6   7
HETATM    7  C   UNL     1     -10.651  16.451  65.968  1.00  0.00    -0.275 C  
BRANCH   7   8
HETATM    8  C   UNL     1      -9.137  16.486  66.142  1.00  0.00    -0.342 C  
BRANCH   8   9
HETATM    9  C   UNL     1      -8.739  15.733  67.410  1.00  0.00    -0.199 C  
BRANCH   9  10
HETATM   10  C   UNL     1      -7.335  15.155  67.294  1.00  0.00    -0.216 C  
BRANCH  10  11
HETATM   11  C   UNL     1      -7.312  13.680  67.693  1.00  0.00    -0.185 C  
BRANCH  11  12
HETATM   12  C   UNL     1      -8.613  13.000  67.280  1.00  0.00    -0.206 C  
BRANCH  12  13
HETATM   13  C   UNL     1      -9.402  12.486  68.487  1.00  0.00    -0.084 C  
HETATM   14  C   UNL     1     -10.921  12.435  68.216  1.00  0.00    -0.269 C  
HETATM   15  C   UNL     1     -11.683  12.091  69.494  1.00  0.00    -0.408 A  
HETATM   16  C   UNL     1     -11.261  11.493  67.047  1.00  0.00    -0.365 C  
HETATM   17  C   UNL     1     -11.907  10.738  69.825  1.00  0.00    -0.409 A  
HETATM   18  C   UNL     1     -12.636  10.372  70.958  1.00  0.00    -0.491 A  
HETATM   19  C   UNL     1     -13.144  11.349  71.804  1.00  0.00    -0.523 A  
HETATM   20  C   UNL     1     -12.903  12.691  71.527  1.00  0.00    -0.368 A  
HETATM   21  C   UNL     1     -12.174  13.065  70.388  1.00  0.00    -0.310 A  
HETATM   22  I   UNL     1     -11.874  15.138  70.145  1.00  0.00    -0.455 I  
ENDBRANCH  12  13
ENDBRANCH  11  12
ENDBRANCH  10  11
ENDBRANCH   9  10
ENDBRANCH   8   9
ENDBRANCH   7   8
ENDBRANCH   6   7
ENDBRANCH   4   6
ENDBRANCH   3   4
ENDBRANCH   2   3
TORSDOF 10
ENDMDL
MODEL       10
REMARK 921   NORMALIZED FREE ENERGY PREDICTED BY IDOCK:   -5.25 KCAL/MOL
REMARK 922        TOTAL FREE ENERGY PREDICTED BY IDOCK:   -9.72 KCAL/MOL
REMARK 923 INTER-LIGAND FREE ENERGY PREDICTED BY IDOCK:   -8.66 KCAL/MOL
REMARK 924 INTRA-LIGAND FREE ENERGY PREDICTED BY IDOCK:   -1.06 KCAL/MOL
REMARK 927      BINDING AFFINITY PREDICTED BY RF-SCORE:    0.00 PKD
ROOT
HETATM    1  C   UNL     1     -11.633   6.416  70.880  1.00  0.00    -0.393 C  
HETATM    2  C   UNL     1     -12.648   7.420  71.396  1.00  0.00    -0.370 C  
ENDROOT
BRANCH   2   3
HETATM    3  O   UNL     1     -11.937   8.417  72.140  1.00  0.00    -0.326 OA 
BRANCH   3   4
HETATM    4  C   UNL     1     -11.725   9.583  71.465  1.00  0.00    -0.402 C  
HETATM    5  O   UNL     1     -10.661   9.930  70.974  1.00  0.00    -0.309 OA 
BRANCH   4   6
HETATM    6  C   UNL     1     -13.030  10.326  71.340  1.00  0.00    -0.540 C  
BRANCH   6   7
HETATM    7  C   UNL     1     -12.789  11.832  71.342  1.00  0.00    -0.440 C  
BRANCH   7   8
HETATM    8  C   UNL     1     -13.655  12.546  72.374  1.00  0.00    -0.353 C  
BRANCH   8   9
HETATM    9  C   UNL     1     -13.729  14.037  72.052  1.00  0.00    -0.569 C  
BRANCH   9  10
HETATM   10  C   UNL     1     -12.589  14.803  72.710  1.00  0.00    -0.457 C  
BRANCH  10  11
HETATM   11  C   UNL     1     -12.100  15.941  71.815  1.00  0.00    -0.567 C  
BRANCH  11  12
HETATM   12  C   UNL     1     -11.055  15.427  70.830  1.00  0.00    -0.374 C  
BRANCH  12  13
HETATM   13  C   UNL     1     -11.595  15.360  69.400  1.00  0.00    -0.354 C  
HETATM   14  C   UNL     1     -10.701  14.507  68.475  1.00  0.00    -0.253 C  
HETATM   15  C   UNL     1     -11.174  14.612  67.026  1.00  0.00    -0.348 A  
HETATM   16  C   UNL     1     -10.598  13.051  68.964  1.00  0.00    -0.079 C  
HETATM   17  C   UNL     1     -12.158  13.720  66.550  1.00  0.00    -0.483 A  
HETATM   18  C   UNL     1     -12.591  13.746  65.223  1.00  0.00    -0.510 A  
HETATM   19  C   UNL     1     -12.067  14.679  64.339  1.00  0.00    -0.481 A  
HETATM   20  C   UNL     1     -11.126  15.599  64.789  1.00  0.00    -0.426 A  
HETATM   21  C   UNL     1     -10.684  15.576  66.120  1.00  0.00    -0.313 A  
HETATM   22  I   UNL     1      -9.283  17.066  66.637  1.00  0.00    -0.308 I  
ENDBRANCH  12  13
ENDBRANCH  11  12
ENDBRANCH  10  11
ENDBRANCH   9  10
ENDBRANCH   8   9
ENDBRANCH   7   8
ENDBRANCH   6   7
ENDBRANCH   4   6
ENDBRANCH   3   4
ENDBRANCH   2   3
TORSDOF 10
ENDMDL
MODEL       11
REMARK 921   NORMALIZED FREE ENERGY PREDICTED BY IDOCK:   -5.23 KCAL/MOL
REMARK 922        TOTAL FREE ENERGY PREDICTED BY IDOCK:   -9.68 KCAL/MOL
REMARK 923 INTER-LIGAND FREE ENERGY PREDICTED BY IDOCK:   -7.60 KCAL/MOL
REMARK 924 INTRA-LIGAND FREE ENERGY PREDICTED BY IDOCK:   -2.08 KCAL/MOL
REMARK 927      BINDING AFFINITY PREDICTED BY RF-SCORE:    0.00 PKD
ROOT
HETATM    1  C   UNL     1     -13.004  14.035  65.694  1.00  0.00    -0.337 C  
HETATM    2  C   UNL     1     -12.234  14.579  64.504  1.00  0.00    -0.465 C  
ENDROOT
BRANCH   2   3
HETATM    3  O   UNL     1     -12.645  13.845  63.344  1.00  0.00    -0.853 OA 
BRANCH   3   4
HETATM    4  C   UNL     1     -12.335  12.518  63.375  1.00  0.00    -0.477 C  
HETATM    5  O   UNL     1     -13.124  11.605  63.178  1.00  0.00    -0.497 OA 
BRANCH   4   6
HETATM    6  C   UNL     1     -10.853  12.361  63.593  1.00  0.00    -0.509 C  
BRANCH   6   7
HETATM    7  C   UNL     1     -10.498  10.894  63.810  1.00  0.00    -0.329 C  
BRANCH   7   8
HETATM    8  C   UNL     1      -9.301  10.728  64.739  1.00  0.00    -0.264 C  
BRANCH   8   9
HETATM    9  C   UNL     1      -9.255   9.302  65.284  1.00  0.00    -0.275 C  
BRANCH   9  10
HETATM   10  C   UNL     1      -9.311   9.290  66.806  1.00  0.00    -0.202 C  
BRANCH  10  11
HETATM   11  C   UNL     1     -10.726   9.570  67.309  1.00  0.00    -0.269 C  
BRANCH  11  12
HETATM   12  C   UNL     1     -10.711  10.702  68.331  1.00  0.00    -0.260 C  
BRANCH  12  13
HETATM   13  C   UNL     1     -10.721  12.080  67.665  1.00  0.00    -0.252 C  
HETATM   14  C   UNL     1      -9.693  13.043  68.295  1.00  0.00    -0.221 C  
HETATM   15  C   UNL     1      -9.859  14.451  67.726  1.00  0.00    -0.221 A  
HETATM   16  C   UNL     1      -8.255  12.511  68.160  1.00  0.00    -0.170 C  
HETATM   17  C   UNL     1      -9.165  14.811  66.552  1.00  0.00    -0.304 A  
HETATM   18  C   UNL     1      -9.247  16.099  66.017  1.00  0.00    -0.363 A  
HETATM   19  C   UNL     1     -10.043  17.057  66.631  1.00  0.00    -0.308 A  
HETATM   20  C   UNL     1     -10.772  16.719  67.767  1.00  0.00    -0.321 A  
HETATM   21  C   UNL     1     -10.691  15.428  68.311  1.00  0.00    -0.260 A  
HETATM   22  I   UNL     1     -11.891  15.083  70.010  1.00  0.00    -0.445 I  
ENDBRANCH  12  13
ENDBRANCH  11  12
ENDBRANCH  10  11
ENDBRANCH   9  10
ENDBRANCH   8   9
ENDBRANCH   7   8
ENDBRANCH   6   7
ENDBRANCH   4   6
ENDBRANCH   3   4
ENDBRANCH   2   3
TORSDOF 10
ENDMDL
MODEL       12
REMARK 921   NORMALIZED FREE ENERGY PREDICTED BY IDOCK:   -5.22 KCAL/MOL
REMARK 922        TOTAL FREE ENERGY PREDICTED BY IDOCK:   -9.67 KCAL/MOL
REMARK 923 INTER-LIGAND FREE ENERGY PREDICTED BY IDOCK:   -8.57 KCAL/MOL
REMARK 924 INTRA-LIGAND FREE ENERGY PREDICTED BY IDOCK:   -1.11 KCAL/MOL
REMARK 927      BINDING AFFINITY PREDICTED BY RF-SCORE:    0.00 PKD
ROOT
HETATM    1  C   UNL     1     -11.864   9.656  71.479  1.00  0.00    -0.483 C  
HETATM    2  C   UNL     1     -12.634  10.860  70.966  1.00  0.00    -0.417 C  
ENDROOT
BRANCH   2   3
HETATM    3  O   UNL     1     -13.237  11.507  72.093  1.00  0.00    -0.505 OA 
BRANCH   3   4
HETATM    4  C   UNL     1     -13.369  12.857  71.965  1.00  0.00    -0.482 C  
HETATM    5  O   UNL     1     -14.080  13.565  72.663  1.00  0.00    -0.762 OA 
BRANCH   4   6
HETATM    6  C   UNL     1     -12.430  13.348  70.895  1.00  0.00    -0.439 C  
BRANCH   6   7
HETATM    7  C   UNL     1     -12.560  14.857  70.720  1.00  0.00    -0.414 C  
BRANCH   7   8
HETATM    8  C   UNL     1     -11.432  15.432  69.871  1.00  0.00    -0.329 C  
BRANCH   8   9
HETATM    9  C   UNL     1     -10.998  14.415  68.818  1.00  0.00    -0.264 C  
BRANCH   9  10
HETATM   10  C   UNL     1     -11.849  14.524  67.560  1.00  0.00    -0.404 C  
BRANCH  10  11
HETATM   11  C   UNL     1     -11.133  15.332  66.478  1.00  0.00    -0.271 C  
BRANCH  11  12
HETATM   12  C   UNL     1     -11.379  14.713  65.106  1.00  0.00    -0.375 C  
BRANCH  12  13
HETATM   13  C   UNL     1     -10.436  13.540  64.827  1.00  0.00    -0.430 C  
HETATM   14  C   UNL     1     -11.200  12.228  64.546  1.00  0.00    -0.378 C  
HETATM   15  C   UNL     1     -10.230  11.052  64.451  1.00  0.00    -0.409 A  
HETATM   16  C   UNL     1     -12.112  12.352  63.312  1.00  0.00    -0.519 C  
HETATM   17  C   UNL     1      -9.646  10.734  63.207  1.00  0.00    -0.384 A  
HETATM   18  C   UNL     1      -8.788   9.642  63.057  1.00  0.00    -0.254 A  
HETATM   19  C   UNL     1      -8.474   8.850  64.154  1.00  0.00    -0.156 A  
HETATM   20  C   UNL     1      -9.002   9.164  65.402  1.00  0.00    -0.255 A  
HETATM   21  C   UNL     1      -9.867  10.257  65.558  1.00  0.00    -0.282 A  
HETATM   22  I   UNL     1     -10.541  10.607  67.525  1.00  0.00    -0.357 I  
ENDBRANCH  12  13
ENDBRANCH  11  12
ENDBRANCH  10  11
ENDBRANCH   9  10
ENDBRANCH   8   9
ENDBRANCH   7   8
ENDBRANCH   6   7
ENDBRANCH   4   6
ENDBRANCH   3   4
ENDBRANCH   2   3
TORSDOF 10
ENDMDL
MODEL       13
REMARK 921   NORMALIZED FREE ENERGY PREDICTED BY IDOCK:   -5.19 KCAL/MOL
REMARK 922        TOTAL FREE ENERGY PREDICTED BY IDOCK:   -9.62 KCAL/MOL
REMARK 923 INTER-LIGAND FREE ENERGY PREDICTED BY IDOCK:   -7.51 KCAL/MOL
REMARK 924 INTRA-LIGAND FREE ENERGY PREDICTED BY IDOCK:   -2.11 KCAL/MOL
REMARK 927      BINDING AFFINITY PREDICTED BY RF-SCORE:    0.00 PKD
ROOT
HETATM    1  C   UNL     1     -12.179  12.237  64.850  1.00  0.00    -0.410 C  
HETATM    2  C   UNL     1     -11.326  13.368  64.306  1.00  0.00    -0.389 C  
ENDROOT
BRANCH   2   3
HETATM    3  O   UNL     1     -12.103  14.571  64.368  1.00  0.00    -0.472 OA 
BRANCH   3   4
HETATM    4  C   UNL     1     -11.378  15.702  64.599  1.00  0.00    -0.349 C  
HETATM    5  O   UNL     1     -11.489  16.749  63.978  1.00  0.00    -1.198 OA 
BRANCH   4   6
HETATM    6  C   UNL     1     -10.492  15.485  65.798  1.00  0.00    -0.378 C  
BRANCH   6   7
HETATM    7  C   UNL     1     -10.022  16.821  66.363  1.00  0.00    -0.317 C  
BRANCH   7   8
HETATM    8  C   UNL     1     -10.696  17.148  67.690  1.00  0.00    -0.302 C  
BRANCH   8   9
HETATM    9  C   UNL     1      -9.770  16.786  68.850  1.00  0.00    -0.257 C  
BRANCH   9  10
HETATM   10  C   UNL     1     -10.376  15.693  69.721  1.00  0.00    -0.309 C  
BRANCH  10  11
HETATM   11  C   UNL     1     -11.859  15.498  69.408  1.00  0.00    -0.392 C  
BRANCH  11  12
HETATM   12  C   UNL     1     -12.271  14.054  69.680  1.00  0.00    -0.383 C  
BRANCH  12  13
HETATM   13  C   UNL     1     -11.814  13.106  68.568  1.00  0.00    -0.377 C  
HETATM   14  C   UNL     1     -10.846  12.021  69.085  1.00  0.00    -0.175 C  
HETATM   15  C   UNL     1     -10.277  11.212  67.920  1.00  0.00    -0.202 A  
HETATM   16  C   UNL     1     -11.500  11.138  70.162  1.00  0.00    -0.361 C  
HETATM   17  C   UNL     1     -10.974  10.075  67.459  1.00  0.00    -0.276 A  
HETATM   18  C   UNL     1     -10.474   9.277  66.429  1.00  0.00    -0.157 A  
HETATM   19  C   UNL     1      -9.272   9.605  65.816  1.00  0.00    -0.264 A  
HETATM   20  C   UNL     1      -8.583  10.744  66.221  1.00  0.00    -0.163 A  
HETATM   21  C   UNL     1      -9.078  11.548  67.258  1.00  0.00    -0.164 A  
HETATM   22  I   UNL     1      -7.923  13.252  67.714  1.00  0.00    -0.211 I  
ENDBRANCH  12  13
ENDBRANCH  11  12
ENDBRANCH  10  11
ENDBRANCH   9  10
ENDBRANCH   8   9
ENDBRANCH   7   8
ENDBRANCH   6   7
ENDBRANCH   4   6
ENDBRANCH   3   4
ENDBRANCH   2   3
TORSDOF 10
ENDMDL
MODEL       14
REMARK 921   NORMALIZED FREE ENERGY PREDICTED BY IDOCK:   -5.17 KCAL/MOL
REMARK 922        TOTAL FREE ENERGY PREDICTED BY IDOCK:   -9.59 KCAL/MOL
REMARK 923 INTER-LIGAND FREE ENERGY PREDICTED BY IDOCK:   -8.62 KCAL/MOL
REMARK 924 INTRA-LIGAND FREE ENERGY PREDICTED BY IDOCK:   -0.97 KCAL/MOL
REMARK 927      BINDING AFFINITY PREDICTED BY RF-SCORE:    0.00 PKD
ROOT
HETATM    1  C   UNL     1      -9.079  20.072  67.792  1.00  0.00    -0.416 C  
HETATM    2  C   UNL     1     -10.348  19.299  67.482  1.00  0.00    -0.439 C  
ENDROOT
BRANCH   2   3
HETATM    3  O   UNL     1     -10.393  18.164  68.356  1.00  0.00    -0.374 OA 
BRANCH   3   4
HETATM    4  C   UNL     1     -10.722  16.991  67.743  1.00  0.00    -0.318 C  
HETATM    5  O   UNL     1     -11.524  16.174  68.170  1.00  0.00    -0.326 OA 
BRANCH   4   6
HETATM    6  C   UNL     1     -10.015  16.911  66.415  1.00  0.00    -0.321 C  
BRANCH   6   7
HETATM    7  C   UNL     1     -10.284  15.567  65.748  1.00  0.00    -0.390 C  
BRANCH   7   8
HETATM    8  C   UNL     1     -11.257  15.694  64.582  1.00  0.00    -0.380 C  
BRANCH   8   9
HETATM    9  C   UNL     1     -12.074  14.412  64.440  1.00  0.00    -0.491 C  
BRANCH   9  10
HETATM   10  C   UNL     1     -12.289  13.740  65.790  1.00  0.00    -0.523 C  
BRANCH  10  11
HETATM   11  C   UNL     1     -11.945  12.252  65.726  1.00  0.00    -0.362 C  
BRANCH  11  12
HETATM   12  C   UNL     1     -10.900  11.905  66.781  1.00  0.00    -0.307 C  
BRANCH  12  13
HETATM   13  C   UNL     1     -11.465  10.995  67.874  1.00  0.00    -0.358 C  
HETATM   14  C   UNL     1     -11.166  11.525  69.292  1.00  0.00    -0.336 C  
HETATM   15  C   UNL     1     -11.586  10.503  70.347  1.00  0.00    -0.430 A  
HETATM   16  C   UNL     1     -11.787  12.914  69.525  1.00  0.00    -0.383 C  
HETATM   17  C   UNL     1     -12.906  10.523  70.844  1.00  0.00    -0.485 A  
HETATM   18  C   UNL     1     -13.327   9.640  71.841  1.00  0.00    -0.526 A  
HETATM   19  C   UNL     1     -12.445   8.699  72.353  1.00  0.00    -0.428 A  
HETATM   20  C   UNL     1     -11.149   8.627  71.853  1.00  0.00    -0.416 A  
HETATM   21  C   UNL     1     -10.719   9.514  70.854  1.00  0.00    -0.333 A  
HETATM   22  I   UNL     1      -8.737   9.237  70.189  1.00  0.00    -0.281 I  
ENDBRANCH  12  13
ENDBRANCH  11  12
ENDBRANCH  10  11
ENDBRANCH   9  10
ENDBRANCH   8   9
ENDBRANCH   7   8
ENDBRANCH   6   7
ENDBRANCH   4   6
ENDBRANCH   3   4
ENDBRANCH   2   3
TORSDOF 10
ENDMDL
MODEL       15
REMARK 921   NORMALIZED FREE ENERGY PREDICTED BY IDOCK:   -5.15 KCAL/MOL
REMARK 922        TOTAL FREE ENERGY PREDICTED BY IDOCK:   -9.56 KCAL/MOL
REMARK 923 INTER-LIGAND FREE ENERGY PREDICTED BY IDOCK:   -7.74 KCAL/MOL
REMARK 924 INTRA-LIGAND FREE ENERGY PREDICTED BY IDOCK:   -1.82 KCAL/MOL
REMARK 927      BINDING AFFINITY PREDICTED BY RF-SCORE:    0.00 PKD
ROOT
HETATM    1  C   UNL     1     -11.235  16.502  64.524  1.00  0.00    -0.033 C  
HETATM    2  C   UNL     1     -11.137  14.995  64.670  1.00  0.00    -0.321 C  
ENDROOT
BRANCH   2   3
HETATM    3  O   UNL     1     -12.442  14.448  64.446  1.00  0.00    -0.635 OA 
BRANCH   3   4
HETATM    4  C   UNL     1     -12.667  13.251  65.059  1.00  0.00    -0.375 C  
HETATM    5  O   UNL     1     -13.083  12.243  64.507  1.00  0.00    -0.791 OA 
BRANCH   4   6
HETATM    6  C   UNL     1     -12.232  13.343  66.499  1.00  0.00    -0.414 C  
BRANCH   6   7
HETATM    7  C   UNL     1     -11.483  12.082  66.912  1.00  0.00    -0.402 C  
BRANCH   7   8
HETATM    8  C   UNL     1      -9.977  12.227  66.730  1.00  0.00    -0.217 C  
BRANCH   8   9
HETATM    9  C   UNL     1      -9.496  11.313  65.604  1.00  0.00    -0.254 C  
BRANCH   9  10
HETATM   10  C   UNL     1     -10.091   9.917  65.731  1.00  0.00    -0.317 C  
BRANCH  10  11
HETATM   11  C   UNL     1      -8.998   8.869  65.933  1.00  0.00    -0.244 C  
BRANCH  11  12
HETATM   12  C   UNL     1      -9.266   8.062  67.199  1.00  0.00    -0.172 C  
BRANCH  12  13
HETATM   13  C   UNL     1     -10.400   8.660  68.034  1.00  0.00    -0.277 C  
HETATM   14  C   UNL     1      -9.925   9.110  69.432  1.00  0.00    -0.192 C  
HETATM   15  C   UNL     1     -11.114   9.532  70.292  1.00  0.00    -0.317 A  
HETATM   16  C   UNL     1      -8.837  10.195  69.343  1.00  0.00    -0.197 C  
HETATM   17  C   UNL     1     -11.565  10.868  70.245  1.00  0.00    -0.426 A  
HETATM   18  C   UNL     1     -12.619  11.315  71.045  1.00  0.00    -0.495 A  
HETATM   19  C   UNL     1     -13.265  10.433  71.901  1.00  0.00    -0.535 A  
HETATM   20  C   UNL     1     -12.870   9.099  71.938  1.00  0.00    -0.466 A  
HETATM   21  C   UNL     1     -11.810   8.645  71.140  1.00  0.00    -0.287 A  
HETATM   22  I   UNL     1     -11.372   6.588  71.298  1.00  0.00    -0.372 I  
ENDBRANCH  12  13
ENDBRANCH  11  12
ENDBRANCH  10  11
ENDBRANCH   9  10
ENDBRANCH   8   9
ENDBRANCH   7   8
ENDBRANCH   6   7
ENDBRANCH   4   6
ENDBRANCH   3   4
ENDBRANCH   2   3
TORSDOF 10
ENDMDL
MODEL       16
REMARK 921   NORMALIZED FREE ENERGY PREDICTED BY IDOCK:   -5.15 KCAL/MOL
REMARK 922        TOTAL FREE ENERGY PREDICTED BY IDOCK:   -9.56 KCAL/MOL
REMARK 923 INTER-LIGAND FREE ENERGY PREDICTED BY IDOCK:   -8.25 KCAL/MOL
REMARK 924 INTRA-LIGAND FREE ENERGY PREDICTED BY IDOCK:   -1.31 KCAL/MOL
REMARK 927      BINDING AFFINITY PREDICTED BY RF-SCORE:    0.00 PKD
ROOT
HETATM    1  C   UNL     1     -13.100  12.436  71.932  1.00  0.00    -0.471 C  
HETATM    2  C   UNL     1     -13.808  13.704  72.374  1.00  0.00    -0.589 C  
ENDROOT
BRANCH   2   3
HETATM    3  O   UNL     1     -13.892  14.576  71.240  1.00  0.00    -0.377 OA 
BRANCH   3   4
HETATM    4  C   UNL     1     -12.884  15.489  71.152  1.00  0.00    -0.489 C  
HETATM    5  O   UNL     1     -12.414  16.113  72.092  1.00  0.00    -0.465 OA 
BRANCH   4   6
HETATM    6  C   UNL     1     -12.379  15.534  69.733  1.00  0.00    -0.261 C  
BRANCH   6   7
HETATM    7  C   UNL     1     -10.894  15.879  69.705  1.00  0.00    -0.328 C  
BRANCH   7   8
HETATM    8  C   UNL     1     -10.506  16.624  68.434  1.00  0.00    -0.323 C  
BRANCH   8   9
HETATM    9  C   UNL     1      -9.273  15.978  67.805  1.00  0.00    -0.205 C  
BRANCH   9  10
HETATM   10  C   UNL     1      -9.225  16.223  66.302  1.00  0.00    -0.363 C  
BRANCH  10  11
HETATM   11  C   UNL     1     -10.585  16.680  65.775  1.00  0.00    -0.278 C  
BRANCH  11  12
HETATM   12  C   UNL     1     -11.157  15.641  64.816  1.00  0.00    -0.426 C  
BRANCH  12  13
HETATM   13  C   UNL     1     -10.417  14.304  64.907  1.00  0.00    -0.454 C  
HETATM   14  C   UNL     1     -11.373  13.097  64.799  1.00  0.00    -0.352 C  
HETATM   15  C   UNL     1     -10.624  11.794  65.073  1.00  0.00    -0.338 A  
HETATM   16  C   UNL     1     -12.125  13.083  63.456  1.00  0.00    -0.617 C  
HETATM   17  C   UNL     1      -9.989  11.121  64.007  1.00  0.00    -0.376 A  
HETATM   18  C   UNL     1      -9.331   9.905  64.197  1.00  0.00    -0.295 A  
HETATM   19  C   UNL     1      -9.270   9.337  65.462  1.00  0.00    -0.292 A  
HETATM   20  C   UNL     1      -9.850   9.998  66.541  1.00  0.00    -0.267 A  
HETATM   21  C   UNL     1     -10.517  11.219  66.356  1.00  0.00    -0.257 A  
HETATM   22  I   UNL     1     -11.303  12.096  68.105  1.00  0.00    -0.426 I  
ENDBRANCH  12  13
ENDBRANCH  11  12
ENDBRANCH  10  11
ENDBRANCH   9  10
ENDBRANCH   8   9
ENDBRANCH   7   8
ENDBRANCH   6   7
ENDBRANCH   4   6
ENDBRANCH   3   4
ENDBRANCH   2   3
TORSDOF 10
ENDMDL
MODEL       17
REMARK 921   NORMALIZED FREE ENERGY PREDICTED BY IDOCK:   -5.14 KCAL/MOL
REMARK 922        TOTAL FREE ENERGY PREDICTED BY IDOCK:   -9.54 KCAL/MOL
REMARK 923 INTER-LIGAND FREE ENERGY PREDICTED BY IDOCK:   -8.40 KCAL/MOL
REMARK 924 INTRA-LIGAND FREE ENERGY PREDICTED BY IDOCK:   -1.14 KCAL/MOL
REMARK 927      BINDING AFFINITY PREDICTED BY RF-SCORE:    0.00 PKD
ROOT
HETATM    1  C   UNL     1      -7.359  20.181  66.852  1.00  0.00    -0.304 C  
HETATM    2  C   UNL     1      -8.842  19.914  66.670  1.00  0.00    -0.358 C  
ENDROOT
BRANCH   2   3
HETATM    3  O   UNL     1      -8.981  18.642  66.025  1.00  0.00    -0.489 OA 
BRANCH   3   4
HETATM    4  C   UNL     1     -10.235  18.111  66.088  1.00  0.00    -0.367 C  
HETATM    5  O   UNL     1     -10.815  17.560  65.163  1.00  0.00    -0.642 OA 
BRANCH   4   6
HETATM    6  C   UNL     1     -10.752  18.227  67.498  1.00  0.00    -0.381 C  
BRANCH   6   7
HETATM    7  C   UNL     1     -10.237  17.075  68.352  1.00  0.00    -0.331 C  
BRANCH   7   8
HETATM    8  C   UNL     1     -11.327  16.050  68.646  1.00  0.00    -0.383 C  
BRANCH   8   9
HETATM    9  C   UNL     1     -11.363  14.995  67.542  1.00  0.00    -0.340 C  
BRANCH   9  10
HETATM   10  C   UNL     1     -10.004  14.332  67.365  1.00  0.00    -0.242 C  
BRANCH  10  11
HETATM   11  C   UNL     1     -10.134  12.810  67.332  1.00  0.00    -0.219 C  
BRANCH  11  12
HETATM   12  C   UNL     1     -11.604  12.404  67.328  1.00  0.00    -0.435 C  
BRANCH  12  13
HETATM   13  C   UNL     1     -11.901  11.304  68.350  1.00  0.00    -0.331 C  
HETATM   14  C   UNL     1     -11.414  11.674  69.767  1.00  0.00    -0.339 C  
HETATM   15  C   UNL     1     -11.566  10.485  70.714  1.00  0.00    -0.432 A  
HETATM   16  C   UNL     1     -12.102  12.947  70.293  1.00  0.00    -0.377 C  
HETATM   17  C   UNL     1     -12.781  10.300  71.406  1.00  0.00    -0.547 A  
HETATM   18  C   UNL     1     -12.955   9.255  72.316  1.00  0.00    -0.488 A  
HETATM   19  C   UNL     1     -11.924   8.354  72.544  1.00  0.00    -0.418 A  
HETATM   20  C   UNL     1     -10.728   8.486  71.845  1.00  0.00    -0.394 A  
HETATM   21  C   UNL     1     -10.546   9.535  70.932  1.00  0.00    -0.325 A  
HETATM   22  I   UNL     1      -8.687   9.559  69.937  1.00  0.00    -0.255 I  
ENDBRANCH  12  13
ENDBRANCH  11  12
ENDBRANCH  10  11
ENDBRANCH   9  10
ENDBRANCH   8   9
ENDBRANCH   7   8
ENDBRANCH   6   7
ENDBRANCH   4   6
ENDBRANCH   3   4
ENDBRANCH   2   3
TORSDOF 10
ENDMDL
MODEL       18
REMARK 921   NORMALIZED FREE ENERGY PREDICTED BY IDOCK:   -5.11 KCAL/MOL
REMARK 922        TOTAL FREE ENERGY PREDICTED BY IDOCK:   -9.49 KCAL/MOL
REMARK 923 INTER-LIGAND FREE ENERGY PREDICTED BY IDOCK:   -8.27 KCAL/MOL
REMARK 924 INTRA-LIGAND FREE ENERGY PREDICTED BY IDOCK:   -1.22 KCAL/MOL
REMARK 927      BINDING AFFINITY PREDICTED BY RF-SCORE:    0.00 PKD
ROOT
HETATM    1  C   UNL     1     -12.315   8.604  72.092  1.00  0.00    -0.452 C  
HETATM    2  C   UNL     1     -12.435   9.920  71.346  1.00  0.00    -0.398 C  
ENDROOT
BRANCH   2   3
HETATM    3  O   UNL     1     -13.210  10.813  72.156  1.00  0.00    -0.473 OA 
BRANCH   3   4
HETATM    4  C   UNL     1     -13.145  12.121  71.777  1.00  0.00    -0.352 C  
HETATM    5  O   UNL     1     -13.658  13.055  72.375  1.00  0.00    -0.578 OA 
BRANCH   4   6
HETATM    6  C   UNL     1     -12.262  12.241  70.561  1.00  0.00    -0.387 C  
BRANCH   6   7
HETATM    7  C   UNL     1     -12.066  13.705  70.186  1.00  0.00    -0.431 C  
BRANCH   7   8
HETATM    8  C   UNL     1     -11.964  13.898  68.677  1.00  0.00    -0.401 C  
BRANCH   8   9
HETATM    9  C   UNL     1     -11.823  12.544  67.985  1.00  0.00    -0.382 C  
BRANCH   9  10
HETATM   10  C   UNL     1     -10.543  12.474  67.163  1.00  0.00    -0.247 C  
BRANCH  10  11
HETATM   11  C   UNL     1      -9.339  12.946  67.977  1.00  0.00    -0.213 C  
BRANCH  11  12
HETATM   12  C   UNL     1      -8.503  13.928  67.163  1.00  0.00    -0.196 C  
BRANCH  12  13
HETATM   13  C   UNL     1      -8.818  15.384  67.518  1.00  0.00    -0.190 C  
HETATM   14  C   UNL     1      -9.131  16.237  66.270  1.00  0.00    -0.366 C  
HETATM   15  C   UNL     1      -9.261  17.711  66.648  1.00  0.00    -0.284 A  
HETATM   16  C   UNL     1     -10.358  15.704  65.509  1.00  0.00    -0.421 C  
HETATM   17  C   UNL     1     -10.516  18.216  67.051  1.00  0.00    -0.385 A  
HETATM   18  C   UNL     1     -10.698  19.564  67.363  1.00  0.00    -0.589 A  
HETATM   19  C   UNL     1      -9.625  20.443  67.300  1.00  0.00    -0.592 A  
HETATM   20  C   UNL     1      -8.366  19.967  66.946  1.00  0.00    -0.366 A  
HETATM   21  C   UNL     1      -8.178  18.613  66.628  1.00  0.00    -0.278 A  
HETATM   22  I   UNL     1      -6.199  18.061  66.151  1.00  0.00    -0.294 I  
ENDBRANCH  12  13
ENDBRANCH  11  12
ENDBRANCH  10  11
ENDBRANCH   9  10
ENDBRANCH   8   9
ENDBRANCH   7   8
ENDBRANCH   6   7
ENDBRANCH   4   6
ENDBRANCH   3   4
ENDBRANCH   2   3
TORSDOF 10
ENDMDL
MODEL       19
REMARK 921   NORMALIZED FREE ENERGY PREDICTED BY IDOCK:   -5.11 KCAL/MOL
REMARK 922        TOTAL FREE ENERGY PREDICTED BY IDOCK:   -9.49 KCAL/MOL
REMARK 923 INTER-LIGAND FREE ENERGY PREDICTED BY IDOCK:   -8.20 KCAL/MOL
REMARK 924 INTRA-LIGAND FREE ENERGY PREDICTED BY IDOCK:   -1.29 KCAL/MOL
REMARK 927      BINDING AFFINITY PREDICTED BY RF-SCORE:    0.00 PKD
ROOT
HETATM    1  C   UNL     1     -10.959  11.489  63.648  1.00  0.00    -0.482 C  
HETATM    2  C   UNL     1     -12.391  11.986  63.571  1.00  0.00    -0.551 C  
ENDROOT
BRANCH   2   3
HETATM    3  O   UNL     1     -12.718  12.573  64.837  1.00  0.00    -0.657 OA 
BRANCH   3   4
HETATM    4  C   UNL     1     -12.327  13.872  64.975  1.00  0.00    -0.430 C  
HETATM    5  O   UNL     1     -12.518  14.757  64.155  1.00  0.00    -0.758 OA 
BRANCH   4   6
HETATM    6  C   UNL     1     -11.710  14.060  66.337  1.00  0.00    -0.407 C  
BRANCH   6   7
HETATM    7  C   UNL     1     -11.859  12.793  67.171  1.00  0.00    -0.415 C  
BRANCH   7   8
HETATM    8  C   UNL     1     -10.987  12.827  68.421  1.00  0.00    -0.281 C  
BRANCH   8   9
HETATM    9  C   UNL     1     -11.863  12.808  69.671  1.00  0.00    -0.384 C  
BRANCH   9  10
HETATM   10  C   UNL     1     -12.088  14.214  70.212  1.00  0.00    -0.412 C  
BRANCH  10  11
HETATM   11  C   UNL     1     -10.894  15.118  69.911  1.00  0.00    -0.287 C  
BRANCH  11  12
HETATM   12  C   UNL     1     -11.339  16.330  69.099  1.00  0.00    -0.291 C  
BRANCH  12  13
HETATM   13  C   UNL     1     -10.266  17.421  69.058  1.00  0.00    -0.317 C  
HETATM   14  C   UNL     1      -9.415  17.358  67.772  1.00  0.00    -0.261 C  
HETATM   15  C   UNL     1      -8.249  18.342  67.853  1.00  0.00    -0.273 A  
HETATM   16  C   UNL     1     -10.273  17.550  66.509  1.00  0.00    -0.342 C  
HETATM   17  C   UNL     1      -8.432  19.671  67.417  1.00  0.00    -0.345 A  
HETATM   18  C   UNL     1      -7.387  20.597  67.427  1.00  0.00    -0.384 A  
HETATM   19  C   UNL     1      -6.134  20.225  67.894  1.00  0.00    -0.267 A  
HETATM   20  C   UNL     1      -5.933  18.933  68.370  1.00  0.00    -0.225 A  
HETATM   21  C   UNL     1      -6.978  17.997  68.358  1.00  0.00    -0.236 A  
HETATM   22  I   UNL     1      -6.506  16.101  69.150  1.00  0.00    -0.196 I  
ENDBRANCH  12  13
ENDBRANCH  11  12
ENDBRANCH  10  11
ENDBRANCH   9  10
ENDBRANCH   8   9
ENDBRANCH   7   8
ENDBRANCH   6   7
ENDBRANCH   4   6
ENDBRANCH   3   4
ENDBRANCH   2   3
TORSDOF 10
ENDMDL
MODEL       20
REMARK 921   NORMALIZED FREE ENERGY PREDICTED BY IDOCK:   -5.08 KCAL/MOL
REMARK 922        TOTAL FREE ENERGY PREDICTED BY IDOCK:   -9.46 KCAL/MOL
REMARK 923 INTER-LIGAND FREE ENERGY PREDICTED BY IDOCK:   -8.39 KCAL/MOL
REMARK 924 INTRA-LIGAND FREE ENERGY PREDICTED BY IDOCK:   -1.06 KCAL/MOL
REMARK 927      BINDING AFFINITY PREDICTED BY RF-SCORE:    0.00 PKD
ROOT
HETATM    1  C   UNL     1     -12.492  15.591  74.396  1.00  0.00    -0.768 C  
HETATM    2  C   UNL     1     -12.764  16.049  72.975  1.00  0.00    -0.493 C  
ENDROOT
BRANCH   2   3
HETATM    3  O   UNL     1     -13.940  15.371  72.515  1.00  0.00    -0.519 OA 
BRANCH   3   4
HETATM    4  C   UNL     1     -13.725  14.095  72.087  1.00  0.00    -0.493 C  
HETATM    5  O   UNL     1     -14.239  13.094  72.565  1.00  0.00    -0.654 OA 
BRANCH   4   6
HETATM    6  C   UNL     1     -12.833  14.123  70.873  1.00  0.00    -0.404 C  
BRANCH   6   7
HETATM    7  C   UNL     1     -12.395  12.712  70.498  1.00  0.00    -0.350 C  
BRANCH   7   8
HETATM    8  C   UNL     1     -11.324  12.717  69.414  1.00  0.00    -0.273 C  
BRANCH   8   9
HETATM    9  C   UNL     1     -11.803  11.920  68.202  1.00  0.00    -0.338 C  
BRANCH   9  10
HETATM   10  C   UNL     1     -11.860  12.791  66.954  1.00  0.00    -0.440 C  
BRANCH  10  11
HETATM   11  C   UNL     1     -10.553  13.559  66.758  1.00  0.00    -0.272 C  
BRANCH  11  12
HETATM   12  C   UNL     1     -10.830  15.056  66.655  1.00  0.00    -0.318 C  
BRANCH  12  13
HETATM   13  C   UNL     1      -9.568  15.891  66.883  1.00  0.00    -0.242 C  
HETATM   14  C   UNL     1      -9.653  16.745  68.166  1.00  0.00    -0.242 C  
HETATM   15  C   UNL     1      -8.458  17.692  68.260  1.00  0.00    -0.271 A  
HETATM   16  C   UNL     1      -9.823  15.871  69.422  1.00  0.00    -0.280 C  
HETATM   17  C   UNL     1      -7.271  17.252  68.882  1.00  0.00    -0.243 A  
HETATM   18  C   UNL     1      -6.167  18.093  69.033  1.00  0.00    -0.237 A  
HETATM   19  C   UNL     1      -6.213  19.393  68.549  1.00  0.00    -0.270 A  
HETATM   20  C   UNL     1      -7.355  19.843  67.894  1.00  0.00    -0.326 A  
HETATM   21  C   UNL     1      -8.469  19.004  67.742  1.00  0.00    -0.293 A  
HETATM   22  I   UNL     1     -10.097  19.838  66.693  1.00  0.00    -0.664 I  
ENDBRANCH  12  13
ENDBRANCH  11  12
ENDBRANCH  10  11
ENDBRANCH   9  10
ENDBRANCH   8   9
ENDBRANCH   7   8
ENDBRANCH   6   7
ENDBRANCH   4   6
ENDBRANCH   3   4
ENDBRANCH   2   3
TORSDOF 10
ENDMDL
MODEL       21
REMARK 921   NORMALIZED FREE ENERGY PREDICTED BY IDOCK:   -5.07 KCAL/MOL
REMARK 922        TOTAL FREE ENERGY PREDICTED BY IDOCK:   -9.43 KCAL/MOL
REMARK 923 INTER-LIGAND FREE ENERGY PREDICTED BY IDOCK:   -8.38 KCAL/MOL
REMARK 924 INTRA-LIGAND FREE ENERGY PREDICTED BY IDOCK:   -1.05 KCAL/MOL
REMARK 927      BINDING AFFINITY PREDICTED BY RF-SCORE:    0.00 PKD
ROOT
HETATM    1  C   UNL     1     -12.451  15.599  74.404  1.00  0.00    -0.790 C  
HETATM    2  C   UNL     1     -13.311  15.945  73.203  1.00  0.00    -0.587 C  
ENDROOT
BRANCH   2   3
HETATM    3  O   UNL     1     -14.003  14.755  72.804  1.00  0.00    -0.484 OA 
BRANCH   3   4
HETATM    4  C   UNL     1     -13.278  13.920  72.006  1.00  0.00    -0.416 C  
HETATM    5  O   UNL     1     -12.414  14.273  71.217  1.00  0.00    -0.326 OA 
BRANCH   4   6
HETATM    6  C   UNL     1     -13.644  12.493  72.321  1.00  0.00    -0.443 C  
BRANCH   6   7
HETATM    7  C   UNL     1     -12.943  11.537  71.363  1.00  0.00    -0.450 C  
BRANCH   7   8
HETATM    8  C   UNL     1     -12.873  10.120  71.920  1.00  0.00    -0.526 C  
BRANCH   8   9
HETATM    9  C   UNL     1     -12.238   9.185  70.893  1.00  0.00    -0.239 C  
BRANCH   9  10
HETATM   10  C   UNL     1     -10.769   8.932  71.208  1.00  0.00    -0.357 C  
BRANCH  10  11
HETATM   11  C   UNL     1      -9.865   9.517  70.123  1.00  0.00    -0.288 C  
BRANCH  11  12
HETATM   12  C   UNL     1      -9.719   8.532  68.968  1.00  0.00    -0.170 C  
BRANCH  12  13
HETATM   13  C   UNL     1     -10.264   9.098  67.655  1.00  0.00    -0.293 C  
HETATM   14  C   UNL     1      -9.411  10.269  67.123  1.00  0.00    -0.175 C  
HETATM   15  C   UNL     1     -10.085  10.919  65.916  1.00  0.00    -0.307 A  
HETATM   16  C   UNL     1      -7.963   9.835  66.836  1.00  0.00    -0.105 C  
HETATM   17  C   UNL     1      -9.827  10.417  64.623  1.00  0.00    -0.405 A  
HETATM   18  C   UNL     1     -10.382  11.003  63.484  1.00  0.00    -0.402 A  
HETATM   19  C   UNL     1     -11.229  12.096  63.608  1.00  0.00    -0.540 A  
HETATM   20  C   UNL     1     -11.536  12.588  64.873  1.00  0.00    -0.386 A  
HETATM   21  C   UNL     1     -10.978  12.006  66.021  1.00  0.00    -0.304 A  
HETATM   22  I   UNL     1     -11.583  12.855  67.854  1.00  0.00    -0.384 I  
ENDBRANCH  12  13
ENDBRANCH  11  12
ENDBRANCH  10  11
ENDBRANCH   9  10
ENDBRANCH   8   9
ENDBRANCH   7   8
ENDBRANCH   6   7
ENDBRANCH   4   6
ENDBRANCH   3   4
ENDBRANCH   2   3
TORSDOF 10
ENDMDL
MODEL       22
REMARK 921   NORMALIZED FREE ENERGY PREDICTED BY IDOCK:   -5.07 KCAL/MOL
REMARK 922        TOTAL FREE ENERGY PREDICTED BY IDOCK:   -9.43 KCAL/MOL
REMARK 923 INTER-LIGAND FREE ENERGY PREDICTED BY IDOCK:   -7.66 KCAL/MOL
REMARK 924 INTRA-LIGAND FREE ENERGY PREDICTED BY IDOCK:   -1.77 KCAL/MOL
REMARK 927      BINDING AFFINITY PREDICTED BY RF-SCORE:    0.00 PKD
ROOT
HETATM    1  C   UNL     1     -13.571  14.103  72.536  1.00  0.00    -0.644 C  
HETATM    2  C   UNL     1     -13.182  13.867  71.088  1.00  0.00    -0.238 C  
ENDROOT
BRANCH   2   3
HETATM    3  O   UNL     1     -12.240  14.881  70.718  1.00  0.00    -0.282 OA 
BRANCH   3   4
HETATM    4  C   UNL     1     -12.031  14.996  69.376  1.00  0.00    -0.303 C  
HETATM    5  O   UNL     1     -11.808  16.042  68.784  1.00  0.00    -0.375 OA 
BRANCH   4   6
HETATM    6  C   UNL     1     -12.026  13.623  68.755  1.00  0.00    -0.394 C  
BRANCH   6   7
HETATM    7  C   UNL     1     -11.380  13.663  67.375  1.00  0.00    -0.340 C  
BRANCH   7   8
HETATM    8  C   UNL     1     -12.409  13.518  66.260  1.00  0.00    -0.440 C  
BRANCH   8   9
HETATM    9  C   UNL     1     -11.922  12.503  65.228  1.00  0.00    -0.490 C  
BRANCH   9  10
HETATM   10  C   UNL     1     -10.540  11.971  65.583  1.00  0.00    -0.303 C  
BRANCH  10  11
HETATM   11  C   UNL     1     -10.392  10.506  65.176  1.00  0.00    -0.310 C  
BRANCH  11  12
HETATM   12  C   UNL     1      -9.841   9.687  66.339  1.00  0.00    -0.309 C  
BRANCH  12  13
HETATM   13  C   UNL     1     -10.833   9.596  67.500  1.00  0.00    -0.265 C  
HETATM   14  C   UNL     1     -10.129   9.588  68.874  1.00  0.00    -0.199 C  
HETATM   15  C   UNL     1     -11.135   9.316  69.991  1.00  0.00    -0.228 A  
HETATM   16  C   UNL     1      -9.313  10.873  69.104  1.00  0.00    -0.096 C  
HETATM   17  C   UNL     1     -11.823  10.397  70.583  1.00  0.00    -0.445 A  
HETATM   18  C   UNL     1     -12.718  10.206  71.637  1.00  0.00    -0.549 A  
HETATM   19  C   UNL     1     -12.967   8.927  72.115  1.00  0.00    -0.473 A  
HETATM   20  C   UNL     1     -12.336   7.837  71.523  1.00  0.00    -0.345 A  
HETATM   21  C   UNL     1     -11.432   8.022  70.466  1.00  0.00    -0.187 A  
HETATM   22  I   UNL     1     -10.598   6.258  69.667  1.00  0.00    -0.440 I  
ENDBRANCH  12  13
ENDBRANCH  11  12
ENDBRANCH  10  11
ENDBRANCH   9  10
ENDBRANCH   8   9
ENDBRANCH   7   8
ENDBRANCH   6   7
ENDBRANCH   4   6
ENDBRANCH   3   4
ENDBRANCH   2   3
TORSDOF 10
ENDMDL
MODEL       23
REMARK 921   NORMALIZED FREE ENERGY PREDICTED BY IDOCK:   -5.03 KCAL/MOL
REMARK 922        TOTAL FREE ENERGY PREDICTED BY IDOCK:   -9.38 KCAL/MOL
REMARK 923 INTER-LIGAND FREE ENERGY PREDICTED BY IDOCK:   -8.07 KCAL/MOL
REMARK 924 INTRA-LIGAND FREE ENERGY PREDICTED BY IDOCK:   -1.31 KCAL/MOL
REMARK 927      BINDING AFFINITY PREDICTED BY RF-SCORE:    0.00 PKD
ROOT
HETATM    1  C   UNL     1     -12.856  11.953  63.577  1.00  0.00    -0.435 C  
HETATM    2  C   UNL     1     -11.861  13.082  63.381  1.00  0.00    -0.476 C  
ENDROOT
BRANCH   2   3
HETATM    3  O   UNL     1     -12.512  14.306  63.742  1.00  0.00    -0.810 OA 
BRANCH   3   4
HETATM    4  C   UNL     1     -11.666  15.304  64.125  1.00  0.00    -0.103 C  
HETATM    5  O   UNL     1     -11.799  16.487  63.847  1.00  0.00    -1.059 OA 
BRANCH   4   6
HETATM    6  C   UNL     1     -10.599  14.732  65.022  1.00  0.00    -0.452 C  
BRANCH   6   7
HETATM    7  C   UNL     1     -10.268  15.706  66.147  1.00  0.00    -0.327 C  
BRANCH   7   8
HETATM    8  C   UNL     1     -10.552  15.109  67.520  1.00  0.00    -0.269 C  
BRANCH   8   9
HETATM    9  C   UNL     1     -11.925  14.438  67.525  1.00  0.00    -0.389 C  
BRANCH   9  10
HETATM   10  C   UNL     1     -11.846  13.020  68.073  1.00  0.00    -0.391 C  
BRANCH  10  11
HETATM   11  C   UNL     1     -11.777  11.995  66.941  1.00  0.00    -0.342 C  
BRANCH  11  12
HETATM   12  C   UNL     1     -10.366  11.425  66.830  1.00  0.00    -0.271 C  
BRANCH  12  13
HETATM   13  C   UNL     1      -9.912  10.752  68.127  1.00  0.00    -0.176 C  
HETATM   14  C   UNL     1     -10.705   9.461  68.425  1.00  0.00    -0.213 C  
HETATM   15  C   UNL     1     -10.348   8.921  69.809  1.00  0.00    -0.213 A  
HETATM   16  C   UNL     1     -10.529   8.413  67.312  1.00  0.00    -0.373 C  
HETATM   17  C   UNL     1      -9.258   8.036  69.949  1.00  0.00    -0.152 A  
HETATM   18  C   UNL     1      -8.919   7.479  71.184  1.00  0.00    -0.144 A  
HETATM   19  C   UNL     1      -9.649   7.809  72.318  1.00  0.00    -0.231 A  
HETATM   20  C   UNL     1     -10.703   8.712  72.219  1.00  0.00    -0.383 A  
HETATM   21  C   UNL     1     -11.051   9.272  70.981  1.00  0.00    -0.326 A  
HETATM   22  I   UNL     1     -12.649  10.647  71.024  1.00  0.00    -0.531 I  
ENDBRANCH  12  13
ENDBRANCH  11  12
ENDBRANCH  10  11
ENDBRANCH   9  10
ENDBRANCH   8   9
ENDBRANCH   7   8
ENDBRANCH   6   7
ENDBRANCH   4   6
ENDBRANCH   3   4
ENDBRANCH   2   3
TORSDOF 10
ENDMDL
MODEL       24
REMARK 921   NORMALIZED FREE ENERGY PREDICTED BY IDOCK:   -5.03 KCAL/MOL
REMARK 922        TOTAL FREE ENERGY PREDICTED BY IDOCK:   -9.37 KCAL/MOL
REMARK 923 INTER-LIGAND FREE ENERGY PREDICTED BY IDOCK:   -8.48 KCAL/MOL
REMARK 924 INTRA-LIGAND FREE ENERGY PREDICTED BY IDOCK:   -0.90 KCAL/MOL
REMARK 927      BINDING AFFINITY PREDICTED BY RF-SCORE:    0.00 PKD
ROOT
HETATM    1  C   UNL     1     -11.012  11.493  63.628  1.00  0.00    -0.482 C  
HETATM    2  C   UNL     1     -12.401  12.089  63.488  1.00  0.00    -0.551 C  
ENDROOT
BRANCH   2   3
HETATM    3  O   UNL     1     -12.833  12.502  64.791  1.00  0.00    -0.755 OA 
BRANCH   3   4
HETATM    4  C   UNL     1     -12.566  13.805  65.088  1.00  0.00    -0.433 C  
HETATM    5  O   UNL     1     -12.623  14.735  64.297  1.00  0.00    -0.706 OA 
BRANCH   4   6
HETATM    6  C   UNL     1     -12.284  13.929  66.563  1.00  0.00    -0.482 C  
BRANCH   6   7
HETATM    7  C   UNL     1     -11.816  12.594  67.131  1.00  0.00    -0.399 C  
BRANCH   7   8
HETATM    8  C   UNL     1     -11.802  12.597  68.655  1.00  0.00    -0.342 C  
BRANCH   8   9
HETATM    9  C   UNL     1     -11.824  11.163  69.181  1.00  0.00    -0.419 C  
BRANCH   9  10
HETATM   10  C   UNL     1     -12.281  11.113  70.633  1.00  0.00    -0.492 C  
BRANCH  10  11
HETATM   11  C   UNL     1     -13.225   9.935  70.873  1.00  0.00    -0.309 C  
BRANCH  11  12
HETATM   12  C   UNL     1     -12.786   9.148  72.103  1.00  0.00    -0.486 C  
BRANCH  12  13
HETATM   13  C   UNL     1     -12.373   7.716  71.753  1.00  0.00    -0.349 C  
HETATM   14  C   UNL     1     -10.840   7.533  71.750  1.00  0.00    -0.261 C  
HETATM   15  C   UNL     1     -10.468   6.148  71.224  1.00  0.00    -0.274 A  
HETATM   16  C   UNL     1     -10.226   7.833  73.129  1.00  0.00    -0.398 C  
HETATM   17  C   UNL     1     -10.386   5.063  72.122  1.00  0.00    -0.276 A  
HETATM   18  C   UNL     1     -10.005   3.788  71.700  1.00  0.00    -0.211 A  
HETATM   19  C   UNL     1      -9.716   3.557  70.362  1.00  0.00    -0.176 A  
HETATM   20  C   UNL     1      -9.828   4.597  69.445  1.00  0.00    -0.272 A  
HETATM   21  C   UNL     1     -10.206   5.881  69.864  1.00  0.00    -0.218 A  
HETATM   22  I   UNL     1     -10.361   7.325  68.334  1.00  0.00    -0.187 I  
ENDBRANCH  12  13
ENDBRANCH  11  12
ENDBRANCH  10  11
ENDBRANCH   9  10
ENDBRANCH   8   9
ENDBRANCH   7   8
ENDBRANCH   6   7
ENDBRANCH   4   6
ENDBRANCH   3   4
ENDBRANCH   2   3
TORSDOF 10
ENDMDL
MODEL       25
REMARK 921   NORMALIZED FREE ENERGY PREDICTED BY IDOCK:   -5.02 KCAL/MOL
REMARK 922        TOTAL FREE ENERGY PREDICTED BY IDOCK:   -9.35 KCAL/MOL
REMARK 923 INTER-LIGAND FREE ENERGY PREDICTED BY IDOCK:   -7.62 KCAL/MOL
REMARK 924 INTRA-LIGAND FREE ENERGY PREDICTED BY IDOCK:   -1.73 KCAL/MOL
REMARK 927      BINDING AFFINITY PREDICTED BY RF-SCORE:    0.00 PKD
ROOT
HETATM    1  C   UNL     1     -10.038  10.684  64.508  1.00  0.00    -0.421 C  
HETATM    2  C   UNL     1     -10.373  11.631  63.372  1.00  0.00    -0.435 C  
ENDROOT
BRANCH   2   3
HETATM    3  O   UNL     1     -10.935  12.819  63.944  1.00  0.00    -0.381 OA 
BRANCH   3   4
HETATM    4  C   UNL     1     -12.279  12.761  64.162  1.00  0.00    -0.429 C  
HETATM    5  O   UNL     1     -13.063  12.052  63.548  1.00  0.00    -0.764 OA 
BRANCH   4   6
HETATM    6  C   UNL     1     -12.628  13.634  65.339  1.00  0.00    -0.533 C  
BRANCH   6   7
HETATM    7  C   UNL     1     -11.482  13.661  66.343  1.00  0.00    -0.358 C  
BRANCH   7   8
HETATM    8  C   UNL     1     -11.702  12.678  67.486  1.00  0.00    -0.429 C  
BRANCH   8   9
HETATM    9  C   UNL     1     -10.397  12.461  68.249  1.00  0.00    -0.232 C  
BRANCH   9  10
HETATM   10  C   UNL     1      -9.189  12.803  67.388  1.00  0.00    -0.193 C  
BRANCH  10  11
HETATM   11  C   UNL     1      -7.981  13.167  68.251  1.00  0.00    -0.148 C  
BRANCH  11  12
HETATM   12  C   UNL     1      -7.078  14.147  67.510  1.00  0.00    -0.184 C  
BRANCH  12  13
HETATM   13  C   UNL     1      -7.845  15.374  67.011  1.00  0.00    -0.244 C  
HETATM   14  C   UNL     1      -7.780  16.551  68.008  1.00  0.00    -0.163 C  
HETATM   15  C   UNL     1      -8.701  17.685  67.559  1.00  0.00    -0.234 A  
HETATM   16  C   UNL     1      -6.333  17.017  68.246  1.00  0.00    -0.143 C  
HETATM   17  C   UNL     1      -8.208  18.673  66.681  1.00  0.00    -0.289 A  
HETATM   18  C   UNL     1      -8.995  19.754  66.278  1.00  0.00    -0.431 A  
HETATM   19  C   UNL     1     -10.305  19.865  66.725  1.00  0.00    -0.599 A  
HETATM   20  C   UNL     1     -10.832  18.883  67.559  1.00  0.00    -0.440 A  
HETATM   21  C   UNL     1     -10.045  17.797  67.971  1.00  0.00    -0.355 A  
HETATM   22  I   UNL     1     -11.018  16.389  69.202  1.00  0.00    -0.214 I  
ENDBRANCH  12  13
ENDBRANCH  11  12
ENDBRANCH  10  11
ENDBRANCH   9  10
ENDBRANCH   8   9
ENDBRANCH   7   8
ENDBRANCH   6   7
ENDBRANCH   4   6
ENDBRANCH   3   4
ENDBRANCH   2   3
TORSDOF 10
ENDMDL
MODEL       26
REMARK 921   NORMALIZED FREE ENERGY PREDICTED BY IDOCK:   -5.01 KCAL/MOL
REMARK 922        TOTAL FREE ENERGY PREDICTED BY IDOCK:   -9.33 KCAL/MOL
REMARK 923 INTER-LIGAND FREE ENERGY PREDICTED BY IDOCK:   -8.10 KCAL/MOL
REMARK 924 INTRA-LIGAND FREE ENERGY PREDICTED BY IDOCK:   -1.23 KCAL/MOL
REMARK 927      BINDING AFFINITY PREDICTED BY RF-SCORE:    0.00 PKD
ROOT
HETATM    1  C   UNL     1      -5.740  20.537  68.466  1.00  0.00    -0.336 C  
HETATM    2  C   UNL     1      -7.033  19.751  68.589  1.00  0.00    -0.328 C  
ENDROOT
BRANCH   2   3
HETATM    3  O   UNL     1      -6.815  18.458  68.012  1.00  0.00    -0.210 OA 
BRANCH   3   4
HETATM    4  C   UNL     1      -7.807  17.555  68.257  1.00  0.00    -0.253 C  
HETATM    5  O   UNL     1      -7.777  16.692  69.121  1.00  0.00    -0.241 OA 
BRANCH   4   6
HETATM    6  C   UNL     1      -8.980  17.853  67.358  1.00  0.00    -0.245 C  
BRANCH   6   7
HETATM    7  C   UNL     1      -9.082  16.810  66.251  1.00  0.00    -0.320 C  
BRANCH   7   8
HETATM    8  C   UNL     1     -10.529  16.425  65.963  1.00  0.00    -0.333 C  
BRANCH   8   9
HETATM    9  C   UNL     1     -10.575  15.130  65.155  1.00  0.00    -0.447 C  
BRANCH   9  10
HETATM   10  C   UNL     1     -11.913  14.422  65.318  1.00  0.00    -0.382 C  
BRANCH  10  11
HETATM   11  C   UNL     1     -11.732  12.905  65.356  1.00  0.00    -0.413 C  
BRANCH  11  12
HETATM   12  C   UNL     1     -11.256  12.463  66.736  1.00  0.00    -0.363 C  
BRANCH  12  13
HETATM   13  C   UNL     1     -12.137  13.023  67.855  1.00  0.00    -0.234 C  
HETATM   14  C   UNL     1     -11.335  13.314  69.141  1.00  0.00    -0.336 C  
HETATM   15  C   UNL     1     -12.274  13.699  70.283  1.00  0.00    -0.423 A  
HETATM   16  C   UNL     1     -10.229  14.358  68.900  1.00  0.00    -0.215 C  
HETATM   17  C   UNL     1     -12.641  15.050  70.455  1.00  0.00    -0.399 A  
HETATM   18  C   UNL     1     -13.460  15.460  71.509  1.00  0.00    -0.601 A  
HETATM   19  C   UNL     1     -13.952  14.525  72.410  1.00  0.00    -0.580 A  
HETATM   20  C   UNL     1     -13.642  13.179  72.242  1.00  0.00    -0.677 A  
HETATM   21  C   UNL     1     -12.817  12.762  71.187  1.00  0.00    -0.226 A  
HETATM   22  I   UNL     1     -12.483  10.683  71.065  1.00  0.00    -0.533 I  
ENDBRANCH  12  13
ENDBRANCH  11  12
ENDBRANCH  10  11
ENDBRANCH   9  10
ENDBRANCH   8   9
ENDBRANCH   7   8
ENDBRANCH   6   7
ENDBRANCH   4   6
ENDBRANCH   3   4
ENDBRANCH   2   3
TORSDOF 10
ENDMDL
MODEL       27
REMARK 921   NORMALIZED FREE ENERGY PREDICTED BY IDOCK:   -4.97 KCAL/MOL
REMARK 922        TOTAL FREE ENERGY PREDICTED BY IDOCK:   -9.28 KCAL/MOL
REMARK 923 INTER-LIGAND FREE ENERGY PREDICTED BY IDOCK:   -7.98 KCAL/MOL
REMARK 924 INTRA-LIGAND FREE ENERGY PREDICTED BY IDOCK:   -1.30 KCAL/MOL
REMARK 927      BINDING AFFINITY PREDICTED BY RF-SCORE:    0.00 PKD
ROOT
HETATM    1  C   UNL     1      -9.806  10.710  64.829  1.00  0.00    -0.372 C  
HETATM    2  C   UNL     1     -10.342  11.147  63.478  1.00  0.00    -0.387 C  
ENDROOT
BRANCH   2   3
HETATM    3  O   UNL     1     -10.677  12.537  63.570  1.00  0.00    -0.435 OA 
BRANCH   3   4
HETATM    4  C   UNL     1     -12.014  12.795  63.618  1.00  0.00    -0.539 C  
HETATM    5  O   UNL     1     -12.897  11.995  63.344  1.00  0.00    -0.760 OA 
BRANCH   4   6
HETATM    6  C   UNL     1     -12.232  14.187  64.151  1.00  0.00    -0.423 C  
BRANCH   6   7
HETATM    7  C   UNL     1     -12.191  14.188  65.675  1.00  0.00    -0.449 C  
BRANCH   7   8
HETATM    8  C   UNL     1     -11.049  15.041  66.215  1.00  0.00    -0.334 C  
BRANCH   8   9
HETATM    9  C   UNL     1      -9.875  14.150  66.614  1.00  0.00    -0.289 C  
BRANCH   9  10
HETATM   10  C   UNL     1      -9.907  13.824  68.101  1.00  0.00    -0.239 C  
BRANCH  10  11
HETATM   11  C   UNL     1     -10.040  12.319  68.333  1.00  0.00    -0.215 C  
BRANCH  11  12
HETATM   12  C   UNL     1     -11.510  11.910  68.318  1.00  0.00    -0.372 C  
BRANCH  12  13
HETATM   13  C   UNL     1     -11.727  10.521  68.923  1.00  0.00    -0.217 C  
HETATM   14  C   UNL     1     -11.568  10.519  70.458  1.00  0.00    -0.441 C  
HETATM   15  C   UNL     1     -11.614   9.091  70.999  1.00  0.00    -0.360 A  
HETATM   16  C   UNL     1     -12.588  11.449  71.139  1.00  0.00    -0.490 C  
HETATM   17  C   UNL     1     -12.858   8.517  71.336  1.00  0.00    -0.277 A  
HETATM   18  C   UNL     1     -12.951   7.233  71.877  1.00  0.00    -0.291 A  
HETATM   19  C   UNL     1     -11.803   6.479  72.077  1.00  0.00    -0.374 A  
HETATM   20  C   UNL     1     -10.565   7.002  71.715  1.00  0.00    -0.234 A  
HETATM   21  C   UNL     1     -10.465   8.293  71.175  1.00  0.00    -0.209 A  
HETATM   22  I   UNL     1      -8.517   8.908  70.651  1.00  0.00    -0.272 I  
ENDBRANCH  12  13
ENDBRANCH  11  12
ENDBRANCH  10  11
ENDBRANCH   9  10
ENDBRANCH   8   9
ENDBRANCH   7   8
ENDBRANCH   6   7
ENDBRANCH   4   6
ENDBRANCH   3   4
ENDBRANCH   2   3
TORSDOF 10
ENDMDL
MODEL       28
REMARK 921   NORMALIZED FREE ENERGY PREDICTED BY IDOCK:   -4.97 KCAL/MOL
REMARK 922        TOTAL FREE ENERGY PREDICTED BY IDOCK:   -9.28 KCAL/MOL
REMARK 923 INTER-LIGAND FREE ENERGY PREDICTED BY IDOCK:   -7.97 KCAL/MOL
REMARK 924 INTRA-LIGAND FREE ENERGY PREDICTED BY IDOCK:   -1.31 KCAL/MOL
REMARK 927      BINDING AFFINITY PREDICTED BY RF-SCORE:    0.00 PKD
ROOT
HETATM    1  C   UNL     1      -9.355  11.014  64.583  1.00  0.00    -0.235 C  
HETATM    2  C   UNL     1     -10.215  11.146  63.340  1.00  0.00    -0.380 C  
ENDROOT
BRANCH   2   3
HETATM    3  O   UNL     1     -10.929  12.385  63.432  1.00  0.00    -0.456 OA 
BRANCH   3   4
HETATM    4  C   UNL     1     -12.214  12.265  63.870  1.00  0.00    -0.515 C  
HETATM    5  O   UNL     1     -13.124  11.734  63.251  1.00  0.00    -0.598 OA 
BRANCH   4   6
HETATM    6  C   UNL     1     -12.311  12.805  65.274  1.00  0.00    -0.546 C  
BRANCH   6   7
HETATM    7  C   UNL     1     -12.466  14.322  65.253  1.00  0.00    -0.428 C  
BRANCH   7   8
HETATM    8  C   UNL     1     -11.403  15.015  66.097  1.00  0.00    -0.270 C  
BRANCH   8   9
HETATM    9  C   UNL     1     -10.473  13.977  66.723  1.00  0.00    -0.277 C  
BRANCH   9  10
HETATM   10  C   UNL     1     -10.432  14.113  68.239  1.00  0.00    -0.249 C  
BRANCH  10  11
HETATM   11  C   UNL     1     -11.812  13.875  68.851  1.00  0.00    -0.393 C  
BRANCH  11  12
HETATM   12  C   UNL     1     -12.150  12.388  68.832  1.00  0.00    -0.171 C  
BRANCH  12  13
HETATM   13  C   UNL     1     -11.429  11.619  69.942  1.00  0.00    -0.308 C  
HETATM   14  C   UNL     1     -11.322  10.110  69.635  1.00  0.00    -0.289 C  
HETATM   15  C   UNL     1     -10.761   9.357  70.840  1.00  0.00    -0.393 A  
HETATM   16  C   UNL     1     -10.529   9.845  68.343  1.00  0.00    -0.239 C  
HETATM   17  C   UNL     1      -9.364   9.215  70.980  1.00  0.00    -0.333 A  
HETATM   18  C   UNL     1      -8.803   8.497  72.038  1.00  0.00    -0.286 A  
HETATM   19  C   UNL     1      -9.623   7.919  72.998  1.00  0.00    -0.341 A  
HETATM   20  C   UNL     1     -11.002   8.077  72.909  1.00  0.00    -0.398 A  
HETATM   21  C   UNL     1     -11.573   8.794  71.847  1.00  0.00    -0.361 A  
HETATM   22  I   UNL     1     -13.674   8.964  71.893  1.00  0.00    -0.499 I  
ENDBRANCH  12  13
ENDBRANCH  11  12
ENDBRANCH  10  11
ENDBRANCH   9  10
ENDBRANCH   8   9
ENDBRANCH   7   8
ENDBRANCH   6   7
ENDBRANCH   4   6
ENDBRANCH   3   4
ENDBRANCH   2   3
TORSDOF 10
ENDMDL
MODEL       29
REMARK 921   NORMALIZED FREE ENERGY PREDICTED BY IDOCK:   -4.92 KCAL/MOL
REMARK 922        TOTAL FREE ENERGY PREDICTED BY IDOCK:   -9.19 KCAL/MOL
REMARK 923 INTER-LIGAND FREE ENERGY PREDICTED BY IDOCK:   -8.38 KCAL/MOL
REMARK 924 INTRA-LIGAND FREE ENERGY PREDICTED BY IDOCK:   -0.81 KCAL/MOL
REMARK 927      BINDING AFFINITY PREDICTED BY RF-SCORE:    0.00 PKD
ROOT
HETATM    1  C   UNL     1     -11.123  11.601  63.619  1.00  0.00    -0.506 C  
HETATM    2  C   UNL     1     -12.590  11.975  63.505  1.00  0.00    -0.507 C  
ENDROOT
BRANCH   2   3
HETATM    3  O   UNL     1     -12.986  12.573  64.746  1.00  0.00    -0.827 OA 
BRANCH   3   4
HETATM    4  C   UNL     1     -12.616  13.877  64.889  1.00  0.00    -0.347 C  
HETATM    5  O   UNL     1     -12.576  14.702  63.987  1.00  0.00    -0.819 OA 
BRANCH   4   6
HETATM    6  C   UNL     1     -12.360  14.162  66.346  1.00  0.00    -0.431 C  
BRANCH   6   7
HETATM    7  C   UNL     1     -11.124  13.411  66.828  1.00  0.00    -0.308 C  
BRANCH   7   8
HETATM    8  C   UNL     1     -11.432  12.515  68.022  1.00  0.00    -0.368 C  
BRANCH   8   9
HETATM    9  C   UNL     1     -11.659  13.367  69.270  1.00  0.00    -0.365 C  
BRANCH   9  10
HETATM   10  C   UNL     1     -12.220  12.534  70.414  1.00  0.00    -0.368 C  
BRANCH  10  11
HETATM   11  C   UNL     1     -12.320  11.059  70.025  1.00  0.00    -0.377 C  
BRANCH  11  12
HETATM   12  C   UNL     1     -11.965  10.173  71.215  1.00  0.00    -0.473 C  
BRANCH  12  13
HETATM   13  C   UNL     1     -11.141   8.952  70.798  1.00  0.00    -0.312 C  
HETATM   14  C   UNL     1     -11.540   7.682  71.578  1.00  0.00    -0.304 C  
HETATM   15  C   UNL     1     -10.579   6.536  71.264  1.00  0.00    -0.268 A  
HETATM   16  C   UNL     1     -13.014   7.307  71.342  1.00  0.00    -0.420 C  
HETATM   17  C   UNL     1     -10.843   5.692  70.165  1.00  0.00    -0.356 A  
HETATM   18  C   UNL     1     -10.021   4.604  69.862  1.00  0.00    -0.296 A  
HETATM   19  C   UNL     1      -8.901   4.342  70.639  1.00  0.00    -0.139 A  
HETATM   20  C   UNL     1      -8.592   5.182  71.705  1.00  0.00    -0.132 A  
HETATM   21  C   UNL     1      -9.415   6.274  72.016  1.00  0.00    -0.151 A  
HETATM   22  I   UNL     1      -8.775   7.459  73.638  1.00  0.00    -0.308 I  
ENDBRANCH  12  13
ENDBRANCH  11  12
ENDBRANCH  10  11
ENDBRANCH   9  10
ENDBRANCH   8   9
ENDBRANCH   7   8
ENDBRANCH   6   7
ENDBRANCH   4   6
ENDBRANCH   3   4
ENDBRANCH   2   3
TORSDOF 10
ENDMDL
MODEL       30
REMARK 921   NORMALIZED FREE ENERGY PREDICTED BY IDOCK:   -4.90 KCAL/MOL
REMARK 922        TOTAL FREE ENERGY PREDICTED BY IDOCK:   -9.17 KCAL/MOL
REMARK 923 INTER-LIGAND FREE ENERGY PREDICTED BY IDOCK:   -8.08 KCAL/MOL
REMARK 924 INTRA-LIGAND FREE ENERGY PREDICTED BY IDOCK:   -1.08 KCAL/MOL
REMARK 927      BINDING AFFINITY PREDICTED BY RF-SCORE:    0.00 PKD
ROOT
HETATM    1  C   UNL     1     -14.410   7.306  71.553  1.00  0.00    -0.558 C  
HETATM    2  C   UNL     1     -13.580   8.420  72.163  1.00  0.00    -0.323 C  
ENDROOT
BRANCH   2   3
HETATM    3  O   UNL     1     -12.423   8.605  71.338  1.00  0.00    -0.309 OA 
BRANCH   3   4
HETATM    4  C   UNL     1     -12.038   9.904  71.186  1.00  0.00    -0.374 C  
HETATM    5  O   UNL     1     -11.071  10.282  70.542  1.00  0.00    -0.302 OA 
BRANCH   4   6
HETATM    6  C   UNL     1     -13.047  10.801  71.856  1.00  0.00    -0.557 C  
BRANCH   6   7
HETATM    7  C   UNL     1     -12.675  12.266  71.658  1.00  0.00    -0.309 C  
BRANCH   7   8
HETATM    8  C   UNL     1     -13.712  13.204  72.264  1.00  0.00    -0.647 C  
BRANCH   8   9
HETATM    9  C   UNL     1     -13.054  14.526  72.657  1.00  0.00    -0.557 C  
BRANCH   9  10
HETATM   10  C   UNL     1     -13.137  15.543  71.527  1.00  0.00    -0.573 C  
BRANCH  10  11
HETATM   11  C   UNL     1     -11.786  15.704  70.831  1.00  0.00    -0.428 C  
BRANCH  11  12
HETATM   12  C   UNL     1     -11.963  15.658  69.316  1.00  0.00    -0.338 C  
BRANCH  12  13
HETATM   13  C   UNL     1     -11.689  14.264  68.747  1.00  0.00    -0.378 C  
HETATM   14  C   UNL     1     -10.419  14.228  67.870  1.00  0.00    -0.240 C  
HETATM   15  C   UNL     1     -10.282  12.872  67.180  1.00  0.00    -0.239 A  
HETATM   16  C   UNL     1      -9.163  14.622  68.668  1.00  0.00    -0.194 C  
HETATM   17  C   UNL     1      -9.604  11.824  67.838  1.00  0.00    -0.187 A  
HETATM   18  C   UNL     1      -9.413  10.581  67.233  1.00  0.00    -0.179 A  
HETATM   19  C   UNL     1      -9.912  10.344  65.959  1.00  0.00    -0.301 A  
HETATM   20  C   UNL     1     -10.621  11.344  65.301  1.00  0.00    -0.336 A  
HETATM   21  C   UNL     1     -10.813  12.597  65.903  1.00  0.00    -0.270 A  
HETATM   22  I   UNL     1     -11.942  13.979  64.779  1.00  0.00    -0.486 I  
ENDBRANCH  12  13
ENDBRANCH  11  12
ENDBRANCH  10  11
ENDBRANCH   9  10
ENDBRANCH   8   9
ENDBRANCH   7   8
ENDBRANCH   6   7
ENDBRANCH   4   6
ENDBRANCH   3   4
ENDBRANCH   2   3
TORSDOF 10
ENDMDL
MODEL       31
REMARK 921   NORMALIZED FREE ENERGY PREDICTED BY IDOCK:   -4.90 KCAL/MOL
REMARK 922        TOTAL FREE ENERGY PREDICTED BY IDOCK:   -9.16 KCAL/MOL
REMARK 923 INTER-LIGAND FREE ENERGY PREDICTED BY IDOCK:   -8.00 KCAL/MOL
REMARK 924 INTRA-LIGAND FREE ENERGY PREDICTED BY IDOCK:   -1.15 KCAL/MOL
REMARK 927      BINDING AFFINITY PREDICTED BY RF-SCORE:    0.00 PKD
ROOT
HETATM    1  C   UNL     1     -10.906   6.517  66.840  1.00  0.00    -0.427 C  
HETATM    2  C   UNL     1     -10.508   7.818  67.511  1.00  0.00    -0.268 C  
ENDROOT
BRANCH   2   3
HETATM    3  O   UNL     1     -10.353   8.809  66.487  1.00  0.00    -0.279 OA 
BRANCH   3   4
HETATM    4  C   UNL     1      -9.289   9.643  66.664  1.00  0.00    -0.156 C  
HETATM    5  O   UNL     1      -8.357   9.445  67.430  1.00  0.00    -0.123 OA 
BRANCH   4   6
HETATM    6  C   UNL     1      -9.399  10.796  65.700  1.00  0.00    -0.241 C  
BRANCH   6   7
HETATM    7  C   UNL     1      -9.748  10.294  64.304  1.00  0.00    -0.373 C  
BRANCH   7   8
HETATM    8  C   UNL     1     -10.389  11.382  63.451  1.00  0.00    -0.458 C  
BRANCH   8   9
HETATM    9  C   UNL     1     -10.571  12.655  64.275  1.00  0.00    -0.408 C  
BRANCH   9  10
HETATM   10  C   UNL     1     -11.835  13.401  63.871  1.00  0.00    -0.492 C  
BRANCH  10  11
HETATM   11  C   UNL     1     -12.215  14.449  64.917  1.00  0.00    -0.440 C  
BRANCH  11  12
HETATM   12  C   UNL     1     -11.358  14.282  66.168  1.00  0.00    -0.342 C  
BRANCH  12  13
HETATM   13  C   UNL     1     -12.205  14.213  67.441  1.00  0.00    -0.278 C  
HETATM   14  C   UNL     1     -11.348  14.313  68.721  1.00  0.00    -0.303 C  
HETATM   15  C   UNL     1     -12.205  14.061  69.960  1.00  0.00    -0.414 A  
HETATM   16  C   UNL     1     -10.577  15.644  68.788  1.00  0.00    -0.238 C  
HETATM   17  C   UNL     1     -12.873  15.141  70.573  1.00  0.00    -0.395 A  
HETATM   18  C   UNL     1     -13.631  14.972  71.734  1.00  0.00    -0.524 A  
HETATM   19  C   UNL     1     -13.759  13.711  72.302  1.00  0.00    -0.687 A  
HETATM   20  C   UNL     1     -13.145  12.619  71.696  1.00  0.00    -0.421 A  
HETATM   21  C   UNL     1     -12.380  12.784  70.533  1.00  0.00    -0.275 A  
HETATM   22  I   UNL     1     -11.555  11.016  69.732  1.00  0.00    -0.461 I  
ENDBRANCH  12  13
ENDBRANCH  11  12
ENDBRANCH  10  11
ENDBRANCH   9  10
ENDBRANCH   8   9
ENDBRANCH   7   8
ENDBRANCH   6   7
ENDBRANCH   4   6
ENDBRANCH   3   4
ENDBRANCH   2   3
TORSDOF 10
ENDMDL
MODEL       32
REMARK 921   NORMALIZED FREE ENERGY PREDICTED BY IDOCK:   -4.89 KCAL/MOL
REMARK 922        TOTAL FREE ENERGY PREDICTED BY IDOCK:   -9.15 KCAL/MOL
REMARK 923 INTER-LIGAND FREE ENERGY PREDICTED BY IDOCK:   -7.81 KCAL/MOL
REMARK 924 INTRA-LIGAND FREE ENERGY PREDICTED BY IDOCK:   -1.34 KCAL/MOL
REMARK 927      BINDING AFFINITY PREDICTED BY RF-SCORE:    0.00 PKD
ROOT
HETATM    1  C   UNL     1     -10.935  15.553  64.878  1.00  0.00    -0.452 C  
HETATM    2  C   UNL     1     -12.098  14.580  64.940  1.00  0.00    -0.416 C  
ENDROOT
BRANCH   2   3
HETATM    3  O   UNL     1     -12.303  14.058  63.622  1.00  0.00    -0.728 OA 
BRANCH   3   4
HETATM    4  C   UNL     1     -12.356  12.698  63.554  1.00  0.00    -0.496 C  
HETATM    5  O   UNL     1     -13.381  12.031  63.550  1.00  0.00    -0.649 OA 
BRANCH   4   6
HETATM    6  C   UNL     1     -10.960  12.155  63.389  1.00  0.00    -0.480 C  
BRANCH   6   7
HETATM    7  C   UNL     1     -10.627  11.187  64.519  1.00  0.00    -0.397 C  
BRANCH   7   8
HETATM    8  C   UNL     1      -9.335  11.569  65.234  1.00  0.00    -0.155 C  
BRANCH   8   9
HETATM    9  C   UNL     1      -9.653  12.182  66.596  1.00  0.00    -0.226 C  
BRANCH   9  10
HETATM   10  C   UNL     1     -11.059  11.816  67.054  1.00  0.00    -0.358 C  
BRANCH  10  11
HETATM   11  C   UNL     1     -11.543  12.760  68.153  1.00  0.00    -0.380 C  
BRANCH  11  12
HETATM   12  C   UNL     1     -12.050  11.963  69.351  1.00  0.00    -0.277 C  
BRANCH  12  13
HETATM   13  C   UNL     1     -11.694  10.478  69.245  1.00  0.00    -0.281 C  
HETATM   14  C   UNL     1     -11.217   9.892  70.591  1.00  0.00    -0.416 C  
HETATM   15  C   UNL     1     -10.705   8.465  70.404  1.00  0.00    -0.244 A  
HETATM   16  C   UNL     1     -12.302   9.999  71.677  1.00  0.00    -0.486 C  
HETATM   17  C   UNL     1     -11.609   7.386  70.493  1.00  0.00    -0.256 A  
HETATM   18  C   UNL     1     -11.183   6.062  70.375  1.00  0.00    -0.380 A  
HETATM   19  C   UNL     1      -9.844   5.780  70.142  1.00  0.00    -0.240 A  
HETATM   20  C   UNL     1      -8.935   6.825  70.007  1.00  0.00    -0.141 A  
HETATM   21  C   UNL     1      -9.356   8.158  70.129  1.00  0.00    -0.159 A  
HETATM   22  I   UNL     1      -7.852   9.611  69.859  1.00  0.00    -0.194 I  
ENDBRANCH  12  13
ENDBRANCH  11  12
ENDBRANCH  10  11
ENDBRANCH   9  10
ENDBRANCH   8   9
ENDBRANCH   7   8
ENDBRANCH   6   7
ENDBRANCH   4   6
ENDBRANCH   3   4
ENDBRANCH   2   3
TORSDOF 10
ENDMDL
MODEL       33
REMARK 921   NORMALIZED FREE ENERGY PREDICTED BY IDOCK:   -4.89 KCAL/MOL
REMARK 922        TOTAL FREE ENERGY PREDICTED BY IDOCK:   -9.14 KCAL/MOL
REMARK 923 INTER-LIGAND FREE ENERGY PREDICTED BY IDOCK:   -7.95 KCAL/MOL
REMARK 924 INTRA-LIGAND FREE ENERGY PREDICTED BY IDOCK:   -1.19 KCAL/MOL
REMARK 927      BINDING AFFINITY PREDICTED BY RF-SCORE:    0.00 PKD
ROOT
HETATM    1  C   UNL     1     -11.972  11.940  64.032  1.00  0.00    -0.455 C  
HETATM    2  C   UNL     1     -12.023  13.296  63.353  1.00  0.00    -0.427 C  
ENDROOT
BRANCH   2   3
HETATM    3  O   UNL     1     -12.549  14.238  64.297  1.00  0.00    -0.678 OA 
BRANCH   3   4
HETATM    4  C   UNL     1     -11.753  15.323  64.516  1.00  0.00    -0.305 C  
HETATM    5  O   UNL     1     -11.777  16.358  63.865  1.00  0.00    -1.085 OA 
BRANCH   4   6
HETATM    6  C   UNL     1     -10.911  15.081  65.742  1.00  0.00    -0.351 C  
BRANCH   6   7
HETATM    7  C   UNL     1     -11.715  14.341  66.804  1.00  0.00    -0.424 C  
BRANCH   7   8
HETATM    8  C   UNL     1     -10.841  13.410  67.636  1.00  0.00    -0.273 C  
BRANCH   8   9
HETATM    9  C   UNL     1     -11.694  12.308  68.259  1.00  0.00    -0.392 C  
BRANCH   9  10
HETATM   10  C   UNL     1     -11.322  10.939  67.706  1.00  0.00    -0.366 C  
BRANCH  10  11
HETATM   11  C   UNL     1      -9.807  10.793  67.571  1.00  0.00    -0.197 C  
BRANCH  11  12
HETATM   12  C   UNL     1      -9.454   9.404  67.049  1.00  0.00    -0.200 C  
BRANCH  12  13
HETATM   13  C   UNL     1      -9.305   8.384  68.180  1.00  0.00    -0.141 C  
HETATM   14  C   UNL     1     -10.579   7.535  68.376  1.00  0.00    -0.177 C  
HETATM   15  C   UNL     1     -10.453   6.660  69.622  1.00  0.00    -0.249 A  
HETATM   16  C   UNL     1     -10.927   6.728  67.112  1.00  0.00    -0.458 C  
HETATM   17  C   UNL     1      -9.869   5.380  69.515  1.00  0.00    -0.264 A  
HETATM   18  C   UNL     1      -9.772   4.524  70.614  1.00  0.00    -0.282 A  
HETATM   19  C   UNL     1     -10.239   4.932  71.856  1.00  0.00    -0.267 A  
HETATM   20  C   UNL     1     -10.782   6.205  72.001  1.00  0.00    -0.276 A  
HETATM   21  C   UNL     1     -10.886   7.068  70.900  1.00  0.00    -0.241 A  
HETATM   22  I   UNL     1     -11.700   8.969  71.312  1.00  0.00    -0.440 I  
ENDBRANCH  12  13
ENDBRANCH  11  12
ENDBRANCH  10  11
ENDBRANCH   9  10
ENDBRANCH   8   9
ENDBRANCH   7   8
ENDBRANCH   6   7
ENDBRANCH   4   6
ENDBRANCH   3   4
ENDBRANCH   2   3
TORSDOF 10
ENDMDL
MODEL       34
REMARK 921   NORMALIZED FREE ENERGY PREDICTED BY IDOCK:   -4.87 KCAL/MOL
REMARK 922        TOTAL FREE ENERGY PREDICTED BY IDOCK:   -9.12 KCAL/MOL
REMARK 923 INTER-LIGAND FREE ENERGY PREDICTED BY IDOCK:   -7.36 KCAL/MOL
REMARK 924 INTRA-LIGAND FREE ENERGY PREDICTED BY IDOCK:   -1.76 KCAL/MOL
REMARK 927      BINDING AFFINITY PREDICTED BY RF-SCORE:    0.00 PKD
ROOT
HETATM    1  C   UNL     1     -12.968  15.230  70.634  1.00  0.00    -0.442 C  
HETATM    2  C   UNL     1     -11.543  15.721  70.455  1.00  0.00    -0.375 C  
ENDROOT
BRANCH   2   3
HETATM    3  O   UNL     1     -10.961  14.988  69.370  1.00  0.00    -0.244 OA 
BRANCH   3   4
HETATM    4  C   UNL     1     -11.119  15.567  68.146  1.00  0.00    -0.325 C  
HETATM    5  O   UNL     1     -10.851  16.729  67.876  1.00  0.00    -0.348 OA 
BRANCH   4   6
HETATM    6  C   UNL     1     -11.585  14.526  67.162  1.00  0.00    -0.406 C  
BRANCH   6   7
HETATM    7  C   UNL     1     -10.648  14.468  65.962  1.00  0.00    -0.311 C  
BRANCH   7   8
HETATM    8  C   UNL     1     -11.354  13.961  64.710  1.00  0.00    -0.365 C  
BRANCH   8   9
HETATM    9  C   UNL     1     -10.522  12.866  64.046  1.00  0.00    -0.395 C  
BRANCH   9  10
HETATM   10  C   UNL     1     -11.177  11.500  64.203  1.00  0.00    -0.393 C  
BRANCH  10  11
HETATM   11  C   UNL     1     -10.143  10.430  64.552  1.00  0.00    -0.365 C  
BRANCH  11  12
HETATM   12  C   UNL     1      -9.534  10.711  65.922  1.00  0.00    -0.239 C  
BRANCH  12  13
HETATM   13  C   UNL     1     -10.580  10.665  67.039  1.00  0.00    -0.317 C  
HETATM   14  C   UNL     1      -9.954  10.857  68.437  1.00  0.00    -0.188 C  
HETATM   15  C   UNL     1     -10.999  10.626  69.527  1.00  0.00    -0.321 A  
HETATM   16  C   UNL     1      -9.249  12.219  68.564  1.00  0.00    -0.089 C  
HETATM   17  C   UNL     1     -11.795  11.705  69.965  1.00  0.00    -0.435 A  
HETATM   18  C   UNL     1     -12.732  11.556  70.990  1.00  0.00    -0.426 A  
HETATM   19  C   UNL     1     -12.913  10.319  71.592  1.00  0.00    -0.570 A  
HETATM   20  C   UNL     1     -12.171   9.226  71.153  1.00  0.00    -0.373 A  
HETATM   21  C   UNL     1     -11.226   9.369  70.127  1.00  0.00    -0.219 A  
HETATM   22  I   UNL     1     -10.222   7.602  69.565  1.00  0.00    -0.218 I  
ENDBRANCH  12  13
ENDBRANCH  11  12
ENDBRANCH  10  11
ENDBRANCH   9  10
ENDBRANCH   8   9
ENDBRANCH   7   8
ENDBRANCH   6   7
ENDBRANCH   4   6
ENDBRANCH   3   4
ENDBRANCH   2   3
TORSDOF 10
ENDMDL
MODEL       35
REMARK 921   NORMALIZED FREE ENERGY PREDICTED BY IDOCK:   -4.87 KCAL/MOL
REMARK 922        TOTAL FREE ENERGY PREDICTED BY IDOCK:   -9.12 KCAL/MOL
REMARK 923 INTER-LIGAND FREE ENERGY PREDICTED BY IDOCK:   -8.27 KCAL/MOL
REMARK 924 INTRA-LIGAND FREE ENERGY PREDICTED BY IDOCK:   -0.85 KCAL/MOL
REMARK 927      BINDING AFFINITY PREDICTED BY RF-SCORE:    0.00 PKD
ROOT
HETATM    1  C   UNL     1      -7.899   7.578  62.408  1.00  0.00    -0.124 C  
HETATM    2  C   UNL     1      -8.161   9.008  62.842  1.00  0.00    -0.186 C  
ENDROOT
BRANCH   2   3
HETATM    3  O   UNL     1      -8.750   8.969  64.148  1.00  0.00    -0.181 OA 
BRANCH   3   4
HETATM    4  C   UNL     1      -9.335  10.136  64.540  1.00  0.00    -0.289 C  
HETATM    5  O   UNL     1      -9.242  10.632  65.653  1.00  0.00    -0.179 OA 
BRANCH   4   6
HETATM    6  C   UNL     1     -10.032  10.762  63.360  1.00  0.00    -0.385 C  
BRANCH   6   7
HETATM    7  C   UNL     1     -10.222  12.258  63.583  1.00  0.00    -0.430 C  
BRANCH   7   8
HETATM    8  C   UNL     1     -11.688  12.666  63.494  1.00  0.00    -0.604 C  
BRANCH   8   9
HETATM    9  C   UNL     1     -12.357  12.514  64.859  1.00  0.00    -0.539 C  
BRANCH   9  10
HETATM   10  C   UNL     1     -12.730  13.869  65.446  1.00  0.00    -0.525 C  
BRANCH  10  11
HETATM   11  C   UNL     1     -11.552  14.839  65.385  1.00  0.00    -0.316 C  
BRANCH  11  12
HETATM   12  C   UNL     1     -10.825  14.873  66.726  1.00  0.00    -0.320 C  
BRANCH  12  13
HETATM   13  C   UNL     1     -11.788  14.726  67.907  1.00  0.00    -0.327 C  
HETATM   14  C   UNL     1     -11.047  14.604  69.255  1.00  0.00    -0.290 C  
HETATM   15  C   UNL     1     -12.029  14.280  70.379  1.00  0.00    -0.402 A  
HETATM   16  C   UNL     1     -10.190  15.848  69.551  1.00  0.00    -0.279 C  
HETATM   17  C   UNL     1     -12.670  15.334  71.065  1.00  0.00    -0.487 A  
HETATM   18  C   UNL     1     -13.542  15.093  72.129  1.00  0.00    -0.558 A  
HETATM   19  C   UNL     1     -13.813  13.790  72.524  1.00  0.00    -0.626 A  
HETATM   20  C   UNL     1     -13.229  12.728  71.839  1.00  0.00    -0.511 A  
HETATM   21  C   UNL     1     -12.349  12.964  70.772  1.00  0.00    -0.299 A  
HETATM   22  I   UNL     1     -11.586  11.239  69.828  1.00  0.00    -0.410 I  
ENDBRANCH  12  13
ENDBRANCH  11  12
ENDBRANCH  10  11
ENDBRANCH   9  10
ENDBRANCH   8   9
ENDBRANCH   7   8
ENDBRANCH   6   7
ENDBRANCH   4   6
ENDBRANCH   3   4
ENDBRANCH   2   3
TORSDOF 10
ENDMDL
MODEL       36
REMARK 921   NORMALIZED FREE ENERGY PREDICTED BY IDOCK:   -4.86 KCAL/MOL
REMARK 922        TOTAL FREE ENERGY PREDICTED BY IDOCK:   -9.10 KCAL/MOL
REMARK 923 INTER-LIGAND FREE ENERGY PREDICTED BY IDOCK:   -7.80 KCAL/MOL
REMARK 924 INTRA-LIGAND FREE ENERGY PREDICTED BY IDOCK:   -1.30 KCAL/MOL
REMARK 927      BINDING AFFINITY PREDICTED BY RF-SCORE:    0.00 PKD
ROOT
HETATM    1  C   UNL     1     -12.654  12.439  64.444  1.00  0.00    -0.489 C  
HETATM    2  C   UNL     1     -11.490  12.493  63.471  1.00  0.00    -0.496 C  
ENDROOT
BRANCH   2   3
HETATM    3  O   UNL     1     -10.322  12.032  64.161  1.00  0.00    -0.297 OA 
BRANCH   3   4
HETATM    4  C   UNL     1      -9.932  10.769  63.831  1.00  0.00    -0.343 C  
HETATM    5  O   UNL     1      -9.748  10.361  62.694  1.00  0.00    -0.298 OA 
BRANCH   4   6
HETATM    6  C   UNL     1      -9.672   9.986  65.093  1.00  0.00    -0.380 C  
BRANCH   6   7
HETATM    7  C   UNL     1      -9.828  10.880  66.318  1.00  0.00    -0.261 C  
BRANCH   7   8
HETATM    8  C   UNL     1     -10.934  10.389  67.244  1.00  0.00    -0.306 C  
BRANCH   8   9
HETATM    9  C   UNL     1     -10.788  11.033  68.621  1.00  0.00    -0.256 C  
BRANCH   9  10
HETATM   10  C   UNL     1     -11.952  11.967  68.922  1.00  0.00    -0.303 C  
BRANCH  10  11
HETATM   11  C   UNL     1     -11.490  13.423  68.984  1.00  0.00    -0.348 C  
BRANCH  11  12
HETATM   12  C   UNL     1     -11.590  14.068  67.605  1.00  0.00    -0.385 C  
BRANCH  12  13
HETATM   13  C   UNL     1     -11.269  15.564  67.645  1.00  0.00    -0.291 C  
HETATM   14  C   UNL     1     -10.210  15.963  66.595  1.00  0.00    -0.293 C  
HETATM   15  C   UNL     1      -9.788  17.419  66.787  1.00  0.00    -0.297 A  
HETATM   16  C   UNL     1     -10.685  15.663  65.163  1.00  0.00    -0.463 C  
HETATM   17  C   UNL     1     -10.512  18.442  66.140  1.00  0.00    -0.422 A  
HETATM   18  C   UNL     1     -10.140  19.784  66.247  1.00  0.00    -0.601 A  
HETATM   19  C   UNL     1      -9.045  20.142  67.020  1.00  0.00    -0.481 A  
HETATM   20  C   UNL     1      -8.335  19.159  67.704  1.00  0.00    -0.321 A  
HETATM   21  C   UNL     1      -8.702  17.809  67.598  1.00  0.00    -0.244 A  
HETATM   22  I   UNL     1      -7.539  16.463  68.730  1.00  0.00    -0.223 I  
ENDBRANCH  12  13
ENDBRANCH  11  12
ENDBRANCH  10  11
ENDBRANCH   9  10
ENDBRANCH   8   9
ENDBRANCH   7   8
ENDBRANCH   6   7
ENDBRANCH   4   6
ENDBRANCH   3   4
ENDBRANCH   2   3
TORSDOF 10
ENDMDL
MODEL       37
REMARK 921   NORMALIZED FREE ENERGY PREDICTED BY IDOCK:   -4.84 KCAL/MOL
REMARK 922        TOTAL FREE ENERGY PREDICTED BY IDOCK:   -9.07 KCAL/MOL
REMARK 923 INTER-LIGAND FREE ENERGY PREDICTED BY IDOCK:   -7.73 KCAL/MOL
REMARK 924 INTRA-LIGAND FREE ENERGY PREDICTED BY IDOCK:   -1.34 KCAL/MOL
REMARK 927      BINDING AFFINITY PREDICTED BY RF-SCORE:    0.00 PKD
ROOT
HETATM    1  C   UNL     1     -10.202  10.881  64.809  1.00  0.00    -0.398 C  
HETATM    2  C   UNL     1     -10.773  11.710  63.672  1.00  0.00    -0.435 C  
ENDROOT
BRANCH   2   3
HETATM    3  O   UNL     1     -11.210  12.960  64.220  1.00  0.00    -0.329 OA 
BRANCH   3   4
HETATM    4  C   UNL     1     -12.486  12.951  64.699  1.00  0.00    -0.434 C  
HETATM    5  O   UNL     1     -13.400  12.269  64.260  1.00  0.00    -0.777 OA 
BRANCH   4   6
HETATM    6  C   UNL     1     -12.565  13.842  65.912  1.00  0.00    -0.494 C  
BRANCH   6   7
HETATM    7  C   UNL     1     -11.178  14.339  66.301  1.00  0.00    -0.337 C  
BRANCH   7   8
HETATM    8  C   UNL     1     -10.730  13.783  67.648  1.00  0.00    -0.256 C  
BRANCH   8   9
HETATM    9  C   UNL     1     -11.934  13.617  68.572  1.00  0.00    -0.396 C  
BRANCH   9  10
HETATM   10  C   UNL     1     -11.849  12.319  69.365  1.00  0.00    -0.370 C  
BRANCH  10  11
HETATM   11  C   UNL     1     -12.339  12.517  70.799  1.00  0.00    -0.376 C  
BRANCH  11  12
HETATM   12  C   UNL     1     -12.576  11.167  71.468  1.00  0.00    -0.431 C  
BRANCH  12  13
HETATM   13  C   UNL     1     -12.255   9.997  70.534  1.00  0.00    -0.308 C  
HETATM   14  C   UNL     1     -11.016   9.201  70.996  1.00  0.00    -0.375 C  
HETATM   15  C   UNL     1     -10.626   8.161  69.948  1.00  0.00    -0.239 A  
HETATM   16  C   UNL     1     -11.219   8.592  72.395  1.00  0.00    -0.399 C  
HETATM   17  C   UNL     1     -11.209   6.877  69.993  1.00  0.00    -0.347 A  
HETATM   18  C   UNL     1     -10.852   5.877  69.086  1.00  0.00    -0.406 A  
HETATM   19  C   UNL     1      -9.917   6.140  68.094  1.00  0.00    -0.158 A  
HETATM   20  C   UNL     1      -9.355   7.410  67.998  1.00  0.00    -0.136 A  
HETATM   21  C   UNL     1      -9.707   8.417  68.909  1.00  0.00    -0.167 A  
HETATM   22  I   UNL     1      -8.786  10.288  68.591  1.00  0.00    -0.160 I  
ENDBRANCH  12  13
ENDBRANCH  11  12
ENDBRANCH  10  11
ENDBRANCH   9  10
ENDBRANCH   8   9
ENDBRANCH   7   8
ENDBRANCH   6   7
ENDBRANCH   4   6
ENDBRANCH   3   4
ENDBRANCH   2   3
TORSDOF 10
ENDMDL
MODEL       38
REMARK 921   NORMALIZED FREE ENERGY PREDICTED BY IDOCK:   -4.83 KCAL/MOL
REMARK 922        TOTAL FREE ENERGY PREDICTED BY IDOCK:   -9.06 KCAL/MOL
REMARK 923 INTER-LIGAND FREE ENERGY PREDICTED BY IDOCK:   -8.09 KCAL/MOL
REMARK 924 INTRA-LIGAND FREE ENERGY PREDICTED BY IDOCK:   -0.97 KCAL/MOL
REMARK 927      BINDING AFFINITY PREDICTED BY RF-SCORE:    0.00 PKD
ROOT
HETATM    1  C   UNL     1     -10.681  18.889  67.292  1.00  0.00    -0.523 C  
HETATM    2  C   UNL     1     -10.134  17.525  67.674  1.00  0.00    -0.328 C  
ENDROOT
BRANCH   2   3
HETATM    3  O   UNL     1     -11.160  16.828  68.392  1.00  0.00    -0.357 OA 
BRANCH   3   4
HETATM    4  C   UNL     1     -11.244  15.497  68.109  1.00  0.00    -0.343 C  
HETATM    5  O   UNL     1     -11.084  15.000  67.004  1.00  0.00    -0.324 OA 
BRANCH   4   6
HETATM    6  C   UNL     1     -11.468  14.732  69.388  1.00  0.00    -0.330 C  
BRANCH   6   7
HETATM    7  C   UNL     1     -11.926  15.671  70.498  1.00  0.00    -0.417 C  
BRANCH   7   8
HETATM    8  C   UNL     1     -13.249  15.226  71.111  1.00  0.00    -0.567 C  
BRANCH   8   9
HETATM    9  C   UNL     1     -12.997  14.508  72.435  1.00  0.00    -0.469 C  
BRANCH   9  10
HETATM   10  C   UNL     1     -13.637  13.126  72.446  1.00  0.00    -0.667 C  
BRANCH  10  11
HETATM   11  C   UNL     1     -12.922  12.180  71.482  1.00  0.00    -0.398 C  
BRANCH  11  12
HETATM   12  C   UNL     1     -13.055  10.737  71.960  1.00  0.00    -0.476 C  
BRANCH  12  13
HETATM   13  C   UNL     1     -12.753   9.732  70.847  1.00  0.00    -0.329 C  
HETATM   14  C   UNL     1     -11.248   9.401  70.749  1.00  0.00    -0.367 C  
HETATM   15  C   UNL     1     -10.968   8.539  69.519  1.00  0.00    -0.057 A  
HETATM   16  C   UNL     1     -10.716   8.775  72.050  1.00  0.00    -0.417 C  
HETATM   17  C   UNL     1     -11.057   7.135  69.621  1.00  0.00    -0.206 A  
HETATM   18  C   UNL     1     -10.767   6.301  68.539  1.00  0.00    -0.354 A  
HETATM   19  C   UNL     1     -10.399   6.849  67.318  1.00  0.00    -0.320 A  
HETATM   20  C   UNL     1     -10.343   8.232  67.175  1.00  0.00    -0.387 A  
HETATM   21  C   UNL     1     -10.630   9.075  68.259  1.00  0.00    -0.163 A  
HETATM   22  I   UNL     1     -10.532  11.142  67.852  1.00  0.00    -0.286 I  
ENDBRANCH  12  13
ENDBRANCH  11  12
ENDBRANCH  10  11
ENDBRANCH   9  10
ENDBRANCH   8   9
ENDBRANCH   7   8
ENDBRANCH   6   7
ENDBRANCH   4   6
ENDBRANCH   3   4
ENDBRANCH   2   3
TORSDOF 10
ENDMDL
MODEL       39
REMARK 921   NORMALIZED FREE ENERGY PREDICTED BY IDOCK:   -4.83 KCAL/MOL
REMARK 922        TOTAL FREE ENERGY PREDICTED BY IDOCK:   -9.05 KCAL/MOL
REMARK 923 INTER-LIGAND FREE ENERGY PREDICTED BY IDOCK:   -7.90 KCAL/MOL
REMARK 924 INTRA-LIGAND FREE ENERGY PREDICTED BY IDOCK:   -1.15 KCAL/MOL
REMARK 927      BINDING AFFINITY PREDICTED BY RF-SCORE:    0.00 PKD
ROOT
HETATM    1  C   UNL     1      -5.719  16.304  67.336  1.00  0.00    -0.168 C  
HETATM    2  C   UNL     1      -5.937  17.582  66.547  1.00  0.00    -0.205 C  
ENDROOT
BRANCH   2   3
HETATM    3  O   UNL     1      -5.674  18.686  67.422  1.00  0.00    -0.154 OA 
BRANCH   3   4
HETATM    4  C   UNL     1      -6.784  19.221  68.006  1.00  0.00    -0.240 C  
HETATM    5  O   UNL     1      -7.218  18.916  69.107  1.00  0.00    -0.306 OA 
BRANCH   4   6
HETATM    6  C   UNL     1      -7.331  20.311  67.121  1.00  0.00    -0.329 C  
BRANCH   6   7
HETATM    7  C   UNL     1      -8.596  19.839  66.412  1.00  0.00    -0.398 C  
BRANCH   7   8
HETATM    8  C   UNL     1      -9.857  20.246  67.165  1.00  0.00    -0.606 C  
BRANCH   8   9
HETATM    9  C   UNL     1     -10.785  19.042  67.319  1.00  0.00    -0.556 C  
BRANCH   9  10
HETATM   10  C   UNL     1     -10.076  17.745  66.953  1.00  0.00    -0.342 C  
BRANCH  10  11
HETATM   11  C   UNL     1     -10.065  16.772  68.131  1.00  0.00    -0.282 C  
BRANCH  11  12
HETATM   12  C   UNL     1      -9.573  15.401  67.680  1.00  0.00    -0.210 C  
BRANCH  12  13
HETATM   13  C   UNL     1     -10.037  14.285  68.619  1.00  0.00    -0.238 C  
HETATM   14  C   UNL     1     -11.549  14.004  68.493  1.00  0.00    -0.357 C  
HETATM   15  C   UNL     1     -12.002  13.016  69.567  1.00  0.00    -0.350 A  
HETATM   16  C   UNL     1     -11.931  13.556  67.071  1.00  0.00    -0.440 C  
HETATM   17  C   UNL     1     -11.936  11.631  69.308  1.00  0.00    -0.382 A  
HETATM   18  C   UNL     1     -12.379  10.689  70.239  1.00  0.00    -0.406 A  
HETATM   19  C   UNL     1     -12.883  11.106  71.464  1.00  0.00    -0.542 A  
HETATM   20  C   UNL     1     -12.922  12.464  71.764  1.00  0.00    -0.422 A  
HETATM   21  C   UNL     1     -12.481  13.415  70.833  1.00  0.00    -0.359 A  
HETATM   22  I   UNL     1     -12.579  15.422  71.471  1.00  0.00    -0.613 I  
ENDBRANCH  12  13
ENDBRANCH  11  12
ENDBRANCH  10  11
ENDBRANCH   9  10
ENDBRANCH   8   9
ENDBRANCH   7   8
ENDBRANCH   6   7
ENDBRANCH   4   6
ENDBRANCH   3   4
ENDBRANCH   2   3
TORSDOF 10
ENDMDL
MODEL       40
REMARK 921   NORMALIZED FREE ENERGY PREDICTED BY IDOCK:   -4.80 KCAL/MOL
REMARK 922        TOTAL FREE ENERGY PREDICTED BY IDOCK:   -9.00 KCAL/MOL
REMARK 923 INTER-LIGAND FREE ENERGY PREDICTED BY IDOCK:   -7.07 KCAL/MOL
REMARK 924 INTRA-LIGAND FREE ENERGY PREDICTED BY IDOCK:   -1.93 KCAL/MOL
REMARK 927      BINDING AFFINITY PREDICTED BY RF-SCORE:    0.00 PKD
ROOT
HETATM    1  C   UNL     1      -9.484  10.863  62.631  1.00  0.00    -0.324 C  
HETATM    2  C   UNL     1     -10.045  12.015  63.444  1.00  0.00    -0.408 C  
ENDROOT
BRANCH   2   3
HETATM    3  O   UNL     1     -11.101  11.497  64.264  1.00  0.00    -0.342 OA 
BRANCH   3   4
HETATM    4  C   UNL     1     -12.225  12.268  64.291  1.00  0.00    -0.425 C  
HETATM    5  O   UNL     1     -12.972  12.460  63.343  1.00  0.00    -0.723 OA 
BRANCH   4   6
HETATM    6  C   UNL     1     -12.450  12.766  65.695  1.00  0.00    -0.341 C  
BRANCH   6   7
HETATM    7  C   UNL     1     -12.302  14.282  65.755  1.00  0.00    -0.420 C  
BRANCH   7   8
HETATM    8  C   UNL     1     -10.933  14.702  66.276  1.00  0.00    -0.327 C  
BRANCH   8   9
HETATM    9  C   UNL     1     -11.092  15.610  67.494  1.00  0.00    -0.289 C  
BRANCH   9  10
HETATM   10  C   UNL     1     -10.762  14.869  68.783  1.00  0.00    -0.252 C  
BRANCH  10  11
HETATM   11  C   UNL     1     -12.028  14.563  69.582  1.00  0.00    -0.375 C  
BRANCH  11  12
HETATM   12  C   UNL     1     -12.050  13.094  69.995  1.00  0.00    -0.375 C  
BRANCH  12  13
HETATM   13  C   UNL     1     -11.645  12.167  68.847  1.00  0.00    -0.377 C  
HETATM   14  C   UNL     1     -10.551  11.161  69.265  1.00  0.00    -0.212 C  
HETATM   15  C   UNL     1     -10.051  10.379  68.051  1.00  0.00    -0.189 A  
HETATM   16  C   UNL     1     -11.023  10.247  70.410  1.00  0.00    -0.365 C  
HETATM   17  C   UNL     1     -10.708   9.189  67.673  1.00  0.00    -0.257 A  
HETATM   18  C   UNL     1     -10.263   8.414  66.600  1.00  0.00    -0.335 A  
HETATM   19  C   UNL     1      -9.160   8.819  65.862  1.00  0.00    -0.271 A  
HETATM   20  C   UNL     1      -8.516  10.010  66.184  1.00  0.00    -0.131 A  
HETATM   21  C   UNL     1      -8.956  10.791  67.263  1.00  0.00    -0.140 A  
HETATM   22  I   UNL     1      -7.887  12.580  67.584  1.00  0.00    -0.194 I  
ENDBRANCH  12  13
ENDBRANCH  11  12
ENDBRANCH  10  11
ENDBRANCH   9  10
ENDBRANCH   8   9
ENDBRANCH   7   8
ENDBRANCH   6   7
ENDBRANCH   4   6
ENDBRANCH   3   4
ENDBRANCH   2   3
TORSDOF 10
ENDMDL
MODEL       41
REMARK 921   NORMALIZED FREE ENERGY PREDICTED BY IDOCK:   -4.80 KCAL/MOL
REMARK 922        TOTAL FREE ENERGY PREDICTED BY IDOCK:   -9.00 KCAL/MOL
REMARK 923 INTER-LIGAND FREE ENERGY PREDICTED BY IDOCK:   -8.04 KCAL/MOL
REMARK 924 INTRA-LIGAND FREE ENERGY PREDICTED BY IDOCK:   -0.96 KCAL/MOL
REMARK 927      BINDING AFFINITY PREDICTED BY RF-SCORE:    0.00 PKD
ROOT
HETATM    1  C   UNL     1     -14.078  13.785  72.224  1.00  0.00    -0.627 C  
HETATM    2  C   UNL     1     -13.053  12.800  71.691  1.00  0.00    -0.331 C  
ENDROOT
BRANCH   2   3
HETATM    3  O   UNL     1     -13.410  11.497  72.169  1.00  0.00    -0.477 OA 
BRANCH   3   4
HETATM    4  C   UNL     1     -12.883  10.467  71.447  1.00  0.00    -0.452 C  
HETATM    5  O   UNL     1     -12.236  10.586  70.417  1.00  0.00    -0.290 OA 
BRANCH   4   6
HETATM    6  C   UNL     1     -13.143   9.172  72.172  1.00  0.00    -0.516 C  
BRANCH   6   7
HETATM    7  C   UNL     1     -11.903   8.286  72.144  1.00  0.00    -0.431 C  
BRANCH   7   8
HETATM    8  C   UNL     1     -11.965   7.252  71.026  1.00  0.00    -0.362 C  
BRANCH   8   9
HETATM    9  C   UNL     1     -10.792   7.447  70.068  1.00  0.00    -0.266 C  
BRANCH   9  10
HETATM   10  C   UNL     1     -10.956   6.602  68.812  1.00  0.00    -0.322 C  
BRANCH  10  11
HETATM   11  C   UNL     1     -10.669   7.422  67.555  1.00  0.00    -0.310 C  
BRANCH  11  12
HETATM   12  C   UNL     1     -10.300   8.853  67.930  1.00  0.00    -0.286 C  
BRANCH  12  13
HETATM   13  C   UNL     1     -11.025   9.882  67.058  1.00  0.00    -0.098 C  
HETATM   14  C   UNL     1     -10.045  10.811  66.311  1.00  0.00    -0.285 C  
HETATM   15  C   UNL     1     -10.804  11.930  65.599  1.00  0.00    -0.333 A  
HETATM   16  C   UNL     1      -9.119  10.023  65.367  1.00  0.00    -0.235 C  
HETATM   17  C   UNL     1     -11.279  11.720  64.287  1.00  0.00    -0.414 A  
HETATM   18  C   UNL     1     -11.938  12.725  63.577  1.00  0.00    -0.633 A  
HETATM   19  C   UNL     1     -12.160  13.962  64.167  1.00  0.00    -0.464 A  
HETATM   20  C   UNL     1     -11.740  14.185  65.475  1.00  0.00    -0.344 A  
HETATM   21  C   UNL     1     -11.074  13.180  66.192  1.00  0.00    -0.282 A  
HETATM   22  I   UNL     1     -10.543  13.680  68.171  1.00  0.00    -0.281 I  
ENDBRANCH  12  13
ENDBRANCH  11  12
ENDBRANCH  10  11
ENDBRANCH   9  10
ENDBRANCH   8   9
ENDBRANCH   7   8
ENDBRANCH   6   7
ENDBRANCH   4   6
ENDBRANCH   3   4
ENDBRANCH   2   3
TORSDOF 10
ENDMDL
MODEL       42
REMARK 921   NORMALIZED FREE ENERGY PREDICTED BY IDOCK:   -4.78 KCAL/MOL
REMARK 922        TOTAL FREE ENERGY PREDICTED BY IDOCK:   -8.97 KCAL/MOL
REMARK 923 INTER-LIGAND FREE ENERGY PREDICTED BY IDOCK:   -7.04 KCAL/MOL
REMARK 924 INTRA-LIGAND FREE ENERGY PREDICTED BY IDOCK:   -1.93 KCAL/MOL
REMARK 927      BINDING AFFINITY PREDICTED BY RF-SCORE:    0.00 PKD
ROOT
HETATM    1  C   UNL     1     -11.759   6.806  70.599  1.00  0.00    -0.440 C  
HETATM    2  C   UNL     1     -12.116   7.715  71.760  1.00  0.00    -0.305 C  
ENDROOT
BRANCH   2   3
HETATM    3  O   UNL     1     -11.350   8.919  71.625  1.00  0.00    -0.288 OA 
BRANCH   3   4
HETATM    4  C   UNL     1     -12.035   9.968  71.087  1.00  0.00    -0.392 C  
HETATM    5  O   UNL     1     -13.051  10.460  71.555  1.00  0.00    -0.390 OA 
BRANCH   4   6
HETATM    6  C   UNL     1     -11.289  10.482  69.883  1.00  0.00    -0.380 C  
BRANCH   6   7
HETATM    7  C   UNL     1      -9.881   9.900  69.838  1.00  0.00    -0.285 C  
BRANCH   7   8
HETATM    8  C   UNL     1      -9.410   9.656  68.409  1.00  0.00    -0.136 C  
BRANCH   8   9
HETATM    9  C   UNL     1     -10.570   9.853  67.435  1.00  0.00    -0.338 C  
BRANCH   9  10
HETATM   10  C   UNL     1     -10.136  10.645  66.209  1.00  0.00    -0.291 C  
BRANCH  10  11
HETATM   11  C   UNL     1      -8.897  11.489  66.509  1.00  0.00    -0.190 C  
BRANCH  11  12
HETATM   12  C   UNL     1      -9.281  12.958  66.652  1.00  0.00    -0.222 C  
BRANCH  12  13
HETATM   13  C   UNL     1      -9.804  13.283  68.054  1.00  0.00    -0.230 C  
HETATM   14  C   UNL     1     -11.138  14.059  68.016  1.00  0.00    -0.282 C  
HETATM   15  C   UNL     1     -11.531  14.517  69.419  1.00  0.00    -0.323 A  
HETATM   16  C   UNL     1     -12.248  13.253  67.318  1.00  0.00    -0.258 C  
HETATM   17  C   UNL     1     -12.293  13.660  70.241  1.00  0.00    -0.392 A  
HETATM   18  C   UNL     1     -12.717  14.049  71.513  1.00  0.00    -0.443 A  
HETATM   19  C   UNL     1     -12.371  15.299  72.008  1.00  0.00    -0.440 A  
HETATM   20  C   UNL     1     -11.584  16.150  71.238  1.00  0.00    -0.470 A  
HETATM   21  C   UNL     1     -11.159  15.767  69.958  1.00  0.00    -0.344 A  
HETATM   22  I   UNL     1      -9.945  17.165  68.949  1.00  0.00    -0.202 I  
ENDBRANCH  12  13
ENDBRANCH  11  12
ENDBRANCH  10  11
ENDBRANCH   9  10
ENDBRANCH   8   9
ENDBRANCH   7   8
ENDBRANCH   6   7
ENDBRANCH   4   6
ENDBRANCH   3   4
ENDBRANCH   2   3
TORSDOF 10
ENDMDL
MODEL       43
REMARK 921   NORMALIZED FREE ENERGY PREDICTED BY IDOCK:   -4.78 KCAL/MOL
REMARK 922        TOTAL FREE ENERGY PREDICTED BY IDOCK:   -8.97 KCAL/MOL
REMARK 923 INTER-LIGAND FREE ENERGY PREDICTED BY IDOCK:   -7.57 KCAL/MOL
REMARK 924 INTRA-LIGAND FREE ENERGY PREDICTED BY IDOCK:   -1.40 KCAL/MOL
REMARK 927      BINDING AFFINITY PREDICTED BY RF-SCORE:    0.00 PKD
ROOT
HETATM    1  C   UNL     1      -9.622  10.280  64.048  1.00  0.00    -0.365 C  
HETATM    2  C   UNL     1      -9.984  11.636  63.471  1.00  0.00    -0.405 C  
ENDROOT
BRANCH   2   3
HETATM    3  O   UNL     1     -11.403  11.663  63.275  1.00  0.00    -0.347 OA 
BRANCH   3   4
HETATM    4  C   UNL     1     -12.022  12.769  63.775  1.00  0.00    -0.510 C  
HETATM    5  O   UNL     1     -12.435  13.708  63.110  1.00  0.00    -0.786 OA 
BRANCH   4   6
HETATM    6  C   UNL     1     -12.201  12.606  65.263  1.00  0.00    -0.532 C  
BRANCH   6   7
HETATM    7  C   UNL     1     -12.428  13.960  65.925  1.00  0.00    -0.519 C  
BRANCH   7   8
HETATM    8  C   UNL     1     -11.120  14.603  66.373  1.00  0.00    -0.334 C  
BRANCH   8   9
HETATM    9  C   UNL     1     -11.093  14.728  67.895  1.00  0.00    -0.301 C  
BRANCH   9  10
HETATM   10  C   UNL     1     -10.659  13.424  68.550  1.00  0.00    -0.264 C  
BRANCH  10  11
HETATM   11  C   UNL     1      -9.347  12.917  67.953  1.00  0.00    -0.208 C  
BRANCH  11  12
HETATM   12  C   UNL     1      -9.469  11.442  67.585  1.00  0.00    -0.165 C  
BRANCH  12  13
HETATM   13  C   UNL     1      -9.475  10.538  68.820  1.00  0.00    -0.181 C  
HETATM   14  C   UNL     1     -10.601   9.484  68.770  1.00  0.00    -0.240 C  
HETATM   15  C   UNL     1     -10.685   8.725  70.093  1.00  0.00    -0.239 A  
HETATM   16  C   UNL     1     -10.456   8.551  67.555  1.00  0.00    -0.328 C  
HETATM   17  C   UNL     1      -9.897   7.570  70.281  1.00  0.00    -0.183 A  
HETATM   18  C   UNL     1      -9.971   6.816  71.454  1.00  0.00    -0.191 A  
HETATM   19  C   UNL     1     -10.819   7.208  72.481  1.00  0.00    -0.299 A  
HETATM   20  C   UNL     1     -11.578   8.366  72.341  1.00  0.00    -0.450 A  
HETATM   21  C   UNL     1     -11.511   9.126  71.163  1.00  0.00    -0.318 A  
HETATM   22  I   UNL     1     -12.700  10.868  71.140  1.00  0.00    -0.402 I  
ENDBRANCH  12  13
ENDBRANCH  11  12
ENDBRANCH  10  11
ENDBRANCH   9  10
ENDBRANCH   8   9
ENDBRANCH   7   8
ENDBRANCH   6   7
ENDBRANCH   4   6
ENDBRANCH   3   4
ENDBRANCH   2   3
TORSDOF 10
ENDMDL
MODEL       44
REMARK 921   NORMALIZED FREE ENERGY PREDICTED BY IDOCK:   -4.78 KCAL/MOL
REMARK 922        TOTAL FREE ENERGY PREDICTED BY IDOCK:   -8.97 KCAL/MOL
REMARK 923 INTER-LIGAND FREE ENERGY PREDICTED BY IDOCK:   -7.45 KCAL/MOL
REMARK 924 INTRA-LIGAND FREE ENERGY PREDICTED BY IDOCK:   -1.51 KCAL/MOL
REMARK 927      BINDING AFFINITY PREDICTED BY RF-SCORE:    0.00 PKD
ROOT
HETATM    1  C   UNL     1     -12.704  10.675  70.582  1.00  0.00    -0.445 C  
HETATM    2  C   UNL     1     -12.754   9.613  71.664  1.00  0.00    -0.407 C  
ENDROOT
BRANCH   2   3
HETATM    3  O   UNL     1     -11.415   9.150  71.885  1.00  0.00    -0.360 OA 
BRANCH   3   4
HETATM    4  C   UNL     1     -11.325   7.851  72.288  1.00  0.00    -0.337 C  
HETATM    5  O   UNL     1     -10.873   7.476  73.360  1.00  0.00    -0.394 OA 
BRANCH   4   6
HETATM    6  C   UNL     1     -11.957   6.964  71.247  1.00  0.00    -0.402 C  
BRANCH   6   7
HETATM    7  C   UNL     1     -11.130   5.699  71.050  1.00  0.00    -0.202 C  
BRANCH   7   8
HETATM    8  C   UNL     1     -10.176   5.821  69.867  1.00  0.00    -0.302 C  
BRANCH   8   9
HETATM    9  C   UNL     1     -10.947   6.226  68.612  1.00  0.00    -0.423 C  
BRANCH   9  10
HETATM   10  C   UNL     1     -10.204   7.300  67.828  1.00  0.00    -0.247 C  
BRANCH  10  11
HETATM   11  C   UNL     1      -9.203   8.038  68.717  1.00  0.00    -0.143 C  
BRANCH  11  12
HETATM   12  C   UNL     1      -9.543   9.524  68.775  1.00  0.00    -0.159 C  
BRANCH  12  13
HETATM   13  C   UNL     1     -10.318   9.986  67.538  1.00  0.00    -0.282 C  
HETATM   14  C   UNL     1      -9.619  11.156  66.813  1.00  0.00    -0.215 C  
HETATM   15  C   UNL     1     -10.509  11.702  65.697  1.00  0.00    -0.314 A  
HETATM   16  C   UNL     1      -8.215  10.765  66.320  1.00  0.00    -0.162 C  
HETATM   17  C   UNL     1     -10.433  11.133  64.409  1.00  0.00    -0.418 A  
HETATM   18  C   UNL     1     -11.191  11.625  63.344  1.00  0.00    -0.401 A  
HETATM   19  C   UNL     1     -12.062  12.688  63.544  1.00  0.00    -0.648 A  
HETATM   20  C   UNL     1     -12.189  13.243  64.813  1.00  0.00    -0.466 A  
HETATM   21  C   UNL     1     -11.427  12.756  65.886  1.00  0.00    -0.356 A  
HETATM   22  I   UNL     1     -11.775  13.691  67.744  1.00  0.00    -0.372 I  
ENDBRANCH  12  13
ENDBRANCH  11  12
ENDBRANCH  10  11
ENDBRANCH   9  10
ENDBRANCH   8   9
ENDBRANCH   7   8
ENDBRANCH   6   7
ENDBRANCH   4   6
ENDBRANCH   3   4
ENDBRANCH   2   3
TORSDOF 10
ENDMDL
MODEL       45
REMARK 921   NORMALIZED FREE ENERGY PREDICTED BY IDOCK:   -4.78 KCAL/MOL
REMARK 922        TOTAL FREE ENERGY PREDICTED BY IDOCK:   -8.96 KCAL/MOL
REMARK 923 INTER-LIGAND FREE ENERGY PREDICTED BY IDOCK:   -7.70 KCAL/MOL
REMARK 924 INTRA-LIGAND FREE ENERGY PREDICTED BY IDOCK:   -1.26 KCAL/MOL
REMARK 927      BINDING AFFINITY PREDICTED BY RF-SCORE:    0.00 PKD
ROOT
HETATM    1  C   UNL     1      -6.893  15.716  67.517  1.00  0.00    -0.221 C  
HETATM    2  C   UNL     1      -6.738  17.154  67.976  1.00  0.00    -0.161 C  
ENDROOT
BRANCH   2   3
HETATM    3  O   UNL     1      -6.014  17.862  66.961  1.00  0.00    -0.132 OA 
BRANCH   3   4
HETATM    4  C   UNL     1      -6.769  18.730  66.230  1.00  0.00    -0.218 C  
HETATM    5  O   UNL     1      -6.816  18.767  65.009  1.00  0.00    -0.504 OA 
BRANCH   4   6
HETATM    6  C   UNL     1      -7.604  19.568  67.163  1.00  0.00    -0.271 C  
BRANCH   6   7
HETATM    7  C   UNL     1      -8.770  20.202  66.413  1.00  0.00    -0.317 C  
BRANCH   7   8
HETATM    8  C   UNL     1     -10.113  19.648  66.874  1.00  0.00    -0.533 C  
BRANCH   8   9
HETATM    9  C   UNL     1     -10.500  18.439  66.025  1.00  0.00    -0.400 C  
BRANCH   9  10
HETATM   10  C   UNL     1     -10.621  17.181  66.875  1.00  0.00    -0.209 C  
BRANCH  10  11
HETATM   11  C   UNL     1     -10.484  15.923  66.019  1.00  0.00    -0.357 C  
BRANCH  11  12
HETATM   12  C   UNL     1     -10.441  14.682  66.906  1.00  0.00    -0.270 C  
BRANCH  12  13
HETATM   13  C   UNL     1     -11.493  14.732  68.017  1.00  0.00    -0.351 C  
HETATM   14  C   UNL     1     -10.875  14.533  69.417  1.00  0.00    -0.249 C  
HETATM   15  C   UNL     1     -11.972  14.410  70.474  1.00  0.00    -0.395 A  
HETATM   16  C   UNL     1      -9.848  15.630  69.749  1.00  0.00    -0.260 C  
HETATM   17  C   UNL     1     -12.476  15.574  71.090  1.00  0.00    -0.491 A  
HETATM   18  C   UNL     1     -13.445  15.513  72.093  1.00  0.00    -0.587 A  
HETATM   19  C   UNL     1     -13.954  14.284  72.493  1.00  0.00    -0.519 A  
HETATM   20  C   UNL     1     -13.506  13.121  71.875  1.00  0.00    -0.513 A  
HETATM   21  C   UNL     1     -12.530  13.176  70.869  1.00  0.00    -0.323 A  
HETATM   22  I   UNL     1     -11.999  11.321  70.018  1.00  0.00    -0.423 I  
ENDBRANCH  12  13
ENDBRANCH  11  12
ENDBRANCH  10  11
ENDBRANCH   9  10
ENDBRANCH   8   9
ENDBRANCH   7   8
ENDBRANCH   6   7
ENDBRANCH   4   6
ENDBRANCH   3   4
ENDBRANCH   2   3
TORSDOF 10
ENDMDL
MODEL       46
REMARK 921   NORMALIZED FREE ENERGY PREDICTED BY IDOCK:   -4.76 KCAL/MOL
REMARK 922        TOTAL FREE ENERGY PREDICTED BY IDOCK:   -8.95 KCAL/MOL
REMARK 923 INTER-LIGAND FREE ENERGY PREDICTED BY IDOCK:   -7.86 KCAL/MOL
REMARK 924 INTRA-LIGAND FREE ENERGY PREDICTED BY IDOCK:   -1.08 KCAL/MOL
REMARK 927      BINDING AFFINITY PREDICTED BY RF-SCORE:    0.00 PKD
ROOT
HETATM    1  C   UNL     1      -5.443  17.722  66.511  1.00  0.00    -0.213 C  
HETATM    2  C   UNL     1      -6.431  17.919  67.647  1.00  0.00    -0.179 C  
ENDROOT
BRANCH   2   3
HETATM    3  O   UNL     1      -6.176  19.202  68.230  1.00  0.00    -0.217 OA 
BRANCH   3   4
HETATM    4  C   UNL     1      -7.131  20.141  67.971  1.00  0.00    -0.284 C  
HETATM    5  O   UNL     1      -6.928  21.227  67.449  1.00  0.00    -0.509 OA 
BRANCH   4   6
HETATM    6  C   UNL     1      -8.483  19.588  68.341  1.00  0.00    -0.387 C  
BRANCH   6   7
HETATM    7  C   UNL     1      -9.569  20.203  67.466  1.00  0.00    -0.547 C  
BRANCH   7   8
HETATM    8  C   UNL     1     -10.668  19.201  67.133  1.00  0.00    -0.567 C  
BRANCH   8   9
HETATM    9  C   UNL     1     -10.186  18.235  66.053  1.00  0.00    -0.334 C  
BRANCH   9  10
HETATM   10  C   UNL     1     -10.114  16.807  66.579  1.00  0.00    -0.322 C  
BRANCH  10  11
HETATM   11  C   UNL     1     -10.771  16.693  67.954  1.00  0.00    -0.344 C  
BRANCH  11  12
HETATM   12  C   UNL     1     -11.486  15.353  68.090  1.00  0.00    -0.352 C  
BRANCH  12  13
HETATM   13  C   UNL     1     -10.772  14.239  67.321  1.00  0.00    -0.277 C  
HETATM   14  C   UNL     1     -11.757  13.202  66.741  1.00  0.00    -0.439 C  
HETATM   15  C   UNL     1     -10.999  12.019  66.140  1.00  0.00    -0.343 A  
HETATM   16  C   UNL     1     -12.745  13.844  65.751  1.00  0.00    -0.503 C  
HETATM   17  C   UNL     1     -10.588  12.072  64.792  1.00  0.00    -0.340 A  
HETATM   18  C   UNL     1      -9.932  11.000  64.183  1.00  0.00    -0.385 A  
HETATM   19  C   UNL     1      -9.651   9.853  64.911  1.00  0.00    -0.356 A  
HETATM   20  C   UNL     1     -10.007   9.787  66.255  1.00  0.00    -0.331 A  
HETATM   21  C   UNL     1     -10.669  10.859  66.872  1.00  0.00    -0.264 A  
HETATM   22  I   UNL     1     -11.099  10.602  68.920  1.00  0.00    -0.371 I  
ENDBRANCH  12  13
ENDBRANCH  11  12
ENDBRANCH  10  11
ENDBRANCH   9  10
ENDBRANCH   8   9
ENDBRANCH   7   8
ENDBRANCH   6   7
ENDBRANCH   4   6
ENDBRANCH   3   4
ENDBRANCH   2   3
TORSDOF 10
ENDMDL
MODEL       47
REMARK 921   NORMALIZED FREE ENERGY PREDICTED BY IDOCK:   -4.76 KCAL/MOL
REMARK 922        TOTAL FREE ENERGY PREDICTED BY IDOCK:   -8.94 KCAL/MOL
REMARK 923 INTER-LIGAND FREE ENERGY PREDICTED BY IDOCK:   -7.44 KCAL/MOL
REMARK 924 INTRA-LIGAND FREE ENERGY PREDICTED BY IDOCK:   -1.50 KCAL/MOL
REMARK 927      BINDING AFFINITY PREDICTED BY RF-SCORE:    0.00 PKD
ROOT
HETATM    1  C   UNL     1     -11.036   6.650  67.070  1.00  0.00    -0.463 C  
HETATM    2  C   UNL     1      -9.841   7.576  67.202  1.00  0.00    -0.201 C  
ENDROOT
BRANCH   2   3
HETATM    3  O   UNL     1      -9.905   8.528  66.133  1.00  0.00    -0.244 OA 
BRANCH   3   4
HETATM    4  C   UNL     1      -8.786   8.584  65.357  1.00  0.00    -0.159 C  
HETATM    5  O   UNL     1      -7.964   7.687  65.239  1.00  0.00    -0.114 OA 
BRANCH   4   6
HETATM    6  C   UNL     1      -8.774   9.886  64.598  1.00  0.00    -0.215 C  
BRANCH   6   7
HETATM    7  C   UNL     1     -10.130  10.574  64.698  1.00  0.00    -0.408 C  
BRANCH   7   8
HETATM    8  C   UNL     1     -10.520  11.257  63.392  1.00  0.00    -0.424 C  
BRANCH   8   9
HETATM    9  C   UNL     1     -11.173  12.607  63.682  1.00  0.00    -0.525 C  
BRANCH   9  10
HETATM   10  C   UNL     1     -12.439  12.443  64.511  1.00  0.00    -0.519 C  
BRANCH  10  11
HETATM   11  C   UNL     1     -12.700  13.681  65.369  1.00  0.00    -0.500 C  
BRANCH  11  12
HETATM   12  C   UNL     1     -11.724  13.728  66.540  1.00  0.00    -0.412 C  
BRANCH  12  13
HETATM   13  C   UNL     1     -11.813  12.474  67.414  1.00  0.00    -0.381 C  
HETATM   14  C   UNL     1     -11.270  12.714  68.839  1.00  0.00    -0.329 C  
HETATM   15  C   UNL     1     -11.210  11.401  69.618  1.00  0.00    -0.301 A  
HETATM   16  C   UNL     1     -12.064  13.809  69.575  1.00  0.00    -0.386 C  
HETATM   17  C   UNL     1     -12.341  10.973  70.345  1.00  0.00    -0.442 A  
HETATM   18  C   UNL     1     -12.322   9.805  71.109  1.00  0.00    -0.451 A  
HETATM   19  C   UNL     1     -11.178   9.019  71.150  1.00  0.00    -0.375 A  
HETATM   20  C   UNL     1     -10.061   9.394  70.410  1.00  0.00    -0.310 A  
HETATM   21  C   UNL     1     -10.072  10.568  69.644  1.00  0.00    -0.139 A  
HETATM   22  I   UNL     1      -8.307  10.960  68.558  1.00  0.00    -0.141 I  
ENDBRANCH  12  13
ENDBRANCH  11  12
ENDBRANCH  10  11
ENDBRANCH   9  10
ENDBRANCH   8   9
ENDBRANCH   7   8
ENDBRANCH   6   7
ENDBRANCH   4   6
ENDBRANCH   3   4
ENDBRANCH   2   3
TORSDOF 10
ENDMDL
MODEL       48
REMARK 921   NORMALIZED FREE ENERGY PREDICTED BY IDOCK:   -4.76 KCAL/MOL
REMARK 922        TOTAL FREE ENERGY PREDICTED BY IDOCK:   -8.94 KCAL/MOL
REMARK 923 INTER-LIGAND FREE ENERGY PREDICTED BY IDOCK:   -7.87 KCAL/MOL
REMARK 924 INTRA-LIGAND FREE ENERGY PREDICTED BY IDOCK:   -1.07 KCAL/MOL
REMARK 927      BINDING AFFINITY PREDICTED BY RF-SCORE:    0.00 PKD
ROOT
HETATM    1  C   UNL     1     -11.350   6.953  71.849  1.00  0.00    -0.297 C  
HETATM    2  C   UNL     1     -10.778   5.797  71.049  1.00  0.00    -0.258 C  
ENDROOT
BRANCH   2   3
HETATM    3  O   UNL     1     -11.228   5.937  69.695  1.00  0.00    -0.395 OA 
BRANCH   3   4
HETATM    4  C   UNL     1     -10.298   6.450  68.841  1.00  0.00    -0.201 C  
HETATM    5  O   UNL     1      -9.098   6.518  69.062  1.00  0.00    -0.132 OA 
BRANCH   4   6
HETATM    6  C   UNL     1     -10.971   6.829  67.547  1.00  0.00    -0.375 C  
BRANCH   6   7
HETATM    7  C   UNL     1     -10.761   8.309  67.249  1.00  0.00    -0.241 C  
BRANCH   7   8
HETATM    8  C   UNL     1      -9.659   8.533  66.220  1.00  0.00    -0.306 C  
BRANCH   8   9
HETATM    9  C   UNL     1      -9.720   9.964  65.691  1.00  0.00    -0.346 C  
BRANCH   9  10
HETATM   10  C   UNL     1     -10.387  10.897  66.693  1.00  0.00    -0.289 C  
BRANCH  10  11
HETATM   11  C   UNL     1     -11.349  11.858  65.995  1.00  0.00    -0.375 C  
BRANCH  11  12
HETATM   12  C   UNL     1     -11.124  13.283  66.490  1.00  0.00    -0.313 C  
BRANCH  12  13
HETATM   13  C   UNL     1     -12.028  13.630  67.676  1.00  0.00    -0.386 C  
HETATM   14  C   UNL     1     -11.232  13.816  68.985  1.00  0.00    -0.313 C  
HETATM   15  C   UNL     1     -12.182  13.981  70.171  1.00  0.00    -0.425 A  
HETATM   16  C   UNL     1     -10.210  14.961  68.874  1.00  0.00    -0.238 C  
HETATM   17  C   UNL     1     -12.645  15.269  70.514  1.00  0.00    -0.450 A  
HETATM   18  C   UNL     1     -13.477  15.480  71.615  1.00  0.00    -0.584 A  
HETATM   19  C   UNL     1     -13.887  14.404  72.392  1.00  0.00    -0.595 A  
HETATM   20  C   UNL     1     -13.481  13.117  72.053  1.00  0.00    -0.598 A  
HETATM   21  C   UNL     1     -12.642  12.900  70.950  1.00  0.00    -0.270 A  
HETATM   22  I   UNL     1     -12.157  10.884  70.563  1.00  0.00    -0.477 I  
ENDBRANCH  12  13
ENDBRANCH  11  12
ENDBRANCH  10  11
ENDBRANCH   9  10
ENDBRANCH   8   9
ENDBRANCH   7   8
ENDBRANCH   6   7
ENDBRANCH   4   6
ENDBRANCH   3   4
ENDBRANCH   2   3
TORSDOF 10
ENDMDL
MODEL       49
REMARK 921   NORMALIZED FREE ENERGY PREDICTED BY IDOCK:   -4.76 KCAL/MOL
REMARK 922        TOTAL FREE ENERGY PREDICTED BY IDOCK:   -8.93 KCAL/MOL
REMARK 923 INTER-LIGAND FREE ENERGY PREDICTED BY IDOCK:   -8.03 KCAL/MOL
REMARK 924 INTRA-LIGAND FREE ENERGY PREDICTED BY IDOCK:   -0.90 KCAL/MOL
REMARK 927      BINDING AFFINITY PREDICTED BY RF-SCORE:    0.00 PKD
ROOT
HETATM    1  C   UNL     1     -11.137  15.780  64.489  1.00  0.00    -0.293 C  
HETATM    2  C   UNL     1     -10.906  14.338  64.903  1.00  0.00    -0.416 C  
ENDROOT
BRANCH   2   3
HETATM    3  O   UNL     1     -12.083  13.592  64.568  1.00  0.00    -0.391 OA 
BRANCH   3   4
HETATM    4  C   UNL     1     -11.890  12.624  63.629  1.00  0.00    -0.530 C  
HETATM    5  O   UNL     1     -12.747  12.197  62.869  1.00  0.00    -0.300 OA 
BRANCH   4   6
HETATM    6  C   UNL     1     -10.434  12.234  63.611  1.00  0.00    -0.483 C  
BRANCH   6   7
HETATM    7  C   UNL     1     -10.278  10.771  63.212  1.00  0.00    -0.243 C  
BRANCH   7   8
HETATM    8  C   UNL     1      -9.478   9.982  64.242  1.00  0.00    -0.336 C  
BRANCH   8   9
HETATM    9  C   UNL     1      -9.273  10.822  65.501  1.00  0.00    -0.230 C  
BRANCH   9  10
HETATM   10  C   UNL     1      -9.487   9.993  66.760  1.00  0.00    -0.209 C  
BRANCH  10  11
HETATM   11  C   UNL     1     -10.798  10.368  67.450  1.00  0.00    -0.344 C  
BRANCH  11  12
HETATM   12  C   UNL     1     -11.328  11.687  66.897  1.00  0.00    -0.364 C  
BRANCH  12  13
HETATM   13  C   UNL     1     -12.130  12.468  67.941  1.00  0.00    -0.120 C  
HETATM   14  C   UNL     1     -11.282  12.838  69.176  1.00  0.00    -0.294 C  
HETATM   15  C   UNL     1     -12.159  13.455  70.264  1.00  0.00    -0.419 A  
HETATM   16  C   UNL     1     -10.084  13.728  68.799  1.00  0.00    -0.141 C  
HETATM   17  C   UNL     1     -12.388  14.847  70.264  1.00  0.00    -0.393 A  
HETATM   18  C   UNL     1     -13.145  15.465  71.262  1.00  0.00    -0.564 A  
HETATM   19  C   UNL     1     -13.711  14.704  72.276  1.00  0.00    -0.565 A  
HETATM   20  C   UNL     1     -13.537  13.324  72.279  1.00  0.00    -0.703 A  
HETATM   21  C   UNL     1     -12.775  12.697  71.282  1.00  0.00    -0.257 A  
HETATM   22  I   UNL     1     -12.649  10.597  71.422  1.00  0.00    -0.437 I  
ENDBRANCH  12  13
ENDBRANCH  11  12
ENDBRANCH  10  11
ENDBRANCH   9  10
ENDBRANCH   8   9
ENDBRANCH   7   8
ENDBRANCH   6   7
ENDBRANCH   4   6
ENDBRANCH   3   4
ENDBRANCH   2   3
TORSDOF 10
ENDMDL
MODEL       50
REMARK 921   NORMALIZED FREE ENERGY PREDICTED BY IDOCK:   -4.75 KCAL/MOL
REMARK 922        TOTAL FREE ENERGY PREDICTED BY IDOCK:   -8.93 KCAL/MOL
REMARK 923 INTER-LIGAND FREE ENERGY PREDICTED BY IDOCK:   -7.43 KCAL/MOL
REMARK 924 INTRA-LIGAND FREE ENERGY PREDICTED BY IDOCK:   -1.50 KCAL/MOL
REMARK 927      BINDING AFFINITY PREDICTED BY RF-SCORE:    0.00 PKD
ROOT
HETATM    1  C   UNL     1      -9.620  20.491  67.167  1.00  0.00    -0.570 C  
HETATM    2  C   UNL     1      -9.279  19.268  67.998  1.00  0.00    -0.321 C  
ENDROOT
BRANCH   2   3
HETATM    3  O   UNL     1      -8.020  18.763  67.537  1.00  0.00    -0.242 OA 
BRANCH   3   4
HETATM    4  C   UNL     1      -8.083  18.073  66.364  1.00  0.00    -0.260 C  
HETATM    5  O   UNL     1      -7.388  18.288  65.381  1.00  0.00    -0.531 OA 
BRANCH   4   6
HETATM    6  C   UNL     1      -9.073  16.946  66.504  1.00  0.00    -0.302 C  
BRANCH   6   7
HETATM    7  C   UNL     1      -8.394  15.704  67.069  1.00  0.00    -0.261 C  
BRANCH   7   8
HETATM    8  C   UNL     1      -8.875  15.384  68.480  1.00  0.00    -0.183 C  
BRANCH   8   9
HETATM    9  C   UNL     1     -10.398  15.275  68.501  1.00  0.00    -0.231 C  
BRANCH   9  10
HETATM   10  C   UNL     1     -10.870  13.979  67.857  1.00  0.00    -0.255 C  
BRANCH  10  11
HETATM   11  C   UNL     1     -12.076  14.222  66.950  1.00  0.00    -0.440 C  
BRANCH  11  12
HETATM   12  C   UNL     1     -11.620  14.440  65.511  1.00  0.00    -0.347 C  
BRANCH  12  13
HETATM   13  C   UNL     1     -10.619  13.376  65.056  1.00  0.00    -0.370 C  
HETATM   14  C   UNL     1     -11.309  12.055  64.655  1.00  0.00    -0.377 C  
HETATM   15  C   UNL     1     -10.270  10.969  64.381  1.00  0.00    -0.409 A  
HETATM   16  C   UNL     1     -12.286  12.255  63.483  1.00  0.00    -0.670 C  
HETATM   17  C   UNL     1      -9.729  10.838  63.085  1.00  0.00    -0.394 A  
HETATM   18  C   UNL     1      -8.810   9.833  62.773  1.00  0.00    -0.250 A  
HETATM   19  C   UNL     1      -8.391   8.945  63.754  1.00  0.00    -0.164 A  
HETATM   20  C   UNL     1      -8.876   9.075  65.052  1.00  0.00    -0.213 A  
HETATM   21  C   UNL     1      -9.802  10.080  65.371  1.00  0.00    -0.314 A  
HETATM   22  I   UNL     1     -10.399  10.153  67.392  1.00  0.00    -0.328 I  
ENDBRANCH  12  13
ENDBRANCH  11  12
ENDBRANCH  10  11
ENDBRANCH   9  10
ENDBRANCH   8   9
ENDBRANCH   7   8
ENDBRANCH   6   7
ENDBRANCH   4   6
ENDBRANCH   3   4
ENDBRANCH   2   3
TORSDOF 10
ENDMDL
MODEL       51
REMARK 921   NORMALIZED FREE ENERGY PREDICTED BY IDOCK:   -4.75 KCAL/MOL
REMARK 922        TOTAL FREE ENERGY PREDICTED BY IDOCK:   -8.93 KCAL/MOL
REMARK 923 INTER-LIGAND FREE ENERGY PREDICTED BY IDOCK:   -8.13 KCAL/MOL
REMARK 924 INTRA-LIGAND FREE ENERGY PREDICTED BY IDOCK:   -0.80 KCAL/MOL
REMARK 927      BINDING AFFINITY PREDICTED BY RF-SCORE:    0.00 PKD
ROOT
HETATM    1  C   UNL     1     -11.245   6.449  69.354  1.00  0.00    -0.459 C  
HETATM    2  C   UNL     1     -11.372   6.218  70.848  1.00  0.00    -0.325 C  
ENDROOT
BRANCH   2   3
HETATM    3  O   UNL     1     -12.529   6.930  71.304  1.00  0.00    -0.367 OA 
BRANCH   3   4
HETATM    4  C   UNL     1     -12.266   8.162  71.825  1.00  0.00    -0.319 C  
HETATM    5  O   UNL     1     -11.315   8.436  72.542  1.00  0.00    -0.375 OA 
BRANCH   4   6
HETATM    6  C   UNL     1     -13.277   9.148  71.299  1.00  0.00    -0.296 C  
BRANCH   6   7
HETATM    7  C   UNL     1     -12.929  10.562  71.749  1.00  0.00    -0.582 C  
BRANCH   7   8
HETATM    8  C   UNL     1     -12.205  11.345  70.659  1.00  0.00    -0.484 C  
BRANCH   8   9
HETATM    9  C   UNL     1     -12.387  12.844  70.884  1.00  0.00    -0.365 C  
BRANCH   9  10
HETATM   10  C   UNL     1     -11.835  13.651  69.717  1.00  0.00    -0.392 C  
BRANCH  10  11
HETATM   11  C   UNL     1     -11.830  12.825  68.431  1.00  0.00    -0.353 C  
BRANCH  11  12
HETATM   12  C   UNL     1     -11.790  13.743  67.213  1.00  0.00    -0.436 C  
BRANCH  12  13
HETATM   13  C   UNL     1     -11.383  15.172  67.582  1.00  0.00    -0.327 C  
HETATM   14  C   UNL     1     -10.277  15.724  66.658  1.00  0.00    -0.290 C  
HETATM   15  C   UNL     1      -9.777  17.074  67.169  1.00  0.00    -0.259 A  
HETATM   16  C   UNL     1     -10.731  15.771  65.189  1.00  0.00    -0.455 C  
HETATM   17  C   UNL     1     -10.424  18.256  66.751  1.00  0.00    -0.387 A  
HETATM   18  C   UNL     1      -9.978  19.517  67.153  1.00  0.00    -0.487 A  
HETATM   19  C   UNL     1      -8.884  19.630  68.000  1.00  0.00    -0.371 A  
HETATM   20  C   UNL     1      -8.251  18.480  68.461  1.00  0.00    -0.360 A  
HETATM   21  C   UNL     1      -8.691  17.211  68.059  1.00  0.00    -0.221 A  
HETATM   22  I   UNL     1      -7.638  15.582  68.884  1.00  0.00    -0.216 I  
ENDBRANCH  12  13
ENDBRANCH  11  12
ENDBRANCH  10  11
ENDBRANCH   9  10
ENDBRANCH   8   9
ENDBRANCH   7   8
ENDBRANCH   6   7
ENDBRANCH   4   6
ENDBRANCH   3   4
ENDBRANCH   2   3
TORSDOF 10
ENDMDL
MODEL       52
REMARK 921   NORMALIZED FREE ENERGY PREDICTED BY IDOCK:   -4.70 KCAL/MOL
REMARK 922        TOTAL FREE ENERGY PREDICTED BY IDOCK:   -8.85 KCAL/MOL
REMARK 923 INTER-LIGAND FREE ENERGY PREDICTED BY IDOCK:   -7.37 KCAL/MOL
REMARK 924 INTRA-LIGAND FREE ENERGY PREDICTED BY IDOCK:   -1.48 KCAL/MOL
REMARK 927      BINDING AFFINITY PREDICTED BY RF-SCORE:    0.00 PKD
ROOT
HETATM    1  C   UNL     1     -13.758   9.157  71.720  1.00  0.00    -0.465 C  
HETATM    2  C   UNL     1     -12.711  10.255  71.680  1.00  0.00    -0.456 C  
ENDROOT
BRANCH   2   3
HETATM    3  O   UNL     1     -11.426   9.630  71.573  1.00  0.00    -0.377 OA 
BRANCH   3   4
HETATM    4  C   UNL     1     -11.066   9.289  70.303  1.00  0.00    -0.251 C  
HETATM    5  O   UNL     1     -10.848   8.151  69.914  1.00  0.00    -0.247 OA 
BRANCH   4   6
HETATM    6  C   UNL     1     -11.077  10.522  69.437  1.00  0.00    -0.310 C  
BRANCH   6   7
HETATM    7  C   UNL     1     -11.177  10.140  67.965  1.00  0.00    -0.247 C  
BRANCH   7   8
HETATM    8  C   UNL     1      -9.809  10.080  67.296  1.00  0.00    -0.225 C  
BRANCH   8   9
HETATM    9  C   UNL     1      -9.939   9.501  65.889  1.00  0.00    -0.342 C  
BRANCH   9  10
HETATM   10  C   UNL     1      -9.343  10.439  64.847  1.00  0.00    -0.294 C  
BRANCH  10  11
HETATM   11  C   UNL     1     -10.438  11.201  64.101  1.00  0.00    -0.442 C  
BRANCH  11  12
HETATM   12  C   UNL     1     -10.236  12.705  64.256  1.00  0.00    -0.358 C  
BRANCH  12  13
HETATM   13  C   UNL     1     -10.338  13.153  65.715  1.00  0.00    -0.294 C  
HETATM   14  C   UNL     1     -11.475  14.172  65.937  1.00  0.00    -0.338 C  
HETATM   15  C   UNL     1     -11.429  14.726  67.360  1.00  0.00    -0.376 A  
HETATM   16  C   UNL     1     -12.849  13.583  65.571  1.00  0.00    -0.406 C  
HETATM   17  C   UNL     1     -12.116  14.050  68.391  1.00  0.00    -0.318 A  
HETATM   18  C   UNL     1     -12.142  14.540  69.698  1.00  0.00    -0.369 A  
HETATM   19  C   UNL     1     -11.463  15.709  70.017  1.00  0.00    -0.352 A  
HETATM   20  C   UNL     1     -10.742  16.375  69.030  1.00  0.00    -0.322 A  
HETATM   21  C   UNL     1     -10.715  15.890  67.714  1.00  0.00    -0.320 A  
HETATM   22  I   UNL     1      -9.544  17.006  66.361  1.00  0.00    -0.261 I  
ENDBRANCH  12  13
ENDBRANCH  11  12
ENDBRANCH  10  11
ENDBRANCH   9  10
ENDBRANCH   8   9
ENDBRANCH   7   8
ENDBRANCH   6   7
ENDBRANCH   4   6
ENDBRANCH   3   4
ENDBRANCH   2   3
TORSDOF 10
ENDMDL
MODEL       53
REMARK 921   NORMALIZED FREE ENERGY PREDICTED BY IDOCK:   -4.70 KCAL/MOL
REMARK 922        TOTAL FREE ENERGY PREDICTED BY IDOCK:   -8.85 KCAL/MOL
REMARK 923 INTER-LIGAND FREE ENERGY PREDICTED BY IDOCK:   -7.54 KCAL/MOL
REMARK 924 INTRA-LIGAND FREE ENERGY PREDICTED BY IDOCK:   -1.31 KCAL/MOL
REMARK 927      BINDING AFFINITY PREDICTED BY RF-SCORE:    0.00 PKD
ROOT
HETATM    1  C   UNL     1     -10.260   8.072  72.572  1.00  0.00    -0.361 C  
HETATM    2  C   UNL     1     -11.744   7.759  72.522  1.00  0.00    -0.339 C  
ENDROOT
BRANCH   2   3
HETATM    3  O   UNL     1     -12.290   8.408  71.367  1.00  0.00    -0.302 OA 
BRANCH   3   4
HETATM    4  C   UNL     1     -12.820   9.640  71.608  1.00  0.00    -0.405 C  
HETATM    5  O   UNL     1     -13.688   9.886  72.433  1.00  0.00    -0.338 OA 
BRANCH   4   6
HETATM    6  C   UNL     1     -12.100  10.662  70.766  1.00  0.00    -0.474 C  
BRANCH   6   7
HETATM    7  C   UNL     1     -12.615  12.064  71.072  1.00  0.00    -0.370 C  
BRANCH   7   8
HETATM    8  C   UNL     1     -11.924  13.123  70.220  1.00  0.00    -0.366 C  
BRANCH   8   9
HETATM    9  C   UNL     1     -12.087  14.499  70.862  1.00  0.00    -0.404 C  
BRANCH   9  10
HETATM   10  C   UNL     1     -11.740  15.612  69.883  1.00  0.00    -0.372 C  
BRANCH  10  11
HETATM   11  C   UNL     1     -10.540  15.230  69.017  1.00  0.00    -0.245 C  
BRANCH  11  12
HETATM   12  C   UNL     1     -10.713  15.775  67.603  1.00  0.00    -0.310 C  
BRANCH  12  13
HETATM   13  C   UNL     1     -10.264  14.770  66.540  1.00  0.00    -0.281 C  
HETATM   14  C   UNL     1     -11.207  13.551  66.451  1.00  0.00    -0.322 C  
HETATM   15  C   UNL     1     -10.629  12.494  65.511  1.00  0.00    -0.304 A  
HETATM   16  C   UNL     1     -12.641  13.965  66.074  1.00  0.00    -0.467 C  
HETATM   17  C   UNL     1     -10.921  12.557  64.132  1.00  0.00    -0.425 A  
HETATM   18  C   UNL     1     -10.455  11.590  63.239  1.00  0.00    -0.421 A  
HETATM   19  C   UNL     1      -9.666  10.544  63.697  1.00  0.00    -0.375 A  
HETATM   20  C   UNL     1      -9.327  10.478  65.046  1.00  0.00    -0.268 A  
HETATM   21  C   UNL     1      -9.795  11.444  65.948  1.00  0.00    -0.226 A  
HETATM   22  I   UNL     1      -9.153  11.208  67.943  1.00  0.00    -0.169 I  
ENDBRANCH  12  13
ENDBRANCH  11  12
ENDBRANCH  10  11
ENDBRANCH   9  10
ENDBRANCH   8   9
ENDBRANCH   7   8
ENDBRANCH   6   7
ENDBRANCH   4   6
ENDBRANCH   3   4
ENDBRANCH   2   3
TORSDOF 10
ENDMDL
MODEL       54
REMARK 921   NORMALIZED FREE ENERGY PREDICTED BY IDOCK:   -4.70 KCAL/MOL
REMARK 922        TOTAL FREE ENERGY PREDICTED BY IDOCK:   -8.85 KCAL/MOL
REMARK 923 INTER-LIGAND FREE ENERGY PREDICTED BY IDOCK:   -7.29 KCAL/MOL
REMARK 924 INTRA-LIGAND FREE ENERGY PREDICTED BY IDOCK:   -1.56 KCAL/MOL
REMARK 927      BINDING AFFINITY PREDICTED BY RF-SCORE:    0.00 PKD
ROOT
HETATM    1  C   UNL     1      -8.360   6.912  71.937  1.00  0.00    -0.107 C  
HETATM    2  C   UNL     1      -9.042   6.172  70.801  1.00  0.00    -0.150 C  
ENDROOT
BRANCH   2   3
HETATM    3  O   UNL     1     -10.314   5.715  71.278  1.00  0.00    -0.211 OA 
BRANCH   3   4
HETATM    4  C   UNL     1     -11.385   6.232  70.612  1.00  0.00    -0.343 C  
HETATM    5  O   UNL     1     -11.548   6.196  69.401  1.00  0.00    -0.372 OA 
BRANCH   4   6
HETATM    6  C   UNL     1     -12.378   6.766  71.612  1.00  0.00    -0.409 C  
BRANCH   6   7
HETATM    7  C   UNL     1     -11.961   8.152  72.091  1.00  0.00    -0.413 C  
BRANCH   7   8
HETATM    8  C   UNL     1     -12.741   9.257  71.389  1.00  0.00    -0.402 C  
BRANCH   8   9
HETATM    9  C   UNL     1     -11.784  10.162  70.615  1.00  0.00    -0.425 C  
BRANCH   9  10
HETATM   10  C   UNL     1     -10.341   9.700  70.766  1.00  0.00    -0.356 C  
BRANCH  10  11
HETATM   11  C   UNL     1      -9.532  10.000  69.505  1.00  0.00    -0.245 C  
BRANCH  11  12
HETATM   12  C   UNL     1      -9.925   9.044  68.383  1.00  0.00    -0.200 C  
BRANCH  12  13
HETATM   13  C   UNL     1     -10.681   9.755  67.259  1.00  0.00    -0.296 C  
HETATM   14  C   UNL     1      -9.856  10.897  66.629  1.00  0.00    -0.237 C  
HETATM   15  C   UNL     1     -10.708  11.691  65.640  1.00  0.00    -0.330 A  
HETATM   16  C   UNL     1      -8.547  10.379  66.007  1.00  0.00    -0.158 C  
HETATM   17  C   UNL     1     -10.776  11.278  64.293  1.00  0.00    -0.416 A  
HETATM   18  C   UNL     1     -11.503  11.995  63.341  1.00  0.00    -0.489 A  
HETATM   19  C   UNL     1     -12.201  13.135  63.715  1.00  0.00    -0.528 A  
HETATM   20  C   UNL     1     -12.188  13.545  65.045  1.00  0.00    -0.453 A  
HETATM   21  C   UNL     1     -11.456  12.830  66.005  1.00  0.00    -0.350 A  
HETATM   22  I   UNL     1     -11.579  13.572  67.975  1.00  0.00    -0.404 I  
ENDBRANCH  12  13
ENDBRANCH  11  12
ENDBRANCH  10  11
ENDBRANCH   9  10
ENDBRANCH   8   9
ENDBRANCH   7   8
ENDBRANCH   6   7
ENDBRANCH   4   6
ENDBRANCH   3   4
ENDBRANCH   2   3
TORSDOF 10
ENDMDL
MODEL       55
REMARK 921   NORMALIZED FREE ENERGY PREDICTED BY IDOCK:   -4.68 KCAL/MOL
REMARK 922        TOTAL FREE ENERGY PREDICTED BY IDOCK:   -8.81 KCAL/MOL
REMARK 923 INTER-LIGAND FREE ENERGY PREDICTED BY IDOCK:   -6.80 KCAL/MOL
REMARK 924 INTRA-LIGAND FREE ENERGY PREDICTED BY IDOCK:   -2.01 KCAL/MOL
REMARK 927      BINDING AFFINITY PREDICTED BY RF-SCORE:    0.00 PKD
ROOT
HETATM    1  C   UNL     1     -11.236  15.384  65.072  1.00  0.00    -0.393 C  
HETATM    2  C   UNL     1     -12.323  14.710  64.255  1.00  0.00    -0.349 C  
ENDROOT
BRANCH   2   3
HETATM    3  O   UNL     1     -12.716  13.519  64.948  1.00  0.00    -0.632 OA 
BRANCH   3   4
HETATM    4  C   UNL     1     -12.266  12.362  64.384  1.00  0.00    -0.437 C  
HETATM    5  O   UNL     1     -12.558  11.962  63.266  1.00  0.00    -0.586 OA 
BRANCH   4   6
HETATM    6  C   UNL     1     -11.280  11.708  65.316  1.00  0.00    -0.263 C  
BRANCH   6   7
HETATM    7  C   UNL     1      -9.850  12.014  64.882  1.00  0.00    -0.198 C  
BRANCH   7   8
HETATM    8  C   UNL     1      -8.868  10.954  65.368  1.00  0.00    -0.192 C  
BRANCH   8   9
HETATM    9  C   UNL     1      -9.356   9.564  64.963  1.00  0.00    -0.294 C  
BRANCH   9  10
HETATM   10  C   UNL     1      -8.892   8.504  65.953  1.00  0.00    -0.219 C  
BRANCH  10  11
HETATM   11  C   UNL     1     -10.081   7.782  66.584  1.00  0.00    -0.294 C  
BRANCH  11  12
HETATM   12  C   UNL     1     -10.229   8.186  68.047  1.00  0.00    -0.263 C  
BRANCH  12  13
HETATM   13  C   UNL     1     -10.867   9.569  68.201  1.00  0.00    -0.208 C  
HETATM   14  C   UNL     1     -10.183  10.411  69.299  1.00  0.00    -0.248 C  
HETATM   15  C   UNL     1     -10.959  11.705  69.543  1.00  0.00    -0.159 A  
HETATM   16  C   UNL     1      -8.696  10.655  68.987  1.00  0.00    -0.152 C  
HETATM   17  C   UNL     1     -10.660  12.848  68.772  1.00  0.00    -0.217 A  
HETATM   18  C   UNL     1     -11.308  14.066  68.986  1.00  0.00    -0.319 A  
HETATM   19  C   UNL     1     -12.287  14.170  69.964  1.00  0.00    -0.403 A  
HETATM   20  C   UNL     1     -12.633  13.049  70.712  1.00  0.00    -0.321 A  
HETATM   21  C   UNL     1     -11.984  11.823  70.504  1.00  0.00    -0.289 A  
HETATM   22  I   UNL     1     -12.660  10.224  71.701  1.00  0.00    -0.363 I  
ENDBRANCH  12  13
ENDBRANCH  11  12
ENDBRANCH  10  11
ENDBRANCH   9  10
ENDBRANCH   8   9
ENDBRANCH   7   8
ENDBRANCH   6   7
ENDBRANCH   4   6
ENDBRANCH   3   4
ENDBRANCH   2   3
TORSDOF 10
ENDMDL
MODEL       56
REMARK 921   NORMALIZED FREE ENERGY PREDICTED BY IDOCK:   -4.66 KCAL/MOL
REMARK 922        TOTAL FREE ENERGY PREDICTED BY IDOCK:   -8.79 KCAL/MOL
REMARK 923 INTER-LIGAND FREE ENERGY PREDICTED BY IDOCK:   -7.04 KCAL/MOL
REMARK 924 INTRA-LIGAND FREE ENERGY PREDICTED BY IDOCK:   -1.75 KCAL/MOL
REMARK 927      BINDING AFFINITY PREDICTED BY RF-SCORE:    0.00 PKD
ROOT
HETATM    1  C   UNL     1     -11.199  15.766  64.864  1.00  0.00    -0.358 C  
HETATM    2  C   UNL     1     -12.030  14.510  65.050  1.00  0.00    -0.399 C  
ENDROOT
BRANCH   2   3
HETATM    3  O   UNL     1     -12.414  14.043  63.750  1.00  0.00    -0.753 OA 
BRANCH   3   4
HETATM    4  C   UNL     1     -12.149  12.726  63.520  1.00  0.00    -0.559 C  
HETATM    5  O   UNL     1     -12.981  11.879  63.230  1.00  0.00    -0.707 OA 
BRANCH   4   6
HETATM    6  C   UNL     1     -10.660  12.503  63.586  1.00  0.00    -0.446 C  
BRANCH   6   7
HETATM    7  C   UNL     1     -10.349  11.018  63.734  1.00  0.00    -0.427 C  
BRANCH   7   8
HETATM    8  C   UNL     1     -10.389  10.570  65.191  1.00  0.00    -0.310 C  
BRANCH   8   9
HETATM    9  C   UNL     1      -9.496   9.346  65.386  1.00  0.00    -0.322 C  
BRANCH   9  10
HETATM   10  C   UNL     1      -8.492   9.567  66.510  1.00  0.00    -0.130 C  
BRANCH  10  11
HETATM   11  C   UNL     1      -7.234  10.265  65.996  1.00  0.00    -0.128 C  
BRANCH  11  12
HETATM   12  C   UNL     1      -6.880  11.447  66.894  1.00  0.00    -0.142 C  
BRANCH  12  13
HETATM   13  C   UNL     1      -8.012  12.475  66.965  1.00  0.00    -0.086 C  
HETATM   14  C   UNL     1      -8.268  12.967  68.406  1.00  0.00    -0.121 C  
HETATM   15  C   UNL     1      -9.514  13.849  68.458  1.00  0.00    -0.174 A  
HETATM   16  C   UNL     1      -7.026  13.651  69.004  1.00  0.00    -0.098 C  
HETATM   17  C   UNL     1      -9.392  15.236  68.229  1.00  0.00    -0.194 A  
HETATM   18  C   UNL     1     -10.493  16.091  68.309  1.00  0.00    -0.269 A  
HETATM   19  C   UNL     1     -11.750  15.581  68.601  1.00  0.00    -0.363 A  
HETATM   20  C   UNL     1     -11.909  14.211  68.791  1.00  0.00    -0.384 A  
HETATM   21  C   UNL     1     -10.807  13.347  68.715  1.00  0.00    -0.246 A  
HETATM   22  I   UNL     1     -11.238  11.302  68.992  1.00  0.00    -0.420 I  
ENDBRANCH  12  13
ENDBRANCH  11  12
ENDBRANCH  10  11
ENDBRANCH   9  10
ENDBRANCH   8   9
ENDBRANCH   7   8
ENDBRANCH   6   7
ENDBRANCH   4   6
ENDBRANCH   3   4
ENDBRANCH   2   3
TORSDOF 10
ENDMDL
MODEL       57
REMARK 921   NORMALIZED FREE ENERGY PREDICTED BY IDOCK:   -4.63 KCAL/MOL
REMARK 922        TOTAL FREE ENERGY PREDICTED BY IDOCK:   -8.74 KCAL/MOL
REMARK 923 INTER-LIGAND FREE ENERGY PREDICTED BY IDOCK:   -7.49 KCAL/MOL
REMARK 924 INTRA-LIGAND FREE ENERGY PREDICTED BY IDOCK:   -1.25 KCAL/MOL
REMARK 927      BINDING AFFINITY PREDICTED BY RF-SCORE:    0.00 PKD
ROOT
HETATM    1  C   UNL     1     -13.129  11.153  71.762  1.00  0.00    -0.536 C  
HETATM    2  C   UNL     1     -13.257   9.686  71.397  1.00  0.00    -0.389 C  
ENDROOT
BRANCH   2   3
HETATM    3  O   UNL     1     -12.750   8.916  72.494  1.00  0.00    -0.390 OA 
BRANCH   3   4
HETATM    4  C   UNL     1     -11.700   8.106  72.179  1.00  0.00    -0.359 C  
HETATM    5  O   UNL     1     -10.531   8.325  72.460  1.00  0.00    -0.311 OA 
BRANCH   4   6
HETATM    6  C   UNL     1     -12.220   6.856  71.518  1.00  0.00    -0.415 C  
BRANCH   6   7
HETATM    7  C   UNL     1     -11.110   6.163  70.736  1.00  0.00    -0.375 C  
BRANCH   7   8
HETATM    8  C   UNL     1     -11.338   6.244  69.231  1.00  0.00    -0.411 C  
BRANCH   8   9
HETATM    9  C   UNL     1     -10.644   7.479  68.662  1.00  0.00    -0.171 C  
BRANCH   9  10
HETATM   10  C   UNL     1     -10.469   7.371  67.153  1.00  0.00    -0.403 C  
BRANCH  10  11
HETATM   11  C   UNL     1      -9.591   8.501  66.617  1.00  0.00    -0.292 C  
BRANCH  11  12
HETATM   12  C   UNL     1      -9.123   9.395  67.761  1.00  0.00    -0.134 C  
BRANCH  12  13
HETATM   13  C   UNL     1      -9.220  10.881  67.408  1.00  0.00    -0.155 C  
HETATM   14  C   UNL     1     -10.672  11.322  67.122  1.00  0.00    -0.297 C  
HETATM   15  C   UNL     1     -10.703  12.758  66.602  1.00  0.00    -0.279 A  
HETATM   16  C   UNL     1     -11.584  11.109  68.343  1.00  0.00    -0.376 C  
HETATM   17  C   UNL     1     -10.780  13.827  67.520  1.00  0.00    -0.262 A  
HETATM   18  C   UNL     1     -10.857  15.154  67.094  1.00  0.00    -0.320 A  
HETATM   19  C   UNL     1     -10.838  15.452  65.738  1.00  0.00    -0.349 A  
HETATM   20  C   UNL     1     -10.720  14.421  64.810  1.00  0.00    -0.423 A  
HETATM   21  C   UNL     1     -10.647  13.085  65.231  1.00  0.00    -0.304 A  
HETATM   22  I   UNL     1     -10.434  11.660  63.692  1.00  0.00    -0.543 I  
ENDBRANCH  12  13
ENDBRANCH  11  12
ENDBRANCH  10  11
ENDBRANCH   9  10
ENDBRANCH   8   9
ENDBRANCH   7   8
ENDBRANCH   6   7
ENDBRANCH   4   6
ENDBRANCH   3   4
ENDBRANCH   2   3
TORSDOF 10
ENDMDL
MODEL       58
REMARK 921   NORMALIZED FREE ENERGY PREDICTED BY IDOCK:   -4.63 KCAL/MOL
REMARK 922        TOTAL FREE ENERGY PREDICTED BY IDOCK:   -8.73 KCAL/MOL
REMARK 923 INTER-LIGAND FREE ENERGY PREDICTED BY IDOCK:   -7.51 KCAL/MOL
REMARK 924 INTRA-LIGAND FREE ENERGY PREDICTED BY IDOCK:   -1.22 KCAL/MOL
REMARK 927      BINDING AFFINITY PREDICTED BY RF-SCORE:    0.00 PKD
ROOT
HETATM    1  C   UNL     1     -13.153  15.563  73.528  1.00  0.00    -0.616 C  
HETATM    2  C   UNL     1     -13.986  15.145  72.330  1.00  0.00    -0.530 C  
ENDROOT
BRANCH   2   3
HETATM    3  O   UNL     1     -13.415  15.757  71.166  1.00  0.00    -0.575 OA 
BRANCH   3   4
HETATM    4  C   UNL     1     -12.431  15.027  70.569  1.00  0.00    -0.371 C  
HETATM    5  O   UNL     1     -12.145  13.871  70.843  1.00  0.00    -0.340 OA 
BRANCH   4   6
HETATM    6  C   UNL     1     -11.820  15.838  69.455  1.00  0.00    -0.359 C  
BRANCH   6   7
HETATM    7  C   UNL     1     -10.320  15.581  69.369  1.00  0.00    -0.258 C  
BRANCH   7   8
HETATM    8  C   UNL     1      -9.837  15.504  67.925  1.00  0.00    -0.216 C  
BRANCH   8   9
HETATM    9  C   UNL     1      -8.850  14.350  67.764  1.00  0.00    -0.186 C  
BRANCH   9  10
HETATM   10  C   UNL     1      -9.475  13.187  67.005  1.00  0.00    -0.242 C  
BRANCH  10  11
HETATM   11  C   UNL     1     -10.974  13.406  66.800  1.00  0.00    -0.298 C  
BRANCH  11  12
HETATM   12  C   UNL     1     -11.772  12.389  67.610  1.00  0.00    -0.412 C  
BRANCH  12  13
HETATM   13  C   UNL     1     -10.934  11.753  68.722  1.00  0.00    -0.281 C  
HETATM   14  C   UNL     1     -11.058  10.214  68.740  1.00  0.00    -0.250 C  
HETATM   15  C   UNL     1     -10.355   9.635  69.967  1.00  0.00    -0.298 A  
HETATM   16  C   UNL     1     -10.571   9.587  67.421  1.00  0.00    -0.337 C  
HETATM   17  C   UNL     1      -8.982   9.316  69.893  1.00  0.00    -0.194 A  
HETATM   18  C   UNL     1      -8.305   8.742  70.971  1.00  0.00    -0.208 A  
HETATM   19  C   UNL     1      -8.976   8.491  72.160  1.00  0.00    -0.300 A  
HETATM   20  C   UNL     1     -10.320   8.833  72.276  1.00  0.00    -0.320 A  
HETATM   21  C   UNL     1     -11.007   9.406  71.196  1.00  0.00    -0.360 A  
HETATM   22  I   UNL     1     -13.026   9.894  71.562  1.00  0.00    -0.557 I  
ENDBRANCH  12  13
ENDBRANCH  11  12
ENDBRANCH  10  11
ENDBRANCH   9  10
ENDBRANCH   8   9
ENDBRANCH   7   8
ENDBRANCH   6   7
ENDBRANCH   4   6
ENDBRANCH   3   4
ENDBRANCH   2   3
TORSDOF 10
ENDMDL
MODEL       59
REMARK 921   NORMALIZED FREE ENERGY PREDICTED BY IDOCK:   -4.62 KCAL/MOL
REMARK 922        TOTAL FREE ENERGY PREDICTED BY IDOCK:   -8.72 KCAL/MOL
REMARK 923 INTER-LIGAND FREE ENERGY PREDICTED BY IDOCK:   -7.82 KCAL/MOL
REMARK 924 INTRA-LIGAND FREE ENERGY PREDICTED BY IDOCK:   -0.90 KCAL/MOL
REMARK 927      BINDING AFFINITY PREDICTED BY RF-SCORE:    0.00 PKD
ROOT
HETATM    1  C   UNL     1     -10.367   5.064  66.670  1.00  0.00    -0.312 C  
HETATM    2  C   UNL     1     -10.891   6.434  67.061  1.00  0.00    -0.392 C  
ENDROOT
BRANCH   2   3
HETATM    3  O   UNL     1     -11.358   6.353  68.414  1.00  0.00    -0.280 OA 
BRANCH   3   4
HETATM    4  C   UNL     1     -10.398   6.567  69.357  1.00  0.00    -0.205 C  
HETATM    5  O   UNL     1      -9.594   7.488  69.349  1.00  0.00    -0.156 OA 
BRANCH   4   6
HETATM    6  C   UNL     1     -10.547   5.547  70.456  1.00  0.00    -0.339 C  
BRANCH   6   7
HETATM    7  C   UNL     1     -10.890   6.230  71.776  1.00  0.00    -0.294 C  
BRANCH   7   8
HETATM    8  C   UNL     1     -12.202   7.000  71.695  1.00  0.00    -0.395 C  
BRANCH   8   9
HETATM    9  C   UNL     1     -12.017   8.409  72.255  1.00  0.00    -0.455 C  
BRANCH   9  10
HETATM   10  C   UNL     1     -13.297   9.225  72.135  1.00  0.00    -0.537 C  
BRANCH  10  11
HETATM   11  C   UNL     1     -13.013  10.613  71.562  1.00  0.00    -0.566 C  
BRANCH  11  12
HETATM   12  C   UNL     1     -11.817  10.561  70.616  1.00  0.00    -0.458 C  
BRANCH  12  13
HETATM   13  C   UNL     1     -12.149  11.133  69.236  1.00  0.00    -0.377 C  
HETATM   14  C   UNL     1     -10.914  11.748  68.544  1.00  0.00    -0.270 C  
HETATM   15  C   UNL     1     -11.322  12.464  67.257  1.00  0.00    -0.384 A  
HETATM   16  C   UNL     1      -9.805  10.704  68.321  1.00  0.00    -0.174 C  
HETATM   17  C   UNL     1     -11.378  11.739  66.048  1.00  0.00    -0.335 A  
HETATM   18  C   UNL     1     -11.700  12.355  64.837  1.00  0.00    -0.418 A  
HETATM   19  C   UNL     1     -11.996  13.711  64.805  1.00  0.00    -0.426 A  
HETATM   20  C   UNL     1     -11.990  14.444  65.988  1.00  0.00    -0.377 A  
HETATM   21  C   UNL     1     -11.663  13.831  67.207  1.00  0.00    -0.382 A  
HETATM   22  I   UNL     1     -11.740  15.084  68.901  1.00  0.00    -0.292 I  
ENDBRANCH  12  13
ENDBRANCH  11  12
ENDBRANCH  10  11
ENDBRANCH   9  10
ENDBRANCH   8   9
ENDBRANCH   7   8
ENDBRANCH   6   7
ENDBRANCH   4   6
ENDBRANCH   3   4
ENDBRANCH   2   3
TORSDOF 10
ENDMDL
MODEL       60
REMARK 921   NORMALIZED FREE ENERGY PREDICTED BY IDOCK:   -4.61 KCAL/MOL
REMARK 922        TOTAL FREE ENERGY PREDICTED BY IDOCK:   -8.71 KCAL/MOL
REMARK 923 INTER-LIGAND FREE ENERGY PREDICTED BY IDOCK:   -7.58 KCAL/MOL
REMARK 924 INTRA-LIGAND FREE ENERGY PREDICTED BY IDOCK:   -1.13 KCAL/MOL
REMARK 927      BINDING AFFINITY PREDICTED BY RF-SCORE:    0.00 PKD
ROOT
HETATM    1  C   UNL     1     -10.275   6.276  74.297  1.00  0.00    -0.351 C  
HETATM    2  C   UNL     1      -9.658   7.165  73.233  1.00  0.00    -0.195 C  
ENDROOT
BRANCH   2   3
HETATM    3  O   UNL     1     -10.660   8.095  72.804  1.00  0.00    -0.332 OA 
BRANCH   3   4
HETATM    4  C   UNL     1     -10.825   8.166  71.453  1.00  0.00    -0.234 C  
HETATM    5  O   UNL     1     -10.859   7.207  70.696  1.00  0.00    -0.233 OA 
BRANCH   4   6
HETATM    6  C   UNL     1     -11.053   9.601  71.056  1.00  0.00    -0.438 C  
BRANCH   6   7
HETATM    7  C   UNL     1     -12.376  10.107  71.619  1.00  0.00    -0.471 C  
BRANCH   7   8
HETATM    8  C   UNL     1     -12.847  11.375  70.915  1.00  0.00    -0.323 C  
BRANCH   8   9
HETATM    9  C   UNL     1     -13.139  12.466  71.944  1.00  0.00    -0.471 C  
BRANCH   9  10
HETATM   10  C   UNL     1     -13.402  13.806  71.270  1.00  0.00    -0.282 C  
BRANCH  10  11
HETATM   11  C   UNL     1     -12.414  14.868  71.749  1.00  0.00    -0.405 C  
BRANCH  11  12
HETATM   12  C   UNL     1     -11.335  15.100  70.696  1.00  0.00    -0.330 C  
BRANCH  12  13
HETATM   13  C   UNL     1     -11.860  14.881  69.276  1.00  0.00    -0.350 C  
HETATM   14  C   UNL     1     -10.816  14.203  68.363  1.00  0.00    -0.266 C  
HETATM   15  C   UNL     1     -11.311  14.167  66.918  1.00  0.00    -0.343 A  
HETATM   16  C   UNL     1     -10.412  12.815  68.891  1.00  0.00    -0.106 C  
HETATM   17  C   UNL     1     -12.094  13.078  66.480  1.00  0.00    -0.410 A  
HETATM   18  C   UNL     1     -12.532  12.975  65.158  1.00  0.00    -0.552 A  
HETATM   19  C   UNL     1     -12.217  13.969  64.242  1.00  0.00    -0.453 A  
HETATM   20  C   UNL     1     -11.482  15.076  64.655  1.00  0.00    -0.382 A  
HETATM   21  C   UNL     1     -11.035  15.184  65.980  1.00  0.00    -0.332 A  
HETATM   22  I   UNL     1      -9.968  16.944  66.437  1.00  0.00    -0.317 I  
ENDBRANCH  12  13
ENDBRANCH  11  12
ENDBRANCH  10  11
ENDBRANCH   9  10
ENDBRANCH   8   9
ENDBRANCH   7   8
ENDBRANCH   6   7
ENDBRANCH   4   6
ENDBRANCH   3   4
ENDBRANCH   2   3
TORSDOF 10
ENDMDL
MODEL       61
REMARK 921   NORMALIZED FREE ENERGY PREDICTED BY IDOCK:   -4.60 KCAL/MOL
REMARK 922        TOTAL FREE ENERGY PREDICTED BY IDOCK:   -8.69 KCAL/MOL
REMARK 923 INTER-LIGAND FREE ENERGY PREDICTED BY IDOCK:   -7.81 KCAL/MOL
REMARK 924 INTRA-LIGAND FREE ENERGY PREDICTED BY IDOCK:   -0.88 KCAL/MOL
REMARK 927      BINDING AFFINITY PREDICTED BY RF-SCORE:    0.00 PKD
ROOT
HETATM    1  C   UNL     1     -14.258   8.593  72.122  1.00  0.00    -0.520 C  
HETATM    2  C   UNL     1     -12.788   8.962  72.203  1.00  0.00    -0.409 C  
ENDROOT
BRANCH   2   3
HETATM    3  O   UNL     1     -12.641  10.290  71.684  1.00  0.00    -0.391 OA 
BRANCH   3   4
HETATM    4  C   UNL     1     -11.642  10.431  70.767  1.00  0.00    -0.358 C  
HETATM    5  O   UNL     1     -10.611   9.775  70.741  1.00  0.00    -0.304 OA 
BRANCH   4   6
HETATM    6  C   UNL     1     -12.055  11.452  69.739  1.00  0.00    -0.388 C  
BRANCH   6   7
HETATM    7  C   UNL     1     -11.416  11.140  68.390  1.00  0.00    -0.377 C  
BRANCH   7   8
HETATM    8  C   UNL     1     -11.784  12.174  67.332  1.00  0.00    -0.374 C  
BRANCH   8   9
HETATM    9  C   UNL     1     -11.063  11.862  66.023  1.00  0.00    -0.369 C  
BRANCH   9  10
HETATM   10  C   UNL     1     -11.465  12.837  64.923  1.00  0.00    -0.355 C  
BRANCH  10  11
HETATM   11  C   UNL     1     -10.416  13.935  64.750  1.00  0.00    -0.451 C  
BRANCH  11  12
HETATM   12  C   UNL     1     -10.838  15.192  65.504  1.00  0.00    -0.373 C  
BRANCH  12  13
HETATM   13  C   UNL     1      -9.643  15.919  66.126  1.00  0.00    -0.365 C  
HETATM   14  C   UNL     1      -9.934  16.403  67.562  1.00  0.00    -0.250 C  
HETATM   15  C   UNL     1      -8.789  17.274  68.077  1.00  0.00    -0.238 A  
HETATM   16  C   UNL     1     -10.262  15.231  68.504  1.00  0.00    -0.224 C  
HETATM   17  C   UNL     1      -7.694  16.667  68.726  1.00  0.00    -0.233 A  
HETATM   18  C   UNL     1      -6.644  17.422  69.254  1.00  0.00    -0.240 A  
HETATM   19  C   UNL     1      -6.651  18.805  69.129  1.00  0.00    -0.309 A  
HETATM   20  C   UNL     1      -7.697  19.429  68.457  1.00  0.00    -0.380 A  
HETATM   21  C   UNL     1      -8.756  18.676  67.927  1.00  0.00    -0.288 A  
HETATM   22  I   UNL     1     -10.235  19.783  66.910  1.00  0.00    -0.614 I  
ENDBRANCH  12  13
ENDBRANCH  11  12
ENDBRANCH  10  11
ENDBRANCH   9  10
ENDBRANCH   8   9
ENDBRANCH   7   8
ENDBRANCH   6   7
ENDBRANCH   4   6
ENDBRANCH   3   4
ENDBRANCH   2   3
TORSDOF 10
ENDMDL
MODEL       62
REMARK 921   NORMALIZED FREE ENERGY PREDICTED BY IDOCK:   -4.60 KCAL/MOL
REMARK 922        TOTAL FREE ENERGY PREDICTED BY IDOCK:   -8.68 KCAL/MOL
REMARK 923 INTER-LIGAND FREE ENERGY PREDICTED BY IDOCK:   -7.48 KCAL/MOL
REMARK 924 INTRA-LIGAND FREE ENERGY PREDICTED BY IDOCK:   -1.21 KCAL/MOL
REMARK 927      BINDING AFFINITY PREDICTED BY RF-SCORE:    0.00 PKD
ROOT
HETATM    1  C   UNL     1     -11.175   6.320  69.099  1.00  0.00    -0.439 C  
HETATM    2  C   UNL     1     -11.294   6.136  70.601  1.00  0.00    -0.298 C  
ENDROOT
BRANCH   2   3
HETATM    3  O   UNL     1     -12.450   6.861  71.039  1.00  0.00    -0.382 OA 
BRANCH   3   4
HETATM    4  C   UNL     1     -12.205   7.777  72.019  1.00  0.00    -0.305 C  
HETATM    5  O   UNL     1     -11.328   7.686  72.866  1.00  0.00    -0.369 OA 
BRANCH   4   6
HETATM    6  C   UNL     1     -13.122   8.958  71.833  1.00  0.00    -0.436 C  
BRANCH   6   7
HETATM    7  C   UNL     1     -12.314  10.232  71.613  1.00  0.00    -0.445 C  
BRANCH   7   8
HETATM    8  C   UNL     1     -11.742  10.308  70.202  1.00  0.00    -0.364 C  
BRANCH   8   9
HETATM    9  C   UNL     1     -10.270   9.899  70.211  1.00  0.00    -0.322 C  
BRANCH   9  10
HETATM   10  C   UNL     1      -9.600  10.214  68.881  1.00  0.00    -0.186 C  
BRANCH  10  11
HETATM   11  C   UNL     1      -8.960   8.964  68.277  1.00  0.00    -0.137 C  
BRANCH  11  12
HETATM   12  C   UNL     1      -9.152   8.950  66.764  1.00  0.00    -0.177 C  
BRANCH  12  13
HETATM   13  C   UNL     1     -10.120  10.039  66.296  1.00  0.00    -0.310 C  
HETATM   14  C   UNL     1      -9.484  10.979  65.250  1.00  0.00    -0.259 C  
HETATM   15  C   UNL     1     -10.415  12.151  64.945  1.00  0.00    -0.325 A  
HETATM   16  C   UNL     1      -9.051  10.215  63.985  1.00  0.00    -0.289 C  
HETATM   17  C   UNL     1     -11.386  12.019  63.930  1.00  0.00    -0.503 A  
HETATM   18  C   UNL     1     -12.231  13.075  63.582  1.00  0.00    -0.568 A  
HETATM   19  C   UNL     1     -12.142  14.287  64.255  1.00  0.00    -0.467 A  
HETATM   20  C   UNL     1     -11.222  14.433  65.289  1.00  0.00    -0.345 A  
HETATM   21  C   UNL     1     -10.368  13.377  65.640  1.00  0.00    -0.290 A  
HETATM   22  I   UNL     1      -9.066  13.763  67.253  1.00  0.00    -0.260 I  
ENDBRANCH  12  13
ENDBRANCH  11  12
ENDBRANCH  10  11
ENDBRANCH   9  10
ENDBRANCH   8   9
ENDBRANCH   7   8
ENDBRANCH   6   7
ENDBRANCH   4   6
ENDBRANCH   3   4
ENDBRANCH   2   3
TORSDOF 10
ENDMDL
MODEL       63
REMARK 921   NORMALIZED FREE ENERGY PREDICTED BY IDOCK:   -4.59 KCAL/MOL
REMARK 922        TOTAL FREE ENERGY PREDICTED BY IDOCK:   -8.68 KCAL/MOL
REMARK 923 INTER-LIGAND FREE ENERGY PREDICTED BY IDOCK:   -7.26 KCAL/MOL
REMARK 924 INTRA-LIGAND FREE ENERGY PREDICTED BY IDOCK:   -1.41 KCAL/MOL
REMARK 927      BINDING AFFINITY PREDICTED BY RF-SCORE:    0.00 PKD
ROOT
HETATM    1  C   UNL     1     -12.040  12.021  70.371  1.00  0.00    -0.407 C  
HETATM    2  C   UNL     1     -12.478  10.568  70.361  1.00  0.00    -0.310 C  
ENDROOT
BRANCH   2   3
HETATM    3  O   UNL     1     -12.243  10.031  71.669  1.00  0.00    -0.385 OA 
BRANCH   3   4
HETATM    4  C   UNL     1     -11.246   9.103  71.728  1.00  0.00    -0.381 C  
HETATM    5  O   UNL     1     -10.063   9.324  71.513  1.00  0.00    -0.317 OA 
BRANCH   4   6
HETATM    6  C   UNL     1     -11.819   7.789  72.193  1.00  0.00    -0.370 C  
BRANCH   6   7
HETATM    7  C   UNL     1     -12.145   6.897  71.000  1.00  0.00    -0.429 C  
BRANCH   7   8
HETATM    8  C   UNL     1     -10.967   6.013  70.611  1.00  0.00    -0.376 C  
BRANCH   8   9
HETATM    9  C   UNL     1     -10.862   5.920  69.089  1.00  0.00    -0.406 C  
BRANCH   9  10
HETATM   10  C   UNL     1     -10.195   7.158  68.504  1.00  0.00    -0.189 C  
BRANCH  10  11
HETATM   11  C   UNL     1     -10.566   7.340  67.033  1.00  0.00    -0.415 C  
BRANCH  11  12
HETATM   12  C   UNL     1      -9.839   8.548  66.450  1.00  0.00    -0.327 C  
BRANCH  12  13
HETATM   13  C   UNL     1     -10.387   9.868  66.997  1.00  0.00    -0.303 C  
HETATM   14  C   UNL     1     -10.014  11.072  66.105  1.00  0.00    -0.277 C  
HETATM   15  C   UNL     1     -10.422  12.382  66.776  1.00  0.00    -0.242 A  
HETATM   16  C   UNL     1     -10.583  10.926  64.683  1.00  0.00    -0.332 C  
HETATM   17  C   UNL     1     -11.720  12.895  66.565  1.00  0.00    -0.453 A  
HETATM   18  C   UNL     1     -12.127  14.110  67.117  1.00  0.00    -0.432 A  
HETATM   19  C   UNL     1     -11.254  14.838  67.915  1.00  0.00    -0.318 A  
HETATM   20  C   UNL     1      -9.982  14.338  68.175  1.00  0.00    -0.230 A  
HETATM   21  C   UNL     1      -9.566  13.119  67.620  1.00  0.00    -0.210 A  
HETATM   22  I   UNL     1      -7.622  12.497  68.150  1.00  0.00    -0.156 I  
ENDBRANCH  12  13
ENDBRANCH  11  12
ENDBRANCH  10  11
ENDBRANCH   9  10
ENDBRANCH   8   9
ENDBRANCH   7   8
ENDBRANCH   6   7
ENDBRANCH   4   6
ENDBRANCH   3   4
ENDBRANCH   2   3
TORSDOF 10
ENDMDL
MODEL       64
REMARK 921   NORMALIZED FREE ENERGY PREDICTED BY IDOCK:   -4.58 KCAL/MOL
REMARK 922        TOTAL FREE ENERGY PREDICTED BY IDOCK:   -8.66 KCAL/MOL
REMARK 923 INTER-LIGAND FREE ENERGY PREDICTED BY IDOCK:   -7.86 KCAL/MOL
REMARK 924 INTRA-LIGAND FREE ENERGY PREDICTED BY IDOCK:   -0.79 KCAL/MOL
REMARK 927      BINDING AFFINITY PREDICTED BY RF-SCORE:    0.00 PKD
ROOT
HETATM    1  C   UNL     1     -10.807  15.577  65.043  1.00  0.00    -0.468 C  
HETATM    2  C   UNL     1     -11.909  14.631  64.604  1.00  0.00    -0.452 C  
ENDROOT
BRANCH   2   3
HETATM    3  O   UNL     1     -12.437  14.000  65.777  1.00  0.00    -0.463 OA 
BRANCH   3   4
HETATM    4  C   UNL     1     -12.008  12.720  65.972  1.00  0.00    -0.432 C  
HETATM    5  O   UNL     1     -11.827  11.895  65.089  1.00  0.00    -0.266 OA 
BRANCH   4   6
HETATM    6  C   UNL     1     -11.704  12.518  67.434  1.00  0.00    -0.432 C  
BRANCH   6   7
HETATM    7  C   UNL     1     -11.263  11.082  67.694  1.00  0.00    -0.373 C  
BRANCH   7   8
HETATM    8  C   UNL     1     -11.237  10.754  69.182  1.00  0.00    -0.323 C  
BRANCH   8   9
HETATM    9  C   UNL     1     -12.155  11.708  69.944  1.00  0.00    -0.373 C  
BRANCH   9  10
HETATM   10  C   UNL     1     -12.705  11.057  71.207  1.00  0.00    -0.537 C  
BRANCH  10  11
HETATM   11  C   UNL     1     -11.938   9.780  71.547  1.00  0.00    -0.488 C  
BRANCH  11  12
HETATM   12  C   UNL     1     -12.882   8.737  72.136  1.00  0.00    -0.456 C  
BRANCH  12  13
HETATM   13  C   UNL     1     -12.404   7.309  71.864  1.00  0.00    -0.346 C  
HETATM   14  C   UNL     1     -10.867   7.183  71.928  1.00  0.00    -0.255 C  
HETATM   15  C   UNL     1     -10.424   5.792  71.477  1.00  0.00    -0.291 A  
HETATM   16  C   UNL     1     -10.320   7.563  73.316  1.00  0.00    -0.412 C  
HETATM   17  C   UNL     1     -10.340   4.750  72.424  1.00  0.00    -0.261 A  
HETATM   18  C   UNL     1      -9.897   3.473  72.072  1.00  0.00    -0.238 A  
HETATM   19  C   UNL     1      -9.546   3.197  70.757  1.00  0.00    -0.219 A  
HETATM   20  C   UNL     1      -9.658   4.194  69.793  1.00  0.00    -0.281 A  
HETATM   21  C   UNL     1     -10.098   5.480  70.141  1.00  0.00    -0.239 A  
HETATM   22  I   UNL     1     -10.242   6.852  68.546  1.00  0.00    -0.256 I  
ENDBRANCH  12  13
ENDBRANCH  11  12
ENDBRANCH  10  11
ENDBRANCH   9  10
ENDBRANCH   8   9
ENDBRANCH   7   8
ENDBRANCH   6   7
ENDBRANCH   4   6
ENDBRANCH   3   4
ENDBRANCH   2   3
TORSDOF 10
ENDMDL
MODEL       65
REMARK 921   NORMALIZED FREE ENERGY PREDICTED BY IDOCK:   -4.58 KCAL/MOL
REMARK 922        TOTAL FREE ENERGY PREDICTED BY IDOCK:   -8.65 KCAL/MOL
REMARK 923 INTER-LIGAND FREE ENERGY PREDICTED BY IDOCK:   -7.41 KCAL/MOL
REMARK 924 INTRA-LIGAND FREE ENERGY PREDICTED BY IDOCK:   -1.24 KCAL/MOL
REMARK 927      BINDING AFFINITY PREDICTED BY RF-SCORE:    0.00 PKD
ROOT
HETATM    1  C   UNL     1     -11.264  15.918  64.641  1.00  0.00    -0.361 C  
HETATM    2  C   UNL     1     -11.821  14.579  65.089  1.00  0.00    -0.374 C  
ENDROOT
BRANCH   2   3
HETATM    3  O   UNL     1     -12.503  13.993  63.973  1.00  0.00    -0.682 OA 
BRANCH   3   4
HETATM    4  C   UNL     1     -12.143  12.706  63.703  1.00  0.00    -0.547 C  
HETATM    5  O   UNL     1     -12.857  11.873  63.164  1.00  0.00    -0.636 OA 
BRANCH   4   6
HETATM    6  C   UNL     1     -10.700  12.505  64.086  1.00  0.00    -0.423 C  
BRANCH   6   7
HETATM    7  C   UNL     1      -9.977  11.679  63.027  1.00  0.00    -0.321 C  
BRANCH   7   8
HETATM    8  C   UNL     1      -9.764  10.238  63.475  1.00  0.00    -0.255 C  
BRANCH   8   9
HETATM    9  C   UNL     1      -9.614  10.179  64.994  1.00  0.00    -0.362 C  
BRANCH   9  10
HETATM   10  C   UNL     1      -8.648   9.079  65.413  1.00  0.00    -0.200 C  
BRANCH  10  11
HETATM   11  C   UNL     1      -7.753   9.539  66.562  1.00  0.00    -0.097 C  
BRANCH  11  12
HETATM   12  C   UNL     1      -7.814   8.540  67.713  1.00  0.00    -0.103 C  
BRANCH  12  13
HETATM   13  C   UNL     1      -8.675   9.048  68.872  1.00  0.00    -0.136 C  
HETATM   14  C   UNL     1     -10.185   8.933  68.574  1.00  0.00    -0.223 C  
HETATM   15  C   UNL     1     -11.002   9.611  69.673  1.00  0.00    -0.253 A  
HETATM   16  C   UNL     1     -10.609   7.473  68.330  1.00  0.00    -0.177 C  
HETATM   17  C   UNL     1     -11.382   8.871  70.812  1.00  0.00    -0.325 A  
HETATM   18  C   UNL     1     -12.166   9.431  71.822  1.00  0.00    -0.465 A  
HETATM   19  C   UNL     1     -12.575  10.755  71.731  1.00  0.00    -0.382 A  
HETATM   20  C   UNL     1     -12.180  11.523  70.640  1.00  0.00    -0.473 A  
HETATM   21  C   UNL     1     -11.395  10.965  69.620  1.00  0.00    -0.292 A  
HETATM   22  I   UNL     1     -10.861  12.283  68.063  1.00  0.00    -0.324 I  
ENDBRANCH  12  13
ENDBRANCH  11  12
ENDBRANCH  10  11
ENDBRANCH   9  10
ENDBRANCH   8   9
ENDBRANCH   7   8
ENDBRANCH   6   7
ENDBRANCH   4   6
ENDBRANCH   3   4
ENDBRANCH   2   3
TORSDOF 10
ENDMDL
MODEL       66
REMARK 921   NORMALIZED FREE ENERGY PREDICTED BY IDOCK:   -4.57 KCAL/MOL
REMARK 922        TOTAL FREE ENERGY PREDICTED BY IDOCK:   -8.64 KCAL/MOL
REMARK 923 INTER-LIGAND FREE ENERGY PREDICTED BY IDOCK:   -7.71 KCAL/MOL
REMARK 924 INTRA-LIGAND FREE ENERGY PREDICTED BY IDOCK:   -0.94 KCAL/MOL
REMARK 927      BINDING AFFINITY PREDICTED BY RF-SCORE:    0.00 PKD
ROOT
HETATM    1  C   UNL     1     -11.441   6.382  70.907  1.00  0.00    -0.406 C  
HETATM    2  C   UNL     1     -11.227   7.300  72.097  1.00  0.00    -0.252 C  
ENDROOT
BRANCH   2   3
HETATM    3  O   UNL     1     -12.093   8.430  71.938  1.00  0.00    -0.300 OA 
BRANCH   3   4
HETATM    4  C   UNL     1     -11.517   9.502  71.323  1.00  0.00    -0.377 C  
HETATM    5  O   UNL     1     -10.315   9.671  71.180  1.00  0.00    -0.294 OA 
BRANCH   4   6
HETATM    6  C   UNL     1     -12.597  10.393  70.766  1.00  0.00    -0.462 C  
BRANCH   6   7
HETATM    7  C   UNL     1     -12.006  11.716  70.291  1.00  0.00    -0.445 C  
BRANCH   7   8
HETATM    8  C   UNL     1     -11.898  11.778  68.772  1.00  0.00    -0.380 C  
BRANCH   8   9
HETATM    9  C   UNL     1     -11.692  13.223  68.321  1.00  0.00    -0.388 C  
BRANCH   9  10
HETATM   10  C   UNL     1     -10.296  13.719  68.673  1.00  0.00    -0.225 C  
BRANCH  10  11
HETATM   11  C   UNL     1      -9.233  13.016  67.829  1.00  0.00    -0.200 C  
BRANCH  11  12
HETATM   12  C   UNL     1      -8.357  14.043  67.118  1.00  0.00    -0.174 C  
BRANCH  12  13
HETATM   13  C   UNL     1      -8.736  15.479  67.489  1.00  0.00    -0.183 C  
HETATM   14  C   UNL     1      -9.130  16.319  66.256  1.00  0.00    -0.366 C  
HETATM   15  C   UNL     1      -9.326  17.783  66.645  1.00  0.00    -0.296 A  
HETATM   16  C   UNL     1     -10.350  15.727  65.527  1.00  0.00    -0.430 C  
HETATM   17  C   UNL     1     -10.592  18.220  67.086  1.00  0.00    -0.392 A  
HETATM   18  C   UNL     1     -10.835  19.557  67.410  1.00  0.00    -0.536 A  
HETATM   19  C   UNL     1      -9.811  20.490  67.321  1.00  0.00    -0.581 A  
HETATM   20  C   UNL     1      -8.540  20.081  66.929  1.00  0.00    -0.402 A  
HETATM   21  C   UNL     1      -8.291  18.741  66.598  1.00  0.00    -0.288 A  
HETATM   22  I   UNL     1      -6.302  18.294  66.061  1.00  0.00    -0.327 I  
ENDBRANCH  12  13
ENDBRANCH  11  12
ENDBRANCH  10  11
ENDBRANCH   9  10
ENDBRANCH   8   9
ENDBRANCH   7   8
ENDBRANCH   6   7
ENDBRANCH   4   6
ENDBRANCH   3   4
ENDBRANCH   2   3
TORSDOF 10
ENDMDL
MODEL       67
REMARK 921   NORMALIZED FREE ENERGY PREDICTED BY IDOCK:   -4.54 KCAL/MOL
REMARK 922        TOTAL FREE ENERGY PREDICTED BY IDOCK:   -8.60 KCAL/MOL
REMARK 923 INTER-LIGAND FREE ENERGY PREDICTED BY IDOCK:   -7.53 KCAL/MOL
REMARK 924 INTRA-LIGAND FREE ENERGY PREDICTED BY IDOCK:   -1.07 KCAL/MOL
REMARK 927      BINDING AFFINITY PREDICTED BY RF-SCORE:    0.00 PKD
ROOT
HETATM    1  C   UNL     1     -10.782  11.452  63.401  1.00  0.00    -0.405 C  
HETATM    2  C   UNL     1     -12.054  12.033  63.990  1.00  0.00    -0.406 C  
ENDROOT
BRANCH   2   3
HETATM    3  O   UNL     1     -12.218  13.354  63.460  1.00  0.00    -0.648 OA 
BRANCH   3   4
HETATM    4  C   UNL     1     -12.334  14.332  64.403  1.00  0.00    -0.391 C  
HETATM    5  O   UNL     1     -12.276  15.533  64.185  1.00  0.00    -0.588 OA 
BRANCH   4   6
HETATM    6  C   UNL     1     -12.640  13.700  65.736  1.00  0.00    -0.511 C  
BRANCH   6   7
HETATM    7  C   UNL     1     -11.879  14.408  66.851  1.00  0.00    -0.433 C  
BRANCH   7   8
HETATM    8  C   UNL     1     -10.579  13.691  67.199  1.00  0.00    -0.272 C  
BRANCH   8   9
HETATM    9  C   UNL     1     -10.882  12.384  67.928  1.00  0.00    -0.253 C  
BRANCH   9  10
HETATM   10  C   UNL     1     -10.026  11.242  67.395  1.00  0.00    -0.206 C  
BRANCH  10  11
HETATM   11  C   UNL     1     -10.761   9.907  67.502  1.00  0.00    -0.333 C  
BRANCH  11  12
HETATM   12  C   UNL     1      -9.778   8.749  67.362  1.00  0.00    -0.225 C  
BRANCH  12  13
HETATM   13  C   UNL     1      -9.645   7.946  68.658  1.00  0.00    -0.155 C  
HETATM   14  C   UNL     1     -10.857   7.023  68.903  1.00  0.00    -0.203 C  
HETATM   15  C   UNL     1     -10.769   6.379  70.286  1.00  0.00    -0.322 A  
HETATM   16  C   UNL     1     -11.025   5.991  67.774  1.00  0.00    -0.333 C  
HETATM   17  C   UNL     1     -10.074   5.161  70.441  1.00  0.00    -0.333 A  
HETATM   18  C   UNL     1     -10.004   4.509  71.674  1.00  0.00    -0.266 A  
HETATM   19  C   UNL     1     -10.609   5.069  72.792  1.00  0.00    -0.274 A  
HETATM   20  C   UNL     1     -11.266   6.290  72.678  1.00  0.00    -0.302 A  
HETATM   21  C   UNL     1     -11.344   6.948  71.442  1.00  0.00    -0.270 A  
HETATM   22  I   UNL     1     -12.345   8.803  71.463  1.00  0.00    -0.404 I  
ENDBRANCH  12  13
ENDBRANCH  11  12
ENDBRANCH  10  11
ENDBRANCH   9  10
ENDBRANCH   8   9
ENDBRANCH   7   8
ENDBRANCH   6   7
ENDBRANCH   4   6
ENDBRANCH   3   4
ENDBRANCH   2   3
TORSDOF 10
ENDMDL
MODEL       68
REMARK 921   NORMALIZED FREE ENERGY PREDICTED BY IDOCK:   -4.54 KCAL/MOL
REMARK 922        TOTAL FREE ENERGY PREDICTED BY IDOCK:   -8.59 KCAL/MOL
REMARK 923 INTER-LIGAND FREE ENERGY PREDICTED BY IDOCK:   -7.31 KCAL/MOL
REMARK 924 INTRA-LIGAND FREE ENERGY PREDICTED BY IDOCK:   -1.28 KCAL/MOL
REMARK 927      BINDING AFFINITY PREDICTED BY RF-SCORE:    0.00 PKD
ROOT
HETATM    1  C   UNL     1     -10.905  19.705  65.855  1.00  0.00    -0.420 C  
HETATM    2  C   UNL     1      -9.917  18.724  66.460  1.00  0.00    -0.380 C  
ENDROOT
BRANCH   2   3
HETATM    3  O   UNL     1      -8.867  19.482  67.073  1.00  0.00    -0.286 OA 
BRANCH   3   4
HETATM    4  C   UNL     1      -8.867  19.448  68.436  1.00  0.00    -0.352 C  
HETATM    5  O   UNL     1      -9.846  19.234  69.136  1.00  0.00    -0.412 OA 
BRANCH   4   6
HETATM    6  C   UNL     1      -7.456  19.621  68.935  1.00  0.00    -0.358 C  
BRANCH   6   7
HETATM    7  C   UNL     1      -6.528  18.607  68.276  1.00  0.00    -0.224 C  
BRANCH   7   8
HETATM    8  C   UNL     1      -6.605  17.242  68.949  1.00  0.00    -0.212 C  
BRANCH   8   9
HETATM    9  C   UNL     1      -7.074  16.189  67.946  1.00  0.00    -0.147 C  
BRANCH   9  10
HETATM   10  C   UNL     1      -8.503  15.749  68.233  1.00  0.00    -0.164 C  
BRANCH  10  11
HETATM   11  C   UNL     1      -9.141  15.111  66.999  1.00  0.00    -0.249 C  
BRANCH  11  12
HETATM   12  C   UNL     1      -8.986  13.595  67.047  1.00  0.00    -0.244 C  
BRANCH  12  13
HETATM   13  C   UNL     1      -9.671  12.984  68.272  1.00  0.00    -0.221 C  
HETATM   14  C   UNL     1     -11.210  12.989  68.146  1.00  0.00    -0.305 C  
HETATM   15  C   UNL     1     -11.856  12.540  69.456  1.00  0.00    -0.375 A  
HETATM   16  C   UNL     1     -11.686  12.170  66.934  1.00  0.00    -0.374 C  
HETATM   17  C   UNL     1     -12.087  11.167  69.680  1.00  0.00    -0.406 A  
HETATM   18  C   UNL     1     -12.716  10.709  70.840  1.00  0.00    -0.498 A  
HETATM   19  C   UNL     1     -13.112  11.611  71.818  1.00  0.00    -0.487 A  
HETATM   20  C   UNL     1     -12.859  12.969  71.644  1.00  0.00    -0.376 A  
HETATM   21  C   UNL     1     -12.232  13.435  70.479  1.00  0.00    -0.352 A  
HETATM   22  I   UNL     1     -11.896  15.515  70.401  1.00  0.00    -0.467 I  
ENDBRANCH  12  13
ENDBRANCH  11  12
ENDBRANCH  10  11
ENDBRANCH   9  10
ENDBRANCH   8   9
ENDBRANCH   7   8
ENDBRANCH   6   7
ENDBRANCH   4   6
ENDBRANCH   3   4
ENDBRANCH   2   3
TORSDOF 10
ENDMDL
MODEL       69
REMARK 921   NORMALIZED FREE ENERGY PREDICTED BY IDOCK:   -4.52 KCAL/MOL
REMARK 922        TOTAL FREE ENERGY PREDICTED BY IDOCK:   -8.57 KCAL/MOL
REMARK 923 INTER-LIGAND FREE ENERGY PREDICTED BY IDOCK:   -7.61 KCAL/MOL
REMARK 924 INTRA-LIGAND FREE ENERGY PREDICTED BY IDOCK:   -0.96 KCAL/MOL
REMARK 927      BINDING AFFINITY PREDICTED BY RF-SCORE:    0.00 PKD
ROOT
HETATM    1  C   UNL     1      -6.696  10.672  62.450  1.00  0.00    -0.130 C  
HETATM    2  C   UNL     1      -8.080  10.057  62.355  1.00  0.00    -0.133 C  
ENDROOT
BRANCH   2   3
HETATM    3  O   UNL     1      -8.994  10.929  63.031  1.00  0.00    -0.223 OA 
BRANCH   3   4
HETATM    4  C   UNL     1      -9.580  10.388  64.136  1.00  0.00    -0.322 C  
HETATM    5  O   UNL     1      -9.128   9.460  64.791  1.00  0.00    -0.227 OA 
BRANCH   4   6
HETATM    6  C   UNL     1     -10.819  11.175  64.475  1.00  0.00    -0.320 C  
BRANCH   6   7
HETATM    7  C   UNL     1     -10.955  12.381  63.552  1.00  0.00    -0.506 C  
BRANCH   7   8
HETATM    8  C   UNL     1     -12.218  13.183  63.845  1.00  0.00    -0.503 C  
BRANCH   8   9
HETATM    9  C   UNL     1     -11.887  14.366  64.753  1.00  0.00    -0.439 C  
BRANCH   9  10
HETATM   10  C   UNL     1     -10.384  14.520  64.936  1.00  0.00    -0.401 C  
BRANCH  10  11
HETATM   11  C   UNL     1     -10.029  14.765  66.403  1.00  0.00    -0.291 C  
BRANCH  11  12
HETATM   12  C   UNL     1     -11.138  15.555  67.090  1.00  0.00    -0.256 C  
BRANCH  12  13
HETATM   13  C   UNL     1     -11.934  14.694  68.074  1.00  0.00    -0.292 C  
HETATM   14  C   UNL     1     -11.091  14.268  69.294  1.00  0.00    -0.297 C  
HETATM   15  C   UNL     1     -11.862  13.269  70.156  1.00  0.00    -0.333 A  
HETATM   16  C   UNL     1     -10.588  15.483  70.094  1.00  0.00    -0.336 C  
HETATM   17  C   UNL     1     -12.714  13.744  71.174  1.00  0.00    -0.438 A  
HETATM   18  C   UNL     1     -13.406  12.873  72.018  1.00  0.00    -0.579 A  
HETATM   19  C   UNL     1     -13.280  11.500  71.853  1.00  0.00    -0.479 A  
HETATM   20  C   UNL     1     -12.479  11.001  70.830  1.00  0.00    -0.509 A  
HETATM   21  C   UNL     1     -11.779  11.872  69.982  1.00  0.00    -0.286 A  
HETATM   22  I   UNL     1     -10.644  10.943  68.467  1.00  0.00    -0.306 I  
ENDBRANCH  12  13
ENDBRANCH  11  12
ENDBRANCH  10  11
ENDBRANCH   9  10
ENDBRANCH   8   9
ENDBRANCH   7   8
ENDBRANCH   6   7
ENDBRANCH   4   6
ENDBRANCH   3   4
ENDBRANCH   2   3
TORSDOF 10
ENDMDL
MODEL       70
REMARK 921   NORMALIZED FREE ENERGY PREDICTED BY IDOCK:   -4.52 KCAL/MOL
REMARK 922        TOTAL FREE ENERGY PREDICTED BY IDOCK:   -8.57 KCAL/MOL
REMARK 923 INTER-LIGAND FREE ENERGY PREDICTED BY IDOCK:   -7.71 KCAL/MOL
REMARK 924 INTRA-LIGAND FREE ENERGY PREDICTED BY IDOCK:   -0.86 KCAL/MOL
REMARK 927      BINDING AFFINITY PREDICTED BY RF-SCORE:    0.00 PKD
ROOT
HETATM    1  C   UNL     1      -9.771   4.612  68.989  1.00  0.00    -0.242 C  
HETATM    2  C   UNL     1     -10.577   5.730  69.624  1.00  0.00    -0.326 C  
ENDROOT
BRANCH   2   3
HETATM    3  O   UNL     1     -10.295   5.729  71.029  1.00  0.00    -0.209 OA 
BRANCH   3   4
HETATM    4  C   UNL     1     -11.230   6.361  71.794  1.00  0.00    -0.277 C  
HETATM    5  O   UNL     1     -11.241   6.388  73.016  1.00  0.00    -0.229 OA 
BRANCH   4   6
HETATM    6  C   UNL     1     -12.188   7.099  70.895  1.00  0.00    -0.354 C  
BRANCH   6   7
HETATM    7  C   UNL     1     -13.586   7.116  71.503  1.00  0.00    -0.408 C  
BRANCH   7   8
HETATM    8  C   UNL     1     -14.067   8.535  71.786  1.00  0.00    -0.515 C  
BRANCH   8   9
HETATM    9  C   UNL     1     -12.875   9.486  71.866  1.00  0.00    -0.508 C  
BRANCH   9  10
HETATM   10  C   UNL     1     -12.946  10.555  70.784  1.00  0.00    -0.413 C  
BRANCH  10  11
HETATM   11  C   UNL     1     -11.549  11.036  70.393  1.00  0.00    -0.389 C  
BRANCH  11  12
HETATM   12  C   UNL     1     -11.055  10.281  69.163  1.00  0.00    -0.283 C  
BRANCH  12  13
HETATM   13  C   UNL     1     -11.613  10.867  67.864  1.00  0.00    -0.270 C  
HETATM   14  C   UNL     1     -10.506  11.455  66.963  1.00  0.00    -0.271 C  
HETATM   15  C   UNL     1     -11.119  12.186  65.769  1.00  0.00    -0.362 A  
HETATM   16  C   UNL     1      -9.482  10.385  66.546  1.00  0.00    -0.204 C  
HETATM   17  C   UNL     1     -11.408  11.467  64.590  1.00  0.00    -0.226 A  
HETATM   18  C   UNL     1     -11.925  12.097  63.456  1.00  0.00    -0.619 A  
HETATM   19  C   UNL     1     -12.188  13.460  63.477  1.00  0.00    -0.468 A  
HETATM   20  C   UNL     1     -11.953  14.187  64.640  1.00  0.00    -0.459 A  
HETATM   21  C   UNL     1     -11.429  13.561  65.781  1.00  0.00    -0.315 A  
HETATM   22  I   UNL     1     -11.171  14.809  67.461  1.00  0.00    -0.359 I  
ENDBRANCH  12  13
ENDBRANCH  11  12
ENDBRANCH  10  11
ENDBRANCH   9  10
ENDBRANCH   8   9
ENDBRANCH   7   8
ENDBRANCH   6   7
ENDBRANCH   4   6
ENDBRANCH   3   4
ENDBRANCH   2   3
TORSDOF 10
ENDMDL
MODEL       71
REMARK 921   NORMALIZED FREE ENERGY PREDICTED BY IDOCK:   -4.51 KCAL/MOL
REMARK 922        TOTAL FREE ENERGY PREDICTED BY IDOCK:   -8.55 KCAL/MOL
REMARK 923 INTER-LIGAND FREE ENERGY PREDICTED BY IDOCK:   -6.85 KCAL/MOL
REMARK 924 INTRA-LIGAND FREE ENERGY PREDICTED BY IDOCK:   -1.70 KCAL/MOL
REMARK 927      BINDING AFFINITY PREDICTED BY RF-SCORE:    0.00 PKD
ROOT
HETATM    1  C   UNL     1      -9.853  10.543  64.568  1.00  0.00    -0.401 C  
HETATM    2  C   UNL     1     -10.530  11.348  63.475  1.00  0.00    -0.417 C  
ENDROOT
BRANCH   2   3
HETATM    3  O   UNL     1     -10.677  12.692  63.949  1.00  0.00    -0.391 OA 
BRANCH   3   4
HETATM    4  C   UNL     1     -11.963  13.143  63.982  1.00  0.00    -0.460 C  
HETATM    5  O   UNL     1     -12.955  12.461  63.770  1.00  0.00    -0.751 OA 
BRANCH   4   6
HETATM    6  C   UNL     1     -11.971  14.587  64.414  1.00  0.00    -0.467 C  
BRANCH   6   7
HETATM    7  C   UNL     1     -10.553  15.065  64.705  1.00  0.00    -0.319 C  
BRANCH   7   8
HETATM    8  C   UNL     1     -10.373  15.459  66.166  1.00  0.00    -0.325 C  
BRANCH   8   9
HETATM    9  C   UNL     1     -10.022  14.229  67.001  1.00  0.00    -0.258 C  
BRANCH   9  10
HETATM   10  C   UNL     1     -10.871  14.156  68.263  1.00  0.00    -0.259 C  
BRANCH  10  11
HETATM   11  C   UNL     1     -12.006  13.145  68.106  1.00  0.00    -0.333 C  
BRANCH  11  12
HETATM   12  C   UNL     1     -11.476  11.841  67.517  1.00  0.00    -0.373 C  
BRANCH  12  13
HETATM   13  C   UNL     1     -11.313  10.753  68.582  1.00  0.00    -0.356 C  
HETATM   14  C   UNL     1      -9.903  10.125  68.568  1.00  0.00    -0.165 C  
HETATM   15  C   UNL     1      -9.840   8.930  69.516  1.00  0.00    -0.180 A  
HETATM   16  C   UNL     1      -8.810  11.171  68.851  1.00  0.00    -0.086 C  
HETATM   17  C   UNL     1      -9.507   9.136  70.871  1.00  0.00    -0.343 A  
HETATM   18  C   UNL     1      -9.391   8.072  71.768  1.00  0.00    -0.218 A  
HETATM   19  C   UNL     1      -9.625   6.773  71.339  1.00  0.00    -0.170 A  
HETATM   20  C   UNL     1      -9.996   6.542  70.018  1.00  0.00    -0.193 A  
HETATM   21  C   UNL     1     -10.111   7.606  69.111  1.00  0.00    -0.194 A  
HETATM   22  I   UNL     1     -10.718   7.076  67.163  1.00  0.00    -0.196 I  
ENDBRANCH  12  13
ENDBRANCH  11  12
ENDBRANCH  10  11
ENDBRANCH   9  10
ENDBRANCH   8   9
ENDBRANCH   7   8
ENDBRANCH   6   7
ENDBRANCH   4   6
ENDBRANCH   3   4
ENDBRANCH   2   3
TORSDOF 10
ENDMDL
MODEL       72
REMARK 921   NORMALIZED FREE ENERGY PREDICTED BY IDOCK:   -4.50 KCAL/MOL
REMARK 922        TOTAL FREE ENERGY PREDICTED BY IDOCK:   -8.53 KCAL/MOL
REMARK 923 INTER-LIGAND FREE ENERGY PREDICTED BY IDOCK:   -7.04 KCAL/MOL
REMARK 924 INTRA-LIGAND FREE ENERGY PREDICTED BY IDOCK:   -1.49 KCAL/MOL
REMARK 927      BINDING AFFINITY PREDICTED BY RF-SCORE:    0.00 PKD
ROOT
HETATM    1  C   UNL     1     -12.690  11.922  63.630  1.00  0.00    -0.509 C  
HETATM    2  C   UNL     1     -11.459  12.707  63.217  1.00  0.00    -0.306 C  
ENDROOT
BRANCH   2   3
HETATM    3  O   UNL     1     -11.025  13.468  64.352  1.00  0.00    -0.378 OA 
BRANCH   3   4
HETATM    4  C   UNL     1     -11.737  14.610  64.573  1.00  0.00    -0.401 C  
HETATM    5  O   UNL     1     -12.634  15.031  63.857  1.00  0.00    -0.813 OA 
BRANCH   4   6
HETATM    6  C   UNL     1     -11.309  15.214  65.885  1.00  0.00    -0.225 C  
BRANCH   6   7
HETATM    7  C   UNL     1      -9.807  15.046  66.086  1.00  0.00    -0.325 C  
BRANCH   7   8
HETATM    8  C   UNL     1      -9.418  15.111  67.558  1.00  0.00    -0.206 C  
BRANCH   8   9
HETATM    9  C   UNL     1     -10.373  16.035  68.311  1.00  0.00    -0.261 C  
BRANCH   9  10
HETATM   10  C   UNL     1     -10.644  15.524  69.719  1.00  0.00    -0.301 C  
BRANCH  10  11
HETATM   11  C   UNL     1     -12.138  15.557  70.040  1.00  0.00    -0.391 C  
BRANCH  11  12
HETATM   12  C   UNL     1     -12.664  14.142  70.256  1.00  0.00    -0.287 C  
BRANCH  12  13
HETATM   13  C   UNL     1     -11.536  13.107  70.294  1.00  0.00    -0.079 C  
HETATM   14  C   UNL     1     -11.792  11.926  69.333  1.00  0.00    -0.389 C  
HETATM   15  C   UNL     1     -10.740  10.836  69.532  1.00  0.00    -0.268 A  
HETATM   16  C   UNL     1     -11.900  12.393  67.871  1.00  0.00    -0.370 C  
HETATM   17  C   UNL     1      -9.534  10.896  68.803  1.00  0.00    -0.196 A  
HETATM   18  C   UNL     1      -8.560   9.901  68.914  1.00  0.00    -0.135 A  
HETATM   19  C   UNL     1      -8.757   8.829  69.774  1.00  0.00    -0.133 A  
HETATM   20  C   UNL     1      -9.918   8.765  70.537  1.00  0.00    -0.227 A  
HETATM   21  C   UNL     1     -10.902   9.759  70.427  1.00  0.00    -0.311 A  
HETATM   22  I   UNL     1     -12.577   9.520  71.685  1.00  0.00    -0.525 I  
ENDBRANCH  12  13
ENDBRANCH  11  12
ENDBRANCH  10  11
ENDBRANCH   9  10
ENDBRANCH   8   9
ENDBRANCH   7   8
ENDBRANCH   6   7
ENDBRANCH   4   6
ENDBRANCH   3   4
ENDBRANCH   2   3
TORSDOF 10
ENDMDL
MODEL       73
REMARK 921   NORMALIZED FREE ENERGY PREDICTED BY IDOCK:   -4.50 KCAL/MOL
REMARK 922        TOTAL FREE ENERGY PREDICTED BY IDOCK:   -8.53 KCAL/MOL
REMARK 923 INTER-LIGAND FREE ENERGY PREDICTED BY IDOCK:   -7.18 KCAL/MOL
REMARK 924 INTRA-LIGAND FREE ENERGY PREDICTED BY IDOCK:   -1.34 KCAL/MOL
REMARK 927      BINDING AFFINITY PREDICTED BY RF-SCORE:    0.00 PKD
ROOT
HETATM    1  C   UNL     1     -13.080  10.694  71.706  1.00  0.00    -0.571 C  
HETATM    2  C   UNL     1     -13.388   9.276  72.151  1.00  0.00    -0.468 C  
ENDROOT
BRANCH   2   3
HETATM    3  O   UNL     1     -12.841   8.383  71.173  1.00  0.00    -0.219 OA 
BRANCH   3   4
HETATM    4  C   UNL     1     -12.038   7.407  71.685  1.00  0.00    -0.317 C  
HETATM    5  O   UNL     1     -12.395   6.270  71.956  1.00  0.00    -0.328 OA 
BRANCH   4   6
HETATM    6  C   UNL     1     -10.625   7.924  71.771  1.00  0.00    -0.276 C  
BRANCH   6   7
HETATM    7  C   UNL     1     -10.117   8.322  70.390  1.00  0.00    -0.199 C  
BRANCH   7   8
HETATM    8  C   UNL     1      -9.501   9.716  70.390  1.00  0.00    -0.280 C  
BRANCH   8   9
HETATM    9  C   UNL     1      -9.631  10.345  69.004  1.00  0.00    -0.212 C  
BRANCH   9  10
HETATM   10  C   UNL     1     -11.057  10.239  68.480  1.00  0.00    -0.294 C  
BRANCH  10  11
HETATM   11  C   UNL     1     -11.727  11.612  68.425  1.00  0.00    -0.374 C  
BRANCH  11  12
HETATM   12  C   UNL     1     -11.875  12.071  66.978  1.00  0.00    -0.251 C  
BRANCH  12  13
HETATM   13  C   UNL     1     -11.817  13.595  66.848  1.00  0.00    -0.451 C  
HETATM   14  C   UNL     1     -10.439  14.164  67.248  1.00  0.00    -0.272 C  
HETATM   15  C   UNL     1     -10.478  15.691  67.277  1.00  0.00    -0.292 A  
HETATM   16  C   UNL     1      -9.313  13.613  66.355  1.00  0.00    -0.203 C  
HETATM   17  C   UNL     1     -10.203  16.415  66.097  1.00  0.00    -0.363 A  
HETATM   18  C   UNL     1     -10.182  17.811  66.081  1.00  0.00    -0.339 A  
HETATM   19  C   UNL     1     -10.456  18.523  67.241  1.00  0.00    -0.455 A  
HETATM   20  C   UNL     1     -10.772  17.838  68.410  1.00  0.00    -0.205 A  
HETATM   21  C   UNL     1     -10.791  16.435  68.433  1.00  0.00    -0.342 A  
HETATM   22  I   UNL     1     -11.326  15.566  70.278  1.00  0.00    -0.472 I  
ENDBRANCH  12  13
ENDBRANCH  11  12
ENDBRANCH  10  11
ENDBRANCH   9  10
ENDBRANCH   8   9
ENDBRANCH   7   8
ENDBRANCH   6   7
ENDBRANCH   4   6
ENDBRANCH   3   4
ENDBRANCH   2   3
TORSDOF 10
ENDMDL
MODEL       74
REMARK 921   NORMALIZED FREE ENERGY PREDICTED BY IDOCK:   -4.48 KCAL/MOL
REMARK 922        TOTAL FREE ENERGY PREDICTED BY IDOCK:   -8.50 KCAL/MOL
REMARK 923 INTER-LIGAND FREE ENERGY PREDICTED BY IDOCK:   -7.42 KCAL/MOL
REMARK 924 INTRA-LIGAND FREE ENERGY PREDICTED BY IDOCK:   -1.08 KCAL/MOL
REMARK 927      BINDING AFFINITY PREDICTED BY RF-SCORE:    0.00 PKD
ROOT
HETATM    1  C   UNL     1      -7.742   2.776  67.698  1.00  0.00    -0.061 C  
HETATM    2  C   UNL     1      -9.242   2.829  67.472  1.00  0.00    -0.187 C  
ENDROOT
BRANCH   2   3
HETATM    3  O   UNL     1      -9.721   4.070  68.005  1.00  0.00    -0.154 OA 
BRANCH   3   4
HETATM    4  C   UNL     1     -10.234   4.925  67.075  1.00  0.00    -0.187 C  
HETATM    5  O   UNL     1     -10.269   4.718  65.871  1.00  0.00    -0.231 OA 
BRANCH   4   6
HETATM    6  C   UNL     1     -10.834   6.116  67.776  1.00  0.00    -0.413 C  
BRANCH   6   7
HETATM    7  C   UNL     1     -10.726   5.958  69.288  1.00  0.00    -0.401 C  
BRANCH   7   8
HETATM    8  C   UNL     1     -11.850   6.683  70.019  1.00  0.00    -0.301 C  
BRANCH   8   9
HETATM    9  C   UNL     1     -11.736   6.441  71.523  1.00  0.00    -0.369 C  
BRANCH   9  10
HETATM   10  C   UNL     1     -11.982   7.722  72.310  1.00  0.00    -0.356 C  
BRANCH  10  11
HETATM   11  C   UNL     1     -13.164   8.502  71.736  1.00  0.00    -0.392 C  
BRANCH  11  12
HETATM   12  C   UNL     1     -12.916  10.002  71.856  1.00  0.00    -0.547 C  
BRANCH  12  13
HETATM   13  C   UNL     1     -12.941  10.700  70.494  1.00  0.00    -0.277 C  
HETATM   14  C   UNL     1     -11.565  11.285  70.109  1.00  0.00    -0.393 C  
HETATM   15  C   UNL     1     -11.675  12.123  68.837  1.00  0.00    -0.381 A  
HETATM   16  C   UNL     1     -10.487  10.190  70.012  1.00  0.00    -0.325 C  
HETATM   17  C   UNL     1     -11.528  11.498  67.580  1.00  0.00    -0.357 A  
HETATM   18  C   UNL     1     -11.575  12.227  66.390  1.00  0.00    -0.445 A  
HETATM   19  C   UNL     1     -11.791  13.598  66.422  1.00  0.00    -0.433 A  
HETATM   20  C   UNL     1     -11.981  14.235  67.644  1.00  0.00    -0.400 A  
HETATM   21  C   UNL     1     -11.931  13.509  68.844  1.00  0.00    -0.341 A  
HETATM   22  I   UNL     1     -12.278  14.630  70.596  1.00  0.00    -0.473 I  
ENDBRANCH  12  13
ENDBRANCH  11  12
ENDBRANCH  10  11
ENDBRANCH   9  10
ENDBRANCH   8   9
ENDBRANCH   7   8
ENDBRANCH   6   7
ENDBRANCH   4   6
ENDBRANCH   3   4
ENDBRANCH   2   3
TORSDOF 10
ENDMDL
MODEL       75
REMARK 921   NORMALIZED FREE ENERGY PREDICTED BY IDOCK:   -4.48 KCAL/MOL
REMARK 922        TOTAL FREE ENERGY PREDICTED BY IDOCK:   -8.49 KCAL/MOL
REMARK 923 INTER-LIGAND FREE ENERGY PREDICTED BY IDOCK:   -6.96 KCAL/MOL
REMARK 924 INTRA-LIGAND FREE ENERGY PREDICTED BY IDOCK:   -1.53 KCAL/MOL
REMARK 927      BINDING AFFINITY PREDICTED BY RF-SCORE:    0.00 PKD
ROOT
HETATM    1  C   UNL     1     -10.454   8.680  71.706  1.00  0.00    -0.394 C  
HETATM    2  C   UNL     1      -9.137   8.472  70.980  1.00  0.00    -0.179 C  
ENDROOT
BRANCH   2   3
HETATM    3  O   UNL     1      -8.815   9.692  70.300  1.00  0.00    -0.223 OA 
BRANCH   3   4
HETATM    4  C   UNL     1      -8.370   9.527  69.022  1.00  0.00    -0.126 C  
HETATM    5  O   UNL     1      -8.308   8.459  68.429  1.00  0.00    -0.128 OA 
BRANCH   4   6
HETATM    6  C   UNL     1      -8.060  10.876  68.427  1.00  0.00    -0.131 C  
BRANCH   6   7
HETATM    7  C   UNL     1      -9.347  11.639  68.134  1.00  0.00    -0.188 C  
BRANCH   7   8
HETATM    8  C   UNL     1     -10.080  11.077  66.922  1.00  0.00    -0.248 C  
BRANCH   8   9
HETATM    9  C   UNL     1     -11.469  11.703  66.813  1.00  0.00    -0.299 C  
BRANCH   9  10
HETATM   10  C   UNL     1     -11.587  12.576  65.570  1.00  0.00    -0.429 C  
BRANCH  10  11
HETATM   11  C   UNL     1     -12.212  13.929  65.905  1.00  0.00    -0.497 C  
BRANCH  11  12
HETATM   12  C   UNL     1     -11.320  14.699  66.874  1.00  0.00    -0.361 C  
BRANCH  12  13
HETATM   13  C   UNL     1     -12.009  14.947  68.218  1.00  0.00    -0.245 C  
HETATM   14  C   UNL     1     -11.096  14.609  69.416  1.00  0.00    -0.293 C  
HETATM   15  C   UNL     1     -11.877  14.698  70.726  1.00  0.00    -0.372 A  
HETATM   16  C   UNL     1      -9.820  15.469  69.421  1.00  0.00    -0.283 C  
HETATM   17  C   UNL     1     -11.957  15.933  71.403  1.00  0.00    -0.515 A  
HETATM   18  C   UNL     1     -12.619  16.057  72.626  1.00  0.00    -0.551 A  
HETATM   19  C   UNL     1     -13.238  14.953  73.196  1.00  0.00    -0.568 A  
HETATM   20  C   UNL     1     -13.212  13.731  72.531  1.00  0.00    -0.599 A  
HETATM   21  C   UNL     1     -12.545  13.599  71.304  1.00  0.00    -0.351 A  
HETATM   22  I   UNL     1     -12.640  11.686  70.422  1.00  0.00     0.023 I  
ENDBRANCH  12  13
ENDBRANCH  11  12
ENDBRANCH  10  11
ENDBRANCH   9  10
ENDBRANCH   8   9
ENDBRANCH   7   8
ENDBRANCH   6   7
ENDBRANCH   4   6
ENDBRANCH   3   4
ENDBRANCH   2   3
TORSDOF 10
ENDMDL
MODEL       76
REMARK 921   NORMALIZED FREE ENERGY PREDICTED BY IDOCK:   -4.46 KCAL/MOL
REMARK 922        TOTAL FREE ENERGY PREDICTED BY IDOCK:   -8.47 KCAL/MOL
REMARK 923 INTER-LIGAND FREE ENERGY PREDICTED BY IDOCK:   -6.85 KCAL/MOL
REMARK 924 INTRA-LIGAND FREE ENERGY PREDICTED BY IDOCK:   -1.62 KCAL/MOL
REMARK 927      BINDING AFFINITY PREDICTED BY RF-SCORE:    0.00 PKD
ROOT
HETATM    1  C   UNL     1     -12.812  10.336  71.107  1.00  0.00    -0.504 C  
HETATM    2  C   UNL     1     -11.420   9.752  71.267  1.00  0.00    -0.385 C  
ENDROOT
BRANCH   2   3
HETATM    3  O   UNL     1     -10.961   9.354  69.969  1.00  0.00    -0.230 OA 
BRANCH   3   4
HETATM    4  C   UNL     1      -9.890  10.059  69.507  1.00  0.00    -0.229 C  
HETATM    5  O   UNL     1      -8.731   9.890  69.857  1.00  0.00    -0.205 OA 
BRANCH   4   6
HETATM    6  C   UNL     1     -10.348  11.008  68.430  1.00  0.00    -0.200 C  
BRANCH   6   7
HETATM    7  C   UNL     1     -10.543  10.267  67.112  1.00  0.00    -0.320 C  
BRANCH   7   8
HETATM    8  C   UNL     1      -9.856  10.977  65.952  1.00  0.00    -0.278 C  
BRANCH   8   9
HETATM    9  C   UNL     1     -10.840  11.166  64.798  1.00  0.00    -0.277 C  
BRANCH   9  10
HETATM   10  C   UNL     1     -10.518  12.420  63.996  1.00  0.00    -0.443 C  
BRANCH  10  11
HETATM   11  C   UNL     1     -11.794  13.157  63.590  1.00  0.00    -0.549 C  
BRANCH  11  12
HETATM   12  C   UNL     1     -11.857  14.520  64.272  1.00  0.00    -0.368 C  
BRANCH  12  13
HETATM   13  C   UNL     1     -10.684  14.739  65.231  1.00  0.00    -0.406 C  
HETATM   14  C   UNL     1     -11.151  15.167  66.639  1.00  0.00    -0.308 C  
HETATM   15  C   UNL     1      -9.953  15.547  67.508  1.00  0.00    -0.230 A  
HETATM   16  C   UNL     1     -12.047  14.099  67.292  1.00  0.00    -0.407 C  
HETATM   17  C   UNL     1      -9.294  14.549  68.257  1.00  0.00    -0.203 A  
HETATM   18  C   UNL     1      -8.224  14.852  69.101  1.00  0.00    -0.151 A  
HETATM   19  C   UNL     1      -7.768  16.160  69.203  1.00  0.00    -0.230 A  
HETATM   20  C   UNL     1      -8.371  17.159  68.445  1.00  0.00    -0.251 A  
HETATM   21  C   UNL     1      -9.449  16.861  67.598  1.00  0.00    -0.241 A  
HETATM   22  I   UNL     1     -10.214  18.490  66.498  1.00  0.00    -0.434 I  
ENDBRANCH  12  13
ENDBRANCH  11  12
ENDBRANCH  10  11
ENDBRANCH   9  10
ENDBRANCH   8   9
ENDBRANCH   7   8
ENDBRANCH   6   7
ENDBRANCH   4   6
ENDBRANCH   3   4
ENDBRANCH   2   3
TORSDOF 10
ENDMDL
MODEL       77
REMARK 921   NORMALIZED FREE ENERGY PREDICTED BY IDOCK:   -4.45 KCAL/MOL
REMARK 922        TOTAL FREE ENERGY PREDICTED BY IDOCK:   -8.45 KCAL/MOL
REMARK 923 INTER-LIGAND FREE ENERGY PREDICTED BY IDOCK:   -7.29 KCAL/MOL
REMARK 924 INTRA-LIGAND FREE ENERGY PREDICTED BY IDOCK:   -1.15 KCAL/MOL
REMARK 927      BINDING AFFINITY PREDICTED BY RF-SCORE:    0.00 PKD
ROOT
HETATM    1  C   UNL     1     -10.405  19.712  67.736  1.00  0.00    -0.586 C  
HETATM    2  C   UNL     1     -10.777  18.337  67.212  1.00  0.00    -0.337 C  
ENDROOT
BRANCH   2   3
HETATM    3  O   UNL     1     -10.226  18.207  65.896  1.00  0.00    -0.548 OA 
BRANCH   3   4
HETATM    4  C   UNL     1     -10.518  17.030  65.274  1.00  0.00    -0.037 C  
HETATM    5  O   UNL     1     -11.255  16.907  64.307  1.00  0.00    -1.204 OA 
BRANCH   4   6
HETATM    6  C   UNL     1      -9.714  15.923  65.907  1.00  0.00    -0.386 C  
BRANCH   6   7
HETATM    7  C   UNL     1     -10.346  14.568  65.611  1.00  0.00    -0.367 C  
BRANCH   7   8
HETATM    8  C   UNL     1     -11.676  14.389  66.334  1.00  0.00    -0.397 C  
BRANCH   8   9
HETATM    9  C   UNL     1     -12.620  13.534  65.489  1.00  0.00    -0.531 C  
BRANCH   9  10
HETATM   10  C   UNL     1     -11.980  13.150  64.162  1.00  0.00    -0.499 C  
BRANCH  10  11
HETATM   11  C   UNL     1     -11.851  11.633  64.031  1.00  0.00    -0.307 C  
BRANCH  11  12
HETATM   12  C   UNL     1     -10.451  11.184  64.437  1.00  0.00    -0.418 C  
BRANCH  12  13
HETATM   13  C   UNL     1     -10.435  10.525  65.818  1.00  0.00    -0.214 C  
HETATM   14  C   UNL     1      -9.017  10.476  66.427  1.00  0.00    -0.174 C  
HETATM   15  C   UNL     1      -9.016   9.655  67.716  1.00  0.00    -0.122 A  
HETATM   16  C   UNL     1      -8.428  11.885  66.616  1.00  0.00    -0.143 C  
HETATM   17  C   UNL     1      -9.296  10.292  68.944  1.00  0.00    -0.180 A  
HETATM   18  C   UNL     1      -9.262   9.597  70.154  1.00  0.00    -0.287 A  
HETATM   19  C   UNL     1      -8.969   8.240  70.169  1.00  0.00    -0.142 A  
HETATM   20  C   UNL     1      -8.730   7.576  68.970  1.00  0.00    -0.136 A  
HETATM   21  C   UNL     1      -8.758   8.269  67.751  1.00  0.00    -0.134 A  
HETATM   22  I   UNL     1      -8.410   7.097  66.032  1.00  0.00    -0.145 I  
ENDBRANCH  12  13
ENDBRANCH  11  12
ENDBRANCH  10  11
ENDBRANCH   9  10
ENDBRANCH   8   9
ENDBRANCH   7   8
ENDBRANCH   6   7
ENDBRANCH   4   6
ENDBRANCH   3   4
ENDBRANCH   2   3
TORSDOF 10
ENDMDL
MODEL       78
REMARK 921   NORMALIZED FREE ENERGY PREDICTED BY IDOCK:   -4.44 KCAL/MOL
REMARK 922        TOTAL FREE ENERGY PREDICTED BY IDOCK:   -8.44 KCAL/MOL
REMARK 923 INTER-LIGAND FREE ENERGY PREDICTED BY IDOCK:   -6.85 KCAL/MOL
REMARK 924 INTRA-LIGAND FREE ENERGY PREDICTED BY IDOCK:   -1.59 KCAL/MOL
REMARK 927      BINDING AFFINITY PREDICTED BY RF-SCORE:    0.00 PKD
ROOT
HETATM    1  C   UNL     1     -11.905  14.279  68.705  1.00  0.00    -0.377 C  
HETATM    2  C   UNL     1     -11.623  13.405  69.914  1.00  0.00    -0.200 C  
ENDROOT
BRANCH   2   3
HETATM    3  O   UNL     1     -12.513  13.809  70.962  1.00  0.00    -0.349 OA 
BRANCH   3   4
HETATM    4  C   UNL     1     -13.036  12.779  71.687  1.00  0.00    -0.331 C  
HETATM    5  O   UNL     1     -13.886  12.891  72.559  1.00  0.00    -0.579 OA 
BRANCH   4   6
HETATM    6  C   UNL     1     -12.472  11.478  71.178  1.00  0.00    -0.442 C  
BRANCH   6   7
HETATM    7  C   UNL     1     -13.166  10.297  71.847  1.00  0.00    -0.550 C  
BRANCH   7   8
HETATM    8  C   UNL     1     -12.349   9.016  71.731  1.00  0.00    -0.438 C  
BRANCH   8   9
HETATM    9  C   UNL     1     -10.905   9.348  71.359  1.00  0.00    -0.430 C  
BRANCH   9  10
HETATM   10  C   UNL     1     -10.210   8.154  70.719  1.00  0.00    -0.215 C  
BRANCH  10  11
HETATM   11  C   UNL     1      -9.240   8.602  69.626  1.00  0.00    -0.157 C  
BRANCH  11  12
HETATM   12  C   UNL     1      -9.121  10.122  69.616  1.00  0.00    -0.195 C  
BRANCH  12  13
HETATM   13  C   UNL     1      -9.063  10.686  68.194  1.00  0.00    -0.148 C  
HETATM   14  C   UNL     1     -10.208  10.155  67.306  1.00  0.00    -0.273 C  
HETATM   15  C   UNL     1     -10.011  10.597  65.857  1.00  0.00    -0.312 A  
HETATM   16  C   UNL     1     -11.589  10.539  67.865  1.00  0.00    -0.039 C  
HETATM   17  C   UNL     1     -10.536  11.835  65.432  1.00  0.00    -0.325 A  
HETATM   18  C   UNL     1     -10.423  12.264  64.108  1.00  0.00    -0.402 A  
HETATM   19  C   UNL     1      -9.763  11.475  63.176  1.00  0.00    -0.412 A  
HETATM   20  C   UNL     1      -9.197  10.268  63.574  1.00  0.00    -0.321 A  
HETATM   21  C   UNL     1      -9.311   9.830  64.902  1.00  0.00    -0.265 A  
HETATM   22  I   UNL     1      -8.364   7.996  65.336  1.00  0.00    -0.088 I  
ENDBRANCH  12  13
ENDBRANCH  11  12
ENDBRANCH  10  11
ENDBRANCH   9  10
ENDBRANCH   8   9
ENDBRANCH   7   8
ENDBRANCH   6   7
ENDBRANCH   4   6
ENDBRANCH   3   4
ENDBRANCH   2   3
TORSDOF 10
ENDMDL
MODEL       79
REMARK 921   NORMALIZED FREE ENERGY PREDICTED BY IDOCK:   -4.44 KCAL/MOL
REMARK 922        TOTAL FREE ENERGY PREDICTED BY IDOCK:   -8.43 KCAL/MOL
REMARK 923 INTER-LIGAND FREE ENERGY PREDICTED BY IDOCK:   -7.23 KCAL/MOL
REMARK 924 INTRA-LIGAND FREE ENERGY PREDICTED BY IDOCK:   -1.20 KCAL/MOL
REMARK 927      BINDING AFFINITY PREDICTED BY RF-SCORE:    0.00 PKD
ROOT
HETATM    1  C   UNL     1     -12.453  11.966  63.278  1.00  0.00    -0.506 C  
HETATM    2  C   UNL     1     -12.227  13.412  63.682  1.00  0.00    -0.414 C  
ENDROOT
BRANCH   2   3
HETATM    3  O   UNL     1     -12.912  13.631  64.922  1.00  0.00    -0.706 OA 
BRANCH   3   4
HETATM    4  C   UNL     1     -12.201  13.280  66.031  1.00  0.00    -0.424 C  
HETATM    5  O   UNL     1     -12.313  12.224  66.635  1.00  0.00    -0.471 OA 
BRANCH   4   6
HETATM    6  C   UNL     1     -11.192  14.358  66.334  1.00  0.00    -0.345 C  
BRANCH   6   7
HETATM    7  C   UNL     1      -9.782  13.875  66.014  1.00  0.00    -0.270 C  
BRANCH   7   8
HETATM    8  C   UNL     1      -9.225  12.976  67.111  1.00  0.00    -0.226 C  
BRANCH   8   9
HETATM    9  C   UNL     1      -8.490  11.788  66.492  1.00  0.00    -0.125 C  
BRANCH   9  10
HETATM   10  C   UNL     1      -9.159  11.336  65.201  1.00  0.00    -0.115 C  
BRANCH  10  11
HETATM   11  C   UNL     1     -10.024  10.097  65.433  1.00  0.00    -0.377 C  
BRANCH  11  12
HETATM   12  C   UNL     1      -9.459   9.265  66.580  1.00  0.00    -0.246 C  
BRANCH  12  13
HETATM   13  C   UNL     1     -10.498   9.016  67.677  1.00  0.00    -0.324 C  
HETATM   14  C   UNL     1      -9.852   8.853  69.069  1.00  0.00    -0.182 C  
HETATM   15  C   UNL     1     -10.899   8.430  70.099  1.00  0.00    -0.238 A  
HETATM   16  C   UNL     1      -9.076  10.114  69.490  1.00  0.00    -0.213 C  
HETATM   17  C   UNL     1     -11.635   9.419  70.786  1.00  0.00    -0.364 A  
HETATM   18  C   UNL     1     -12.570   9.086  71.768  1.00  0.00    -0.434 A  
HETATM   19  C   UNL     1     -12.810   7.754  72.076  1.00  0.00    -0.265 A  
HETATM   20  C   UNL     1     -12.130   6.755  71.386  1.00  0.00    -0.415 A  
HETATM   21  C   UNL     1     -11.187   7.083  70.400  1.00  0.00    -0.299 A  
HETATM   22  I   UNL     1     -10.280   5.444  69.432  1.00  0.00    -0.268 I  
ENDBRANCH  12  13
ENDBRANCH  11  12
ENDBRANCH  10  11
ENDBRANCH   9  10
ENDBRANCH   8   9
ENDBRANCH   7   8
ENDBRANCH   6   7
ENDBRANCH   4   6
ENDBRANCH   3   4
ENDBRANCH   2   3
TORSDOF 10
ENDMDL
MODEL       80
REMARK 921   NORMALIZED FREE ENERGY PREDICTED BY IDOCK:   -4.43 KCAL/MOL
REMARK 922        TOTAL FREE ENERGY PREDICTED BY IDOCK:   -8.42 KCAL/MOL
REMARK 923 INTER-LIGAND FREE ENERGY PREDICTED BY IDOCK:   -6.87 KCAL/MOL
REMARK 924 INTRA-LIGAND FREE ENERGY PREDICTED BY IDOCK:   -1.56 KCAL/MOL
REMARK 927      BINDING AFFINITY PREDICTED BY RF-SCORE:    0.00 PKD
ROOT
HETATM    1  C   UNL     1     -11.011   6.226  68.849  1.00  0.00    -0.435 C  
HETATM    2  C   UNL     1      -9.557   6.557  69.129  1.00  0.00    -0.134 C  
ENDROOT
BRANCH   2   3
HETATM    3  O   UNL     1      -8.985   5.451  69.837  1.00  0.00    -0.121 OA 
BRANCH   3   4
HETATM    4  C   UNL     1      -8.404   5.780  71.026  1.00  0.00    -0.123 C  
HETATM    5  O   UNL     1      -7.686   5.044  71.688  1.00  0.00    -0.099 OA 
BRANCH   4   6
HETATM    6  C   UNL     1      -8.708   7.221  71.344  1.00  0.00    -0.126 C  
BRANCH   6   7
HETATM    7  C   UNL     1      -9.292   7.347  72.746  1.00  0.00    -0.201 C  
BRANCH   7   8
HETATM    8  C   UNL     1     -10.674   6.712  72.848  1.00  0.00    -0.285 C  
BRANCH   8   9
HETATM    9  C   UNL     1     -11.752   7.790  72.760  1.00  0.00    -0.312 C  
BRANCH   9  10
HETATM   10  C   UNL     1     -12.869   7.379  71.810  1.00  0.00    -0.365 C  
BRANCH  10  11
HETATM   11  C   UNL     1     -13.870   8.517  71.613  1.00  0.00    -0.437 C  
BRANCH  11  12
HETATM   12  C   UNL     1     -13.183   9.866  71.800  1.00  0.00    -0.535 C  
BRANCH  12  13
HETATM   13  C   UNL     1     -13.134  10.673  70.501  1.00  0.00    -0.177 C  
HETATM   14  C   UNL     1     -11.724  11.228  70.208  1.00  0.00    -0.415 C  
HETATM   15  C   UNL     1     -11.759  12.172  69.007  1.00  0.00    -0.377 A  
HETATM   16  C   UNL     1     -10.688  10.101  70.053  1.00  0.00    -0.356 C  
HETATM   17  C   UNL     1     -11.595  11.647  67.708  1.00  0.00    -0.359 A  
HETATM   18  C   UNL     1     -11.573  12.471  66.581  1.00  0.00    -0.442 A  
HETATM   19  C   UNL     1     -11.735  13.843  66.721  1.00  0.00    -0.423 A  
HETATM   20  C   UNL     1     -11.941  14.386  67.986  1.00  0.00    -0.326 A  
HETATM   21  C   UNL     1     -11.960  13.563  69.122  1.00  0.00    -0.333 A  
HETATM   22  I   UNL     1     -12.320  14.550  70.950  1.00  0.00    -0.487 I  
ENDBRANCH  12  13
ENDBRANCH  11  12
ENDBRANCH  10  11
ENDBRANCH   9  10
ENDBRANCH   8   9
ENDBRANCH   7   8
ENDBRANCH   6   7
ENDBRANCH   4   6
ENDBRANCH   3   4
ENDBRANCH   2   3
TORSDOF 10
ENDMDL
MODEL       81
REMARK 921   NORMALIZED FREE ENERGY PREDICTED BY IDOCK:   -4.43 KCAL/MOL
REMARK 922        TOTAL FREE ENERGY PREDICTED BY IDOCK:   -8.42 KCAL/MOL
REMARK 923 INTER-LIGAND FREE ENERGY PREDICTED BY IDOCK:   -7.27 KCAL/MOL
REMARK 924 INTRA-LIGAND FREE ENERGY PREDICTED BY IDOCK:   -1.16 KCAL/MOL
REMARK 927      BINDING AFFINITY PREDICTED BY RF-SCORE:    0.00 PKD
ROOT
HETATM    1  C   UNL     1     -13.956  15.340  71.454  1.00  0.00    -0.601 C  
HETATM    2  C   UNL     1     -12.761  14.405  71.473  1.00  0.00    -0.345 C  
ENDROOT
BRANCH   2   3
HETATM    3  O   UNL     1     -12.408  14.117  70.115  1.00  0.00    -0.325 OA 
BRANCH   3   4
HETATM    4  C   UNL     1     -11.539  15.007  69.556  1.00  0.00    -0.311 C  
HETATM    5  O   UNL     1     -10.707  15.659  70.169  1.00  0.00    -0.302 OA 
BRANCH   4   6
HETATM    6  C   UNL     1     -11.702  14.985  68.058  1.00  0.00    -0.320 C  
BRANCH   6   7
HETATM    7  C   UNL     1     -10.409  15.413  67.374  1.00  0.00    -0.262 C  
BRANCH   7   8
HETATM    8  C   UNL     1     -10.655  15.918  65.957  1.00  0.00    -0.331 C  
BRANCH   8   9
HETATM    9  C   UNL     1     -10.590  14.756  64.968  1.00  0.00    -0.452 C  
BRANCH   9  10
HETATM   10  C   UNL     1     -11.975  14.385  64.456  1.00  0.00    -0.487 C  
BRANCH  10  11
HETATM   11  C   UNL     1     -11.971  13.002  63.807  1.00  0.00    -0.585 C  
BRANCH  11  12
HETATM   12  C   UNL     1     -10.556  12.434  63.782  1.00  0.00    -0.486 C  
BRANCH  12  13
HETATM   13  C   UNL     1     -10.506  10.989  64.287  1.00  0.00    -0.427 C  
HETATM   14  C   UNL     1      -9.723  10.857  65.610  1.00  0.00    -0.279 C  
HETATM   15  C   UNL     1      -9.544   9.386  65.983  1.00  0.00    -0.328 A  
HETATM   16  C   UNL     1     -10.363  11.685  66.738  1.00  0.00    -0.257 C  
HETATM   17  C   UNL     1     -10.537   8.739  66.748  1.00  0.00    -0.220 A  
HETATM   18  C   UNL     1     -10.400   7.410  67.153  1.00  0.00    -0.377 A  
HETATM   19  C   UNL     1      -9.275   6.684  66.786  1.00  0.00    -0.168 A  
HETATM   20  C   UNL     1      -8.299   7.282  65.995  1.00  0.00    -0.140 A  
HETATM   21  C   UNL     1      -8.429   8.619  65.589  1.00  0.00    -0.156 A  
HETATM   22  I   UNL     1      -6.874   9.349  64.366  1.00  0.00    -0.105 I  
ENDBRANCH  12  13
ENDBRANCH  11  12
ENDBRANCH  10  11
ENDBRANCH   9  10
ENDBRANCH   8   9
ENDBRANCH   7   8
ENDBRANCH   6   7
ENDBRANCH   4   6
ENDBRANCH   3   4
ENDBRANCH   2   3
TORSDOF 10
ENDMDL
MODEL       82
REMARK 921   NORMALIZED FREE ENERGY PREDICTED BY IDOCK:   -4.43 KCAL/MOL
REMARK 922        TOTAL FREE ENERGY PREDICTED BY IDOCK:   -8.42 KCAL/MOL
REMARK 923 INTER-LIGAND FREE ENERGY PREDICTED BY IDOCK:   -6.34 KCAL/MOL
REMARK 924 INTRA-LIGAND FREE ENERGY PREDICTED BY IDOCK:   -2.08 KCAL/MOL
REMARK 927      BINDING AFFINITY PREDICTED BY RF-SCORE:    0.00 PKD
ROOT
HETATM    1  C   UNL     1      -7.557   9.979  68.283  1.00  0.00    -0.084 C  
HETATM    2  C   UNL     1      -7.454  10.565  66.887  1.00  0.00    -0.110 C  
ENDROOT
BRANCH   2   3
HETATM    3  O   UNL     1      -8.027  11.878  66.920  1.00  0.00    -0.162 OA 
BRANCH   3   4
HETATM    4  C   UNL     1      -7.207  12.840  67.430  1.00  0.00    -0.132 C  
HETATM    5  O   UNL     1      -6.034  13.000  67.127  1.00  0.00    -0.326 OA 
BRANCH   4   6
HETATM    6  C   UNL     1      -8.001  13.729  68.352  1.00  0.00    -0.144 C  
BRANCH   6   7
HETATM    7  C   UNL     1      -7.476  15.160  68.298  1.00  0.00    -0.109 C  
BRANCH   7   8
HETATM    8  C   UNL     1      -8.327  16.112  69.129  1.00  0.00    -0.230 C  
BRANCH   8   9
HETATM    9  C   UNL     1      -8.725  17.325  68.291  1.00  0.00    -0.251 C  
BRANCH   9  10
HETATM   10  C   UNL     1     -10.130  17.171  67.725  1.00  0.00    -0.306 C  
BRANCH  10  11
HETATM   11  C   UNL     1     -10.140  17.376  66.211  1.00  0.00    -0.328 C  
BRANCH  11  12
HETATM   12  C   UNL     1     -10.811  16.192  65.521  1.00  0.00    -0.280 C  
BRANCH  12  13
HETATM   13  C   UNL     1     -10.618  14.888  66.298  1.00  0.00    -0.309 C  
HETATM   14  C   UNL     1     -11.958  14.192  66.617  1.00  0.00    -0.470 C  
HETATM   15  C   UNL     1     -11.734  12.997  67.542  1.00  0.00    -0.421 A  
HETATM   16  C   UNL     1     -12.727  13.821  65.337  1.00  0.00    -0.513 C  
HETATM   17  C   UNL     1     -11.450  11.732  66.985  1.00  0.00    -0.368 A  
HETATM   18  C   UNL     1     -11.282  10.600  67.784  1.00  0.00    -0.383 A  
HETATM   19  C   UNL     1     -11.374  10.704  69.166  1.00  0.00    -0.338 A  
HETATM   20  C   UNL     1     -11.612  11.946  69.747  1.00  0.00    -0.359 A  
HETATM   21  C   UNL     1     -11.785  13.087  68.949  1.00  0.00    -0.328 A  
HETATM   22  I   UNL     1     -12.100  14.888  69.998  1.00  0.00    -0.386 I  
ENDBRANCH  12  13
ENDBRANCH  11  12
ENDBRANCH  10  11
ENDBRANCH   9  10
ENDBRANCH   8   9
ENDBRANCH   7   8
ENDBRANCH   6   7
ENDBRANCH   4   6
ENDBRANCH   3   4
ENDBRANCH   2   3
TORSDOF 10
ENDMDL
MODEL       83
REMARK 921   NORMALIZED FREE ENERGY PREDICTED BY IDOCK:   -4.41 KCAL/MOL
REMARK 922        TOTAL FREE ENERGY PREDICTED BY IDOCK:   -8.38 KCAL/MOL
REMARK 923 INTER-LIGAND FREE ENERGY PREDICTED BY IDOCK:   -7.41 KCAL/MOL
REMARK 924 INTRA-LIGAND FREE ENERGY PREDICTED BY IDOCK:   -0.97 KCAL/MOL
REMARK 927      BINDING AFFINITY PREDICTED BY RF-SCORE:    0.00 PKD
ROOT
HETATM    1  C   UNL     1     -13.155  13.903  71.790  1.00  0.00    -0.458 C  
HETATM    2  C   UNL     1     -13.603  12.502  72.166  1.00  0.00    -0.360 C  
ENDROOT
BRANCH   2   3
HETATM    3  O   UNL     1     -12.850  11.575  71.374  1.00  0.00    -0.419 OA 
BRANCH   3   4
HETATM    4  C   UNL     1     -12.930  10.280  71.791  1.00  0.00    -0.469 C  
HETATM    5  O   UNL     1     -13.772   9.837  72.558  1.00  0.00    -0.340 OA 
BRANCH   4   6
HETATM    6  C   UNL     1     -11.878   9.466  71.084  1.00  0.00    -0.413 C  
BRANCH   6   7
HETATM    7  C   UNL     1     -11.218   8.489  72.050  1.00  0.00    -0.418 C  
BRANCH   7   8
HETATM    8  C   UNL     1      -9.708   8.422  71.851  1.00  0.00    -0.331 C  
BRANCH   8   9
HETATM    9  C   UNL     1      -9.303   9.260  70.640  1.00  0.00    -0.329 C  
BRANCH   9  10
HETATM   10  C   UNL     1      -8.741   8.388  69.526  1.00  0.00    -0.137 C  
BRANCH  10  11
HETATM   11  C   UNL     1      -8.527   9.197  68.247  1.00  0.00    -0.125 C  
BRANCH  11  12
HETATM   12  C   UNL     1      -9.843   9.815  67.786  1.00  0.00    -0.191 C  
BRANCH  12  13
HETATM   13  C   UNL     1      -9.681  11.283  67.386  1.00  0.00    -0.190 C  
HETATM   14  C   UNL     1     -11.039  11.988  67.179  1.00  0.00    -0.344 C  
HETATM   15  C   UNL     1     -10.833  13.391  66.610  1.00  0.00    -0.285 A  
HETATM   16  C   UNL     1     -11.885  11.984  68.465  1.00  0.00    -0.369 C  
HETATM   17  C   UNL     1     -10.640  14.476  67.491  1.00  0.00    -0.262 A  
HETATM   18  C   UNL     1     -10.493  15.783  67.022  1.00  0.00    -0.309 A  
HETATM   19  C   UNL     1     -10.515  16.039  65.658  1.00  0.00    -0.416 A  
HETATM   20  C   UNL     1     -10.662  14.984  64.763  1.00  0.00    -0.354 A  
HETATM   21  C   UNL     1     -10.814  13.669  65.227  1.00  0.00    -0.322 A  
HETATM   22  I   UNL     1     -10.987  12.193  63.731  1.00  0.00    -0.569 I  
ENDBRANCH  12  13
ENDBRANCH  11  12
ENDBRANCH  10  11
ENDBRANCH   9  10
ENDBRANCH   8   9
ENDBRANCH   7   8
ENDBRANCH   6   7
ENDBRANCH   4   6
ENDBRANCH   3   4
ENDBRANCH   2   3
TORSDOF 10
ENDMDL
MODEL       84
REMARK 921   NORMALIZED FREE ENERGY PREDICTED BY IDOCK:   -4.40 KCAL/MOL
REMARK 922        TOTAL FREE ENERGY PREDICTED BY IDOCK:   -8.36 KCAL/MOL
REMARK 923 INTER-LIGAND FREE ENERGY PREDICTED BY IDOCK:   -7.33 KCAL/MOL
REMARK 924 INTRA-LIGAND FREE ENERGY PREDICTED BY IDOCK:   -1.04 KCAL/MOL
REMARK 927      BINDING AFFINITY PREDICTED BY RF-SCORE:    0.00 PKD
ROOT
HETATM    1  C   UNL     1      -8.824   6.783  72.326  1.00  0.00    -0.135 C  
HETATM    2  C   UNL     1      -9.707   5.579  72.056  1.00  0.00    -0.160 C  
ENDROOT
BRANCH   2   3
HETATM    3  O   UNL     1     -11.069   5.985  72.236  1.00  0.00    -0.248 OA 
BRANCH   3   4
HETATM    4  C   UNL     1     -11.693   6.396  71.096  1.00  0.00    -0.298 C  
HETATM    5  O   UNL     1     -11.379   6.065  69.962  1.00  0.00    -0.384 OA 
BRANCH   4   6
HETATM    6  C   UNL     1     -12.885   7.242  71.460  1.00  0.00    -0.430 C  
BRANCH   6   7
HETATM    7  C   UNL     1     -12.454   8.435  72.307  1.00  0.00    -0.417 C  
BRANCH   7   8
HETATM    8  C   UNL     1     -13.122   9.727  71.853  1.00  0.00    -0.544 C  
BRANCH   8   9
HETATM    9  C   UNL     1     -12.105  10.622  71.147  1.00  0.00    -0.445 C  
BRANCH   9  10
HETATM   10  C   UNL     1     -10.847   9.847  70.779  1.00  0.00    -0.387 C  
BRANCH  10  11
HETATM   11  C   UNL     1     -10.556   9.948  69.282  1.00  0.00    -0.245 C  
BRANCH  11  12
HETATM   12  C   UNL     1     -11.508  10.942  68.624  1.00  0.00    -0.380 C  
BRANCH  12  13
HETATM   13  C   UNL     1     -10.774  12.173  68.088  1.00  0.00    -0.238 C  
HETATM   14  C   UNL     1     -11.663  13.435  68.097  1.00  0.00    -0.397 C  
HETATM   15  C   UNL     1     -10.958  14.592  67.392  1.00  0.00    -0.309 A  
HETATM   16  C   UNL     1     -12.127  13.796  69.519  1.00  0.00    -0.386 C  
HETATM   17  C   UNL     1     -10.107  15.440  68.132  1.00  0.00    -0.222 A  
HETATM   18  C   UNL     1      -9.475  16.538  67.544  1.00  0.00    -0.224 A  
HETATM   19  C   UNL     1      -9.660  16.807  66.195  1.00  0.00    -0.302 A  
HETATM   20  C   UNL     1     -10.460  15.964  65.430  1.00  0.00    -0.429 A  
HETATM   21  C   UNL     1     -11.101  14.862  66.015  1.00  0.00    -0.334 A  
HETATM   22  I   UNL     1     -12.243  13.674  64.699  1.00  0.00    -0.413 I  
ENDBRANCH  12  13
ENDBRANCH  11  12
ENDBRANCH  10  11
ENDBRANCH   9  10
ENDBRANCH   8   9
ENDBRANCH   7   8
ENDBRANCH   6   7
ENDBRANCH   4   6
ENDBRANCH   3   4
ENDBRANCH   2   3
TORSDOF 10
ENDMDL
MODEL       85
REMARK 921   NORMALIZED FREE ENERGY PREDICTED BY IDOCK:   -4.39 KCAL/MOL
REMARK 922        TOTAL FREE ENERGY PREDICTED BY IDOCK:   -8.35 KCAL/MOL
REMARK 923 INTER-LIGAND FREE ENERGY PREDICTED BY IDOCK:   -6.63 KCAL/MOL
REMARK 924 INTRA-LIGAND FREE ENERGY PREDICTED BY IDOCK:   -1.72 KCAL/MOL
REMARK 927      BINDING AFFINITY PREDICTED BY RF-SCORE:    0.00 PKD
ROOT
HETATM    1  C   UNL     1     -12.202  13.447  70.469  1.00  0.00    -0.425 C  
HETATM    2  C   UNL     1     -12.089  11.941  70.318  1.00  0.00    -0.325 C  
ENDROOT
BRANCH   2   3
HETATM    3  O   UNL     1     -12.798  11.338  71.408  1.00  0.00    -0.406 OA 
BRANCH   3   4
HETATM    4  C   UNL     1     -12.432  10.053  71.680  1.00  0.00    -0.418 C  
HETATM    5  O   UNL     1     -13.076   9.264  72.354  1.00  0.00    -0.419 OA 
BRANCH   4   6
HETATM    6  C   UNL     1     -11.158   9.735  70.940  1.00  0.00    -0.428 C  
BRANCH   6   7
HETATM    7  C   UNL     1     -10.823   8.253  71.066  1.00  0.00    -0.269 C  
BRANCH   7   8
HETATM    8  C   UNL     1      -9.338   7.985  70.858  1.00  0.00    -0.169 C  
BRANCH   8   9
HETATM    9  C   UNL     1      -8.553   9.292  70.944  1.00  0.00    -0.220 C  
BRANCH   9  10
HETATM   10  C   UNL     1      -7.757   9.545  69.671  1.00  0.00    -0.112 C  
BRANCH  10  11
HETATM   11  C   UNL     1      -7.441   8.236  68.948  1.00  0.00    -0.092 C  
BRANCH  11  12
HETATM   12  C   UNL     1      -7.590   8.414  67.441  1.00  0.00    -0.098 C  
BRANCH  12  13
HETATM   13  C   UNL     1      -8.356   9.691  67.085  1.00  0.00    -0.121 C  
HETATM   14  C   UNL     1      -9.724   9.392  66.435  1.00  0.00    -0.315 C  
HETATM   15  C   UNL     1     -10.372  10.681  65.934  1.00  0.00    -0.291 A  
HETATM   16  C   UNL     1     -10.639   8.589  67.376  1.00  0.00    -0.304 C  
HETATM   17  C   UNL     1     -11.186  11.433  66.808  1.00  0.00    -0.319 A  
HETATM   18  C   UNL     1     -11.838  12.594  66.386  1.00  0.00    -0.466 A  
HETATM   19  C   UNL     1     -11.677  13.047  65.084  1.00  0.00    -0.379 A  
HETATM   20  C   UNL     1     -10.847  12.350  64.211  1.00  0.00    -0.395 A  
HETATM   21  C   UNL     1     -10.193  11.181  64.628  1.00  0.00    -0.317 A  
HETATM   22  I   UNL     1      -8.948  10.276  63.186  1.00  0.00    -0.346 I  
ENDBRANCH  12  13
ENDBRANCH  11  12
ENDBRANCH  10  11
ENDBRANCH   9  10
ENDBRANCH   8   9
ENDBRANCH   7   8
ENDBRANCH   6   7
ENDBRANCH   4   6
ENDBRANCH   3   4
ENDBRANCH   2   3
TORSDOF 10
ENDMDL
MODEL       86
REMARK 921   NORMALIZED FREE ENERGY PREDICTED BY IDOCK:   -4.37 KCAL/MOL
REMARK 922        TOTAL FREE ENERGY PREDICTED BY IDOCK:   -8.32 KCAL/MOL
REMARK 923 INTER-LIGAND FREE ENERGY PREDICTED BY IDOCK:   -7.14 KCAL/MOL
REMARK 924 INTRA-LIGAND FREE ENERGY PREDICTED BY IDOCK:   -1.19 KCAL/MOL
REMARK 927      BINDING AFFINITY PREDICTED BY RF-SCORE:    0.00 PKD
ROOT
HETATM    1  C   UNL     1      -6.003   8.792  64.653  1.00  0.00    -0.065 C  
HETATM    2  C   UNL     1      -6.402  10.167  65.157  1.00  0.00    -0.121 C  
ENDROOT
BRANCH   2   3
HETATM    3  O   UNL     1      -7.596  10.556  64.467  1.00  0.00    -0.078 OA 
BRANCH   3   4
HETATM    4  C   UNL     1      -8.749  10.325  65.157  1.00  0.00    -0.175 C  
HETATM    5  O   UNL     1      -8.820  10.099  66.356  1.00  0.00    -0.141 OA 
BRANCH   4   6
HETATM    6  C   UNL     1      -9.924  10.487  64.227  1.00  0.00    -0.398 C  
BRANCH   6   7
HETATM    7  C   UNL     1      -9.798  11.779  63.427  1.00  0.00    -0.407 C  
BRANCH   7   8
HETATM    8  C   UNL     1     -10.965  12.725  63.685  1.00  0.00    -0.403 C  
BRANCH   8   9
HETATM    9  C   UNL     1     -10.527  13.856  64.613  1.00  0.00    -0.419 C  
BRANCH   9  10
HETATM   10  C   UNL     1     -11.599  14.172  65.646  1.00  0.00    -0.339 C  
BRANCH  10  11
HETATM   11  C   UNL     1     -12.102  12.899  66.325  1.00  0.00    -0.433 C  
BRANCH  11  12
HETATM   12  C   UNL     1     -11.056  12.373  67.303  1.00  0.00    -0.329 C  
BRANCH  12  13
HETATM   13  C   UNL     1     -11.643  11.351  68.280  1.00  0.00    -0.376 C  
HETATM   14  C   UNL     1     -11.339  11.705  69.751  1.00  0.00    -0.276 C  
HETATM   15  C   UNL     1     -11.784  10.573  70.677  1.00  0.00    -0.453 A  
HETATM   16  C   UNL     1     -11.936  13.068  70.145  1.00  0.00    -0.374 C  
HETATM   17  C   UNL     1     -13.105  10.560  71.171  1.00  0.00    -0.450 A  
HETATM   18  C   UNL     1     -13.547   9.574  72.055  1.00  0.00    -0.492 A  
HETATM   19  C   UNL     1     -12.685   8.562  72.455  1.00  0.00    -0.394 A  
HETATM   20  C   UNL     1     -11.388   8.525  71.952  1.00  0.00    -0.399 A  
HETATM   21  C   UNL     1     -10.937   9.514  71.066  1.00  0.00    -0.353 A  
HETATM   22  I   UNL     1      -8.958   9.281  70.377  1.00  0.00    -0.260 I  
ENDBRANCH  12  13
ENDBRANCH  11  12
ENDBRANCH  10  11
ENDBRANCH   9  10
ENDBRANCH   8   9
ENDBRANCH   7   8
ENDBRANCH   6   7
ENDBRANCH   4   6
ENDBRANCH   3   4
ENDBRANCH   2   3
TORSDOF 10
ENDMDL
MODEL       87
REMARK 921   NORMALIZED FREE ENERGY PREDICTED BY IDOCK:   -4.36 KCAL/MOL
REMARK 922        TOTAL FREE ENERGY PREDICTED BY IDOCK:   -8.31 KCAL/MOL
REMARK 923 INTER-LIGAND FREE ENERGY PREDICTED BY IDOCK:   -7.02 KCAL/MOL
REMARK 924 INTRA-LIGAND FREE ENERGY PREDICTED BY IDOCK:   -1.29 KCAL/MOL
REMARK 927      BINDING AFFINITY PREDICTED BY RF-SCORE:    0.00 PKD
ROOT
HETATM    1  C   UNL     1     -12.663  13.846  65.623  1.00  0.00    -0.534 C  
HETATM    2  C   UNL     1     -11.818  12.587  65.681  1.00  0.00    -0.438 C  
ENDROOT
BRANCH   2   3
HETATM    3  O   UNL     1     -11.922  12.050  67.005  1.00  0.00    -0.609 OA 
BRANCH   3   4
HETATM    4  C   UNL     1     -11.094  12.631  67.918  1.00  0.00    -0.247 C  
HETATM    5  O   UNL     1     -10.010  13.137  67.666  1.00  0.00    -0.211 OA 
BRANCH   4   6
HETATM    6  C   UNL     1     -11.767  12.635  69.266  1.00  0.00    -0.379 C  
BRANCH   6   7
HETATM    7  C   UNL     1     -12.128  11.215  69.687  1.00  0.00    -0.406 C  
BRANCH   7   8
HETATM    8  C   UNL     1     -12.772  11.176  71.069  1.00  0.00    -0.476 C  
BRANCH   8   9
HETATM    9  C   UNL     1     -12.570   9.800  71.701  1.00  0.00    -0.509 C  
BRANCH   9  10
HETATM   10  C   UNL     1     -11.140   9.311  71.519  1.00  0.00    -0.443 C  
BRANCH  10  11
HETATM   11  C   UNL     1     -10.957   7.913  72.108  1.00  0.00    -0.339 C  
BRANCH  11  12
HETATM   12  C   UNL     1     -11.942   6.937  71.472  1.00  0.00    -0.386 C  
BRANCH  12  13
HETATM   13  C   UNL     1     -11.611   6.660  70.004  1.00  0.00    -0.423 C  
HETATM   14  C   UNL     1     -10.172   6.135  69.816  1.00  0.00    -0.249 C  
HETATM   15  C   UNL     1      -9.824   6.043  68.331  1.00  0.00    -0.152 A  
HETATM   16  C   UNL     1      -9.945   4.810  70.566  1.00  0.00    -0.306 C  
HETATM   17  C   UNL     1     -10.125   4.862  67.621  1.00  0.00    -0.172 A  
HETATM   18  C   UNL     1      -9.787   4.711  66.274  1.00  0.00    -0.241 A  
HETATM   19  C   UNL     1      -9.157   5.745  65.595  1.00  0.00    -0.085 A  
HETATM   20  C   UNL     1      -8.885   6.937  66.259  1.00  0.00    -0.161 A  
HETATM   21  C   UNL     1      -9.219   7.094  67.612  1.00  0.00    -0.125 A  
HETATM   22  I   UNL     1      -8.767   8.978  68.445  1.00  0.00    -0.128 I  
ENDBRANCH  12  13
ENDBRANCH  11  12
ENDBRANCH  10  11
ENDBRANCH   9  10
ENDBRANCH   8   9
ENDBRANCH   7   8
ENDBRANCH   6   7
ENDBRANCH   4   6
ENDBRANCH   3   4
ENDBRANCH   2   3
TORSDOF 10
ENDMDL
MODEL       88
REMARK 921   NORMALIZED FREE ENERGY PREDICTED BY IDOCK:   -4.35 KCAL/MOL
REMARK 922        TOTAL FREE ENERGY PREDICTED BY IDOCK:   -8.29 KCAL/MOL
REMARK 923 INTER-LIGAND FREE ENERGY PREDICTED BY IDOCK:   -6.78 KCAL/MOL
REMARK 924 INTRA-LIGAND FREE ENERGY PREDICTED BY IDOCK:   -1.51 KCAL/MOL
REMARK 927      BINDING AFFINITY PREDICTED BY RF-SCORE:    0.00 PKD
ROOT
HETATM    1  C   UNL     1      -9.103  10.624  64.139  1.00  0.00    -0.245 C  
HETATM    2  C   UNL     1     -10.387  11.186  63.558  1.00  0.00    -0.387 C  
ENDROOT
BRANCH   2   3
HETATM    3  O   UNL     1     -11.315  11.360  64.636  1.00  0.00    -0.217 OA 
BRANCH   3   4
HETATM    4  C   UNL     1     -12.376  12.166  64.345  1.00  0.00    -0.330 C  
HETATM    5  O   UNL     1     -13.152  12.000  63.416  1.00  0.00    -0.747 OA 
BRANCH   4   6
HETATM    6  C   UNL     1     -12.493  13.232  65.404  1.00  0.00    -0.543 C  
BRANCH   6   7
HETATM    7  C   UNL     1     -12.468  14.618  64.771  1.00  0.00    -0.286 C  
BRANCH   7   8
HETATM    8  C   UNL     1     -11.047  15.089  64.487  1.00  0.00    -0.248 C  
BRANCH   8   9
HETATM    9  C   UNL     1     -10.818  16.466  65.107  1.00  0.00    -0.289 C  
BRANCH   9  10
HETATM   10  C   UNL     1      -9.568  16.481  65.977  1.00  0.00    -0.323 C  
BRANCH  10  11
HETATM   11  C   UNL     1      -9.657  17.563  67.052  1.00  0.00    -0.268 C  
BRANCH  11  12
HETATM   12  C   UNL     1     -10.549  17.097  68.199  1.00  0.00    -0.380 C  
BRANCH  12  13
HETATM   13  C   UNL     1     -10.950  15.627  68.056  1.00  0.00    -0.318 C  
HETATM   14  C   UNL     1     -10.422  14.760  69.219  1.00  0.00    -0.231 C  
HETATM   15  C   UNL     1     -10.689  13.280  68.948  1.00  0.00    -0.215 A  
HETATM   16  C   UNL     1     -10.977  15.227  70.576  1.00  0.00    -0.318 C  
HETATM   17  C   UNL     1     -11.914  12.710  69.354  1.00  0.00    -0.318 A  
HETATM   18  C   UNL     1     -12.187  11.353  69.170  1.00  0.00    -0.242 A  
HETATM   19  C   UNL     1     -11.251  10.532  68.556  1.00  0.00    -0.332 A  
HETATM   20  C   UNL     1     -10.051  11.075  68.107  1.00  0.00    -0.195 A  
HETATM   21  C   UNL     1      -9.768  12.436  68.292  1.00  0.00    -0.218 A  
HETATM   22  I   UNL     1      -7.920  13.093  67.517  1.00  0.00    -0.134 I  
ENDBRANCH  12  13
ENDBRANCH  11  12
ENDBRANCH  10  11
ENDBRANCH   9  10
ENDBRANCH   8   9
ENDBRANCH   7   8
ENDBRANCH   6   7
ENDBRANCH   4   6
ENDBRANCH   3   4
ENDBRANCH   2   3
TORSDOF 10
ENDMDL
MODEL       89
REMARK 921   NORMALIZED FREE ENERGY PREDICTED BY IDOCK:   -4.35 KCAL/MOL
REMARK 922        TOTAL FREE ENERGY PREDICTED BY IDOCK:   -8.29 KCAL/MOL
REMARK 923 INTER-LIGAND FREE ENERGY PREDICTED BY IDOCK:   -6.88 KCAL/MOL
REMARK 924 INTRA-LIGAND FREE ENERGY PREDICTED BY IDOCK:   -1.41 KCAL/MOL
REMARK 927      BINDING AFFINITY PREDICTED BY RF-SCORE:    0.00 PKD
ROOT
HETATM    1  C   UNL     1     -12.853  13.643  65.814  1.00  0.00    -0.390 C  
HETATM    2  C   UNL     1     -11.756  12.680  66.233  1.00  0.00    -0.402 C  
ENDROOT
BRANCH   2   3
HETATM    3  O   UNL     1     -12.155  12.074  67.469  1.00  0.00    -0.555 OA 
BRANCH   3   4
HETATM    4  C   UNL     1     -11.225  12.150  68.462  1.00  0.00    -0.260 C  
HETATM    5  O   UNL     1     -10.017  12.228  68.293  1.00  0.00    -0.208 OA 
BRANCH   4   6
HETATM    6  C   UNL     1     -11.927  12.221  69.793  1.00  0.00    -0.365 C  
BRANCH   6   7
HETATM    7  C   UNL     1     -12.533  10.868  70.150  1.00  0.00    -0.356 C  
BRANCH   7   8
HETATM    8  C   UNL     1     -13.016  10.823  71.595  1.00  0.00    -0.581 C  
BRANCH   8   9
HETATM    9  C   UNL     1     -13.449   9.404  71.958  1.00  0.00    -0.522 C  
BRANCH   9  10
HETATM   10  C   UNL     1     -12.251   8.470  72.065  1.00  0.00    -0.429 C  
BRANCH  10  11
HETATM   11  C   UNL     1     -12.542   7.123  71.404  1.00  0.00    -0.432 C  
BRANCH  11  12
HETATM   12  C   UNL     1     -11.337   6.663  70.589  1.00  0.00    -0.401 C  
BRANCH  12  13
HETATM   13  C   UNL     1     -10.850   7.744  69.622  1.00  0.00    -0.185 C  
HETATM   14  C   UNL     1     -10.081   7.152  68.421  1.00  0.00    -0.182 C  
HETATM   15  C   UNL     1      -9.460   8.267  67.581  1.00  0.00    -0.176 A  
HETATM   16  C   UNL     1     -10.961   6.199  67.593  1.00  0.00    -0.400 C  
HETATM   17  C   UNL     1     -10.213   8.854  66.542  1.00  0.00    -0.319 A  
HETATM   18  C   UNL     1      -9.676   9.843  65.716  1.00  0.00    -0.332 A  
HETATM   19  C   UNL     1      -8.377  10.289  65.920  1.00  0.00    -0.145 A  
HETATM   20  C   UNL     1      -7.624   9.759  66.963  1.00  0.00    -0.092 A  
HETATM   21  C   UNL     1      -8.156   8.761  67.793  1.00  0.00    -0.107 A  
HETATM   22  I   UNL     1      -6.889   8.101  69.343  1.00  0.00    -0.043 I  
ENDBRANCH  12  13
ENDBRANCH  11  12
ENDBRANCH  10  11
ENDBRANCH   9  10
ENDBRANCH   8   9
ENDBRANCH   7   8
ENDBRANCH   6   7
ENDBRANCH   4   6
ENDBRANCH   3   4
ENDBRANCH   2   3
TORSDOF 10
ENDMDL
MODEL       90
REMARK 921   NORMALIZED FREE ENERGY PREDICTED BY IDOCK:   -4.34 KCAL/MOL
REMARK 922        TOTAL FREE ENERGY PREDICTED BY IDOCK:   -8.28 KCAL/MOL
REMARK 923 INTER-LIGAND FREE ENERGY PREDICTED BY IDOCK:   -6.77 KCAL/MOL
REMARK 924 INTRA-LIGAND FREE ENERGY PREDICTED BY IDOCK:   -1.51 KCAL/MOL
REMARK 927      BINDING AFFINITY PREDICTED BY RF-SCORE:    0.00 PKD
ROOT
HETATM    1  C   UNL     1     -10.219   6.435  73.936  1.00  0.00    -0.330 C  
HETATM    2  C   UNL     1     -10.631   5.582  72.751  1.00  0.00    -0.225 C  
ENDROOT
BRANCH   2   3
HETATM    3  O   UNL     1     -12.021   5.822  72.501  1.00  0.00    -0.275 OA 
BRANCH   3   4
HETATM    4  C   UNL     1     -12.270   6.745  71.529  1.00  0.00    -0.366 C  
HETATM    5  O   UNL     1     -13.201   7.537  71.530  1.00  0.00    -0.353 OA 
BRANCH   4   6
HETATM    6  C   UNL     1     -11.164   6.698  70.507  1.00  0.00    -0.388 C  
BRANCH   6   7
HETATM    7  C   UNL     1     -10.855   8.098  69.990  1.00  0.00    -0.233 C  
BRANCH   7   8
HETATM    8  C   UNL     1     -10.063   8.918  71.002  1.00  0.00    -0.324 C  
BRANCH   8   9
HETATM    9  C   UNL     1      -8.790   9.460  70.355  1.00  0.00    -0.290 C  
BRANCH   9  10
HETATM   10  C   UNL     1      -8.537   8.810  69.001  1.00  0.00    -0.132 C  
BRANCH  10  11
HETATM   11  C   UNL     1      -8.111   9.848  67.963  1.00  0.00    -0.108 C  
BRANCH  11  12
HETATM   12  C   UNL     1      -8.348  11.258  68.496  1.00  0.00    -0.155 C  
BRANCH  12  13
HETATM   13  C   UNL     1      -9.143  12.120  67.513  1.00  0.00    -0.180 C  
HETATM   14  C   UNL     1     -10.479  11.463  67.105  1.00  0.00    -0.259 C  
HETATM   15  C   UNL     1     -11.153  12.265  65.993  1.00  0.00    -0.347 A  
HETATM   16  C   UNL     1     -11.398  11.237  68.319  1.00  0.00    -0.359 C  
HETATM   17  C   UNL     1     -12.018  13.327  66.330  1.00  0.00    -0.471 A  
HETATM   18  C   UNL     1     -12.693  14.061  65.353  1.00  0.00    -0.499 A  
HETATM   19  C   UNL     1     -12.506  13.766  64.009  1.00  0.00    -0.280 A  
HETATM   20  C   UNL     1     -11.627  12.751  63.644  1.00  0.00    -0.572 A  
HETATM   21  C   UNL     1     -10.948  12.008  64.621  1.00  0.00    -0.317 A  
HETATM   22  I   UNL     1      -9.630  10.535  63.887  1.00  0.00    -0.310 I  
ENDBRANCH  12  13
ENDBRANCH  11  12
ENDBRANCH  10  11
ENDBRANCH   9  10
ENDBRANCH   8   9
ENDBRANCH   7   8
ENDBRANCH   6   7
ENDBRANCH   4   6
ENDBRANCH   3   4
ENDBRANCH   2   3
TORSDOF 10
ENDMDL
MODEL       91
REMARK 921   NORMALIZED FREE ENERGY PREDICTED BY IDOCK:   -4.34 KCAL/MOL
REMARK 922        TOTAL FREE ENERGY PREDICTED BY IDOCK:   -8.28 KCAL/MOL
REMARK 923 INTER-LIGAND FREE ENERGY PREDICTED BY IDOCK:   -6.61 KCAL/MOL
REMARK 924 INTRA-LIGAND FREE ENERGY PREDICTED BY IDOCK:   -1.67 KCAL/MOL
REMARK 927      BINDING AFFINITY PREDICTED BY RF-SCORE:    0.00 PKD
ROOT
HETATM    1  C   UNL     1     -12.233   8.415  71.966  1.00  0.00    -0.419 C  
HETATM    2  C   UNL     1     -13.180   9.600  71.930  1.00  0.00    -0.446 C  
ENDROOT
BRANCH   2   3
HETATM    3  O   UNL     1     -12.633  10.570  71.029  1.00  0.00    -0.333 OA 
BRANCH   3   4
HETATM    4  C   UNL     1     -12.913  11.864  71.352  1.00  0.00    -0.284 C  
HETATM    5  O   UNL     1     -13.590  12.222  72.305  1.00  0.00    -0.472 OA 
BRANCH   4   6
HETATM    6  C   UNL     1     -12.178  12.781  70.408  1.00  0.00    -0.371 C  
BRANCH   6   7
HETATM    7  C   UNL     1     -12.173  14.208  70.944  1.00  0.00    -0.434 C  
BRANCH   7   8
HETATM    8  C   UNL     1     -12.150  15.238  69.822  1.00  0.00    -0.357 C  
BRANCH   8   9
HETATM    9  C   UNL     1     -11.012  16.231  70.046  1.00  0.00    -0.356 C  
BRANCH   9  10
HETATM   10  C   UNL     1      -9.819  15.917  69.153  1.00  0.00    -0.247 C  
BRANCH  10  11
HETATM   11  C   UNL     1     -10.163  16.130  67.679  1.00  0.00    -0.265 C  
BRANCH  11  12
HETATM   12  C   UNL     1      -9.543  15.028  66.827  1.00  0.00    -0.260 C  
BRANCH  12  13
HETATM   13  C   UNL     1     -10.023  13.636  67.247  1.00  0.00    -0.240 C  
HETATM   14  C   UNL     1      -8.886  12.592  67.222  1.00  0.00    -0.196 C  
HETATM   15  C   UNL     1      -9.440  11.191  67.472  1.00  0.00    -0.178 A  
HETATM   16  C   UNL     1      -7.748  12.965  68.189  1.00  0.00    -0.138 C  
HETATM   17  C   UNL     1      -9.563  10.719  68.795  1.00  0.00    -0.194 A  
HETATM   18  C   UNL     1     -10.021   9.429  69.075  1.00  0.00    -0.182 A  
HETATM   19  C   UNL     1     -10.389   8.583  68.038  1.00  0.00    -0.272 A  
HETATM   20  C   UNL     1     -10.318   9.035  66.723  1.00  0.00    -0.310 A  
HETATM   21  C   UNL     1      -9.856  10.328  66.436  1.00  0.00    -0.217 A  
HETATM   22  I   UNL     1      -9.850  10.856  64.395  1.00  0.00    -0.437 I  
ENDBRANCH  12  13
ENDBRANCH  11  12
ENDBRANCH  10  11
ENDBRANCH   9  10
ENDBRANCH   8   9
ENDBRANCH   7   8
ENDBRANCH   6   7
ENDBRANCH   4   6
ENDBRANCH   3   4
ENDBRANCH   2   3
TORSDOF 10
ENDMDL
MODEL       92
REMARK 921   NORMALIZED FREE ENERGY PREDICTED BY IDOCK:   -4.33 KCAL/MOL
REMARK 922        TOTAL FREE ENERGY PREDICTED BY IDOCK:   -8.25 KCAL/MOL
REMARK 923 INTER-LIGAND FREE ENERGY PREDICTED BY IDOCK:   -6.51 KCAL/MOL
REMARK 924 INTRA-LIGAND FREE ENERGY PREDICTED BY IDOCK:   -1.75 KCAL/MOL
REMARK 927      BINDING AFFINITY PREDICTED BY RF-SCORE:    0.00 PKD
ROOT
HETATM    1  C   UNL     1      -8.062   3.190  68.248  1.00  0.00    -0.077 C  
HETATM    2  C   UNL     1      -9.308   3.447  67.420  1.00  0.00    -0.203 C  
ENDROOT
BRANCH   2   3
HETATM    3  O   UNL     1      -9.870   4.692  67.850  1.00  0.00    -0.158 OA 
BRANCH   3   4
HETATM    4  C   UNL     1     -10.578   5.354  66.891  1.00  0.00    -0.250 C  
HETATM    5  O   UNL     1     -10.905   4.890  65.809  1.00  0.00    -0.262 OA 
BRANCH   4   6
HETATM    6  C   UNL     1     -10.974   6.711  67.416  1.00  0.00    -0.434 C  
BRANCH   6   7
HETATM    7  C   UNL     1     -10.088   7.108  68.592  1.00  0.00    -0.177 C  
BRANCH   7   8
HETATM    8  C   UNL     1     -10.898   7.334  69.863  1.00  0.00    -0.264 C  
BRANCH   8   9
HETATM    9  C   UNL     1      -9.999   7.901  70.961  1.00  0.00    -0.200 C  
BRANCH   9  10
HETATM   10  C   UNL     1     -10.582   9.181  71.547  1.00  0.00    -0.428 C  
BRANCH  10  11
HETATM   11  C   UNL     1     -11.885   9.564  70.847  1.00  0.00    -0.385 C  
BRANCH  11  12
HETATM   12  C   UNL     1     -11.726  10.900  70.128  1.00  0.00    -0.433 C  
BRANCH  12  13
HETATM   13  C   UNL     1     -11.644  10.731  68.609  1.00  0.00    -0.342 C  
HETATM   14  C   UNL     1     -10.380  11.386  68.014  1.00  0.00    -0.204 C  
HETATM   15  C   UNL     1     -10.427  11.352  66.487  1.00  0.00    -0.292 A  
HETATM   16  C   UNL     1      -9.093  10.766  68.586  1.00  0.00    -0.173 C  
HETATM   17  C   UNL     1      -9.914  10.230  65.803  1.00  0.00    -0.337 A  
HETATM   18  C   UNL     1      -9.892  10.169  64.408  1.00  0.00    -0.307 A  
HETATM   19  C   UNL     1     -10.402  11.221  63.658  1.00  0.00    -0.464 A  
HETATM   20  C   UNL     1     -10.952  12.323  64.306  1.00  0.00    -0.392 A  
HETATM   21  C   UNL     1     -10.974  12.391  65.707  1.00  0.00    -0.298 A  
HETATM   22  I   UNL     1     -11.878  14.116  66.516  1.00  0.00    -0.423 I  
ENDBRANCH  12  13
ENDBRANCH  11  12
ENDBRANCH  10  11
ENDBRANCH   9  10
ENDBRANCH   8   9
ENDBRANCH   7   8
ENDBRANCH   6   7
ENDBRANCH   4   6
ENDBRANCH   3   4
ENDBRANCH   2   3
TORSDOF 10
ENDMDL
MODEL       93
REMARK 921   NORMALIZED FREE ENERGY PREDICTED BY IDOCK:   -4.32 KCAL/MOL
REMARK 922        TOTAL FREE ENERGY PREDICTED BY IDOCK:   -8.24 KCAL/MOL
REMARK 923 INTER-LIGAND FREE ENERGY PREDICTED BY IDOCK:   -7.16 KCAL/MOL
REMARK 924 INTRA-LIGAND FREE ENERGY PREDICTED BY IDOCK:   -1.08 KCAL/MOL
REMARK 927      BINDING AFFINITY PREDICTED BY RF-SCORE:    0.00 PKD
ROOT
HETATM    1  C   UNL     1      -8.957   7.967  73.711  1.00  0.00    -0.324 C  
HETATM    2  C   UNL     1     -10.008   7.158  72.972  1.00  0.00    -0.208 C  
ENDROOT
BRANCH   2   3
HETATM    3  O   UNL     1     -11.175   7.979  72.835  1.00  0.00    -0.401 OA 
BRANCH   3   4
HETATM    4  C   UNL     1     -11.524   8.256  71.547  1.00  0.00    -0.275 C  
HETATM    5  O   UNL     1     -12.006   7.455  70.759  1.00  0.00    -0.292 OA 
BRANCH   4   6
HETATM    6  C   UNL     1     -11.311   9.724  71.281  1.00  0.00    -0.445 C  
BRANCH   6   7
HETATM    7  C   UNL     1     -12.627  10.395  70.904  1.00  0.00    -0.478 C  
BRANCH   7   8
HETATM    8  C   UNL     1     -13.189  11.231  72.048  1.00  0.00    -0.437 C  
BRANCH   8   9
HETATM    9  C   UNL     1     -13.020  12.717  71.742  1.00  0.00    -0.416 C  
BRANCH   9  10
HETATM   10  C   UNL     1     -12.203  12.932  70.475  1.00  0.00    -0.395 C  
BRANCH  10  11
HETATM   11  C   UNL     1     -12.488  14.303  69.861  1.00  0.00    -0.315 C  
BRANCH  11  12
HETATM   12  C   UNL     1     -12.146  14.298  68.375  1.00  0.00    -0.297 C  
BRANCH  12  13
HETATM   13  C   UNL     1     -11.646  12.931  67.903  1.00  0.00    -0.391 C  
HETATM   14  C   UNL     1     -10.297  13.025  67.159  1.00  0.00    -0.243 C  
HETATM   15  C   UNL     1      -9.924  11.673  66.552  1.00  0.00    -0.230 A  
HETATM   16  C   UNL     1      -9.189  13.602  68.058  1.00  0.00    -0.197 C  
HETATM   17  C   UNL     1      -9.196  10.744  67.324  1.00  0.00    -0.158 A  
HETATM   18  C   UNL     1      -8.792   9.514  66.801  1.00  0.00    -0.145 A  
HETATM   19  C   UNL     1      -9.122   9.170  65.497  1.00  0.00    -0.275 A  
HETATM   20  C   UNL     1      -9.876  10.050  64.725  1.00  0.00    -0.325 A  
HETATM   21  C   UNL     1     -10.282  11.288  65.244  1.00  0.00    -0.274 A  
HETATM   22  I   UNL     1     -11.446  12.476  63.948  1.00  0.00    -0.636 I  
ENDBRANCH  12  13
ENDBRANCH  11  12
ENDBRANCH  10  11
ENDBRANCH   9  10
ENDBRANCH   8   9
ENDBRANCH   7   8
ENDBRANCH   6   7
ENDBRANCH   4   6
ENDBRANCH   3   4
ENDBRANCH   2   3
TORSDOF 10
ENDMDL
MODEL       94
REMARK 921   NORMALIZED FREE ENERGY PREDICTED BY IDOCK:   -4.30 KCAL/MOL
REMARK 922        TOTAL FREE ENERGY PREDICTED BY IDOCK:   -8.21 KCAL/MOL
REMARK 923 INTER-LIGAND FREE ENERGY PREDICTED BY IDOCK:   -6.77 KCAL/MOL
REMARK 924 INTRA-LIGAND FREE ENERGY PREDICTED BY IDOCK:   -1.44 KCAL/MOL
REMARK 927      BINDING AFFINITY PREDICTED BY RF-SCORE:    0.00 PKD
ROOT
HETATM    1  C   UNL     1     -10.997   5.965  69.513  1.00  0.00    -0.438 C  
HETATM    2  C   UNL     1     -10.829   5.890  71.020  1.00  0.00    -0.273 C  
ENDROOT
BRANCH   2   3
HETATM    3  O   UNL     1     -12.033   6.383  71.620  1.00  0.00    -0.323 OA 
BRANCH   3   4
HETATM    4  C   UNL     1     -11.897   7.578  72.262  1.00  0.00    -0.289 C  
HETATM    5  O   UNL     1     -11.228   7.767  73.267  1.00  0.00    -0.350 OA 
BRANCH   4   6
HETATM    6  C   UNL     1     -12.622   8.645  71.482  1.00  0.00    -0.360 C  
BRANCH   6   7
HETATM    7  C   UNL     1     -11.761   9.897  71.361  1.00  0.00    -0.449 C  
BRANCH   7   8
HETATM    8  C   UNL     1     -10.853   9.847  70.138  1.00  0.00    -0.356 C  
BRANCH   8   9
HETATM    9  C   UNL     1      -9.472   9.326  70.532  1.00  0.00    -0.317 C  
BRANCH   9  10
HETATM   10  C   UNL     1      -8.395   9.841  69.588  1.00  0.00    -0.180 C  
BRANCH  10  11
HETATM   11  C   UNL     1      -7.519   8.699  69.075  1.00  0.00    -0.089 C  
BRANCH  11  12
HETATM   12  C   UNL     1      -7.568   8.637  67.552  1.00  0.00    -0.094 C  
BRANCH  12  13
HETATM   13  C   UNL     1      -8.325   9.824  66.951  1.00  0.00    -0.120 C  
HETATM   14  C   UNL     1      -9.555   9.381  66.132  1.00  0.00    -0.311 C  
HETATM   15  C   UNL     1     -10.174  10.575  65.406  1.00  0.00    -0.340 A  
HETATM   16  C   UNL     1     -10.572   8.616  66.997  1.00  0.00    -0.293 C  
HETATM   17  C   UNL     1     -11.151  11.354  66.060  1.00  0.00    -0.235 A  
HETATM   18  C   UNL     1     -11.779  12.427  65.425  1.00  0.00    -0.452 A  
HETATM   19  C   UNL     1     -11.432  12.764  64.123  1.00  0.00    -0.450 A  
HETATM   20  C   UNL     1     -10.442  12.039  63.466  1.00  0.00    -0.505 A  
HETATM   21  C   UNL     1      -9.810  10.958  64.098  1.00  0.00    -0.314 A  
HETATM   22  I   UNL     1      -8.309   9.999  62.969  1.00  0.00    -0.230 I  
ENDBRANCH  12  13
ENDBRANCH  11  12
ENDBRANCH  10  11
ENDBRANCH   9  10
ENDBRANCH   8   9
ENDBRANCH   7   8
ENDBRANCH   6   7
ENDBRANCH   4   6
ENDBRANCH   3   4
ENDBRANCH   2   3
TORSDOF 10
ENDMDL
MODEL       95
REMARK 921   NORMALIZED FREE ENERGY PREDICTED BY IDOCK:   -4.30 KCAL/MOL
REMARK 922        TOTAL FREE ENERGY PREDICTED BY IDOCK:   -8.21 KCAL/MOL
REMARK 923 INTER-LIGAND FREE ENERGY PREDICTED BY IDOCK:   -7.65 KCAL/MOL
REMARK 924 INTRA-LIGAND FREE ENERGY PREDICTED BY IDOCK:   -0.56 KCAL/MOL
REMARK 927      BINDING AFFINITY PREDICTED BY RF-SCORE:    0.00 PKD
ROOT
HETATM    1  C   UNL     1     -11.460  12.902  65.249  1.00  0.00    -0.348 C  
HETATM    2  C   UNL     1     -12.159  13.629  66.383  1.00  0.00    -0.433 C  
ENDROOT
BRANCH   2   3
HETATM    3  O   UNL     1     -11.174  14.404  67.078  1.00  0.00    -0.307 OA 
BRANCH   3   4
HETATM    4  C   UNL     1     -11.617  14.975  68.234  1.00  0.00    -0.334 C  
HETATM    5  O   UNL     1     -11.599  16.172  68.481  1.00  0.00    -0.377 OA 
BRANCH   4   6
HETATM    6  C   UNL     1     -12.217  13.910  69.115  1.00  0.00    -0.305 C  
BRANCH   6   7
HETATM    7  C   UNL     1     -12.735  14.519  70.413  1.00  0.00    -0.378 C  
BRANCH   7   8
HETATM    8  C   UNL     1     -13.004  13.458  71.473  1.00  0.00    -0.429 C  
BRANCH   8   9
HETATM    9  C   UNL     1     -12.440  12.112  71.022  1.00  0.00    -0.369 C  
BRANCH   9  10
HETATM   10  C   UNL     1     -13.081  10.959  71.782  1.00  0.00    -0.564 C  
BRANCH  10  11
HETATM   11  C   UNL     1     -12.635   9.611  71.218  1.00  0.00    -0.443 C  
BRANCH  11  12
HETATM   12  C   UNL     1     -13.412   8.478  71.879  1.00  0.00    -0.411 C  
BRANCH  12  13
HETATM   13  C   UNL     1     -12.800   7.107  71.578  1.00  0.00    -0.434 C  
HETATM   14  C   UNL     1     -11.258   7.124  71.657  1.00  0.00    -0.275 C  
HETATM   15  C   UNL     1     -10.683   5.793  71.178  1.00  0.00    -0.327 A  
HETATM   16  C   UNL     1     -10.763   7.519  73.060  1.00  0.00    -0.438 C  
HETATM   17  C   UNL     1     -10.510   4.739  72.100  1.00  0.00    -0.243 A  
HETATM   18  C   UNL     1      -9.947   3.519  71.723  1.00  0.00    -0.202 A  
HETATM   19  C   UNL     1      -9.558   3.311  70.406  1.00  0.00    -0.211 A  
HETATM   20  C   UNL     1      -9.754   4.316  69.464  1.00  0.00    -0.272 A  
HETATM   21  C   UNL     1     -10.317   5.546  69.838  1.00  0.00    -0.298 A  
HETATM   22  I   UNL     1     -10.573   6.938  68.276  1.00  0.00    -0.250 I  
ENDBRANCH  12  13
ENDBRANCH  11  12
ENDBRANCH  10  11
ENDBRANCH   9  10
ENDBRANCH   8   9
ENDBRANCH   7   8
ENDBRANCH   6   7
ENDBRANCH   4   6
ENDBRANCH   3   4
ENDBRANCH   2   3
TORSDOF 10
ENDMDL
MODEL       96
REMARK 921   NORMALIZED FREE ENERGY PREDICTED BY IDOCK:   -4.28 KCAL/MOL
REMARK 922        TOTAL FREE ENERGY PREDICTED BY IDOCK:   -8.19 KCAL/MOL
REMARK 923 INTER-LIGAND FREE ENERGY PREDICTED BY IDOCK:   -6.56 KCAL/MOL
REMARK 924 INTRA-LIGAND FREE ENERGY PREDICTED BY IDOCK:   -1.62 KCAL/MOL
REMARK 927      BINDING AFFINITY PREDICTED BY RF-SCORE:    0.00 PKD
ROOT
HETATM    1  C   UNL     1     -12.313  11.932  63.677  1.00  0.00    -0.591 C  
HETATM    2  C   UNL     1     -12.089  13.426  63.529  1.00  0.00    -0.432 C  
ENDROOT
BRANCH   2   3
HETATM    3  O   UNL     1     -12.790  14.081  64.594  1.00  0.00    -0.661 OA 
BRANCH   3   4
HETATM    4  C   UNL     1     -12.063  14.237  65.736  1.00  0.00    -0.405 C  
HETATM    5  O   UNL     1     -12.325  13.723  66.814  1.00  0.00    -0.403 OA 
BRANCH   4   6
HETATM    6  C   UNL     1     -10.839  15.062  65.436  1.00  0.00    -0.376 C  
BRANCH   6   7
HETATM    7  C   UNL     1      -9.589  14.385  65.987  1.00  0.00    -0.292 C  
BRANCH   7   8
HETATM    8  C   UNL     1      -9.133  15.011  67.300  1.00  0.00    -0.213 C  
BRANCH   8   9
HETATM    9  C   UNL     1      -8.917  13.923  68.350  1.00  0.00    -0.178 C  
BRANCH   9  10
HETATM   10  C   UNL     1      -7.438  13.607  68.524  1.00  0.00    -0.119 C  
BRANCH  10  11
HETATM   11  C   UNL     1      -7.197  12.098  68.550  1.00  0.00    -0.102 C  
BRANCH  11  12
HETATM   12  C   UNL     1      -7.459  11.496  67.173  1.00  0.00    -0.142 C  
BRANCH  12  13
HETATM   13  C   UNL     1      -8.041  10.083  67.263  1.00  0.00    -0.114 C  
HETATM   14  C   UNL     1      -9.490  10.079  67.794  1.00  0.00    -0.157 C  
HETATM   15  C   UNL     1      -9.967   8.648  68.037  1.00  0.00    -0.221 A  
HETATM   16  C   UNL     1     -10.436  10.876  66.879  1.00  0.00    -0.299 C  
HETATM   17  C   UNL     1     -10.572   7.930  66.985  1.00  0.00    -0.381 A  
HETATM   18  C   UNL     1     -11.066   6.637  67.168  1.00  0.00    -0.427 A  
HETATM   19  C   UNL     1     -10.949   6.017  68.404  1.00  0.00    -0.340 A  
HETATM   20  C   UNL     1     -10.319   6.684  69.451  1.00  0.00    -0.228 A  
HETATM   21  C   UNL     1      -9.825   7.985  69.274  1.00  0.00    -0.178 A  
HETATM   22  I   UNL     1      -8.869   8.827  70.954  1.00  0.00    -0.303 I  
ENDBRANCH  12  13
ENDBRANCH  11  12
ENDBRANCH  10  11
ENDBRANCH   9  10
ENDBRANCH   8   9
ENDBRANCH   7   8
ENDBRANCH   6   7
ENDBRANCH   4   6
ENDBRANCH   3   4
ENDBRANCH   2   3
TORSDOF 10
ENDMDL
MODEL       97
REMARK 921   NORMALIZED FREE ENERGY PREDICTED BY IDOCK:   -4.27 KCAL/MOL
REMARK 922        TOTAL FREE ENERGY PREDICTED BY IDOCK:   -8.17 KCAL/MOL
REMARK 923 INTER-LIGAND FREE ENERGY PREDICTED BY IDOCK:   -6.90 KCAL/MOL
REMARK 924 INTRA-LIGAND FREE ENERGY PREDICTED BY IDOCK:   -1.27 KCAL/MOL
REMARK 927      BINDING AFFINITY PREDICTED BY RF-SCORE:    0.00 PKD
ROOT
HETATM    1  C   UNL     1      -7.944   9.780  62.541  1.00  0.00    -0.128 C  
HETATM    2  C   UNL     1      -9.291  10.463  62.388  1.00  0.00    -0.263 C  
ENDROOT
BRANCH   2   3
HETATM    3  O   UNL     1      -9.971  10.376  63.646  1.00  0.00    -0.294 OA 
BRANCH   3   4
HETATM    4  C   UNL     1     -10.640  11.508  64.007  1.00  0.00    -0.379 C  
HETATM    5  O   UNL     1     -11.101  12.332  63.231  1.00  0.00    -0.427 OA 
BRANCH   4   6
HETATM    6  C   UNL     1     -10.802  11.531  65.505  1.00  0.00    -0.313 C  
BRANCH   6   7
HETATM    7  C   UNL     1     -12.030  12.344  65.897  1.00  0.00    -0.434 C  
BRANCH   7   8
HETATM    8  C   UNL     1     -11.900  12.935  67.297  1.00  0.00    -0.416 C  
BRANCH   8   9
HETATM    9  C   UNL     1     -11.635  14.436  67.208  1.00  0.00    -0.401 C  
BRANCH   9  10
HETATM   10  C   UNL     1     -11.725  14.931  65.771  1.00  0.00    -0.179 C  
BRANCH  10  11
HETATM   11  C   UNL     1     -10.479  15.726  65.383  1.00  0.00    -0.438 C  
BRANCH  11  12
HETATM   12  C   UNL     1      -9.238  15.109  66.020  1.00  0.00    -0.273 C  
BRANCH  12  13
HETATM   13  C   UNL     1      -8.302  16.170  66.604  1.00  0.00    -0.321 C  
HETATM   14  C   UNL     1      -8.613  16.473  68.085  1.00  0.00    -0.193 C  
HETATM   15  C   UNL     1      -7.781  17.657  68.576  1.00  0.00    -0.281 A  
HETATM   16  C   UNL     1      -8.453  15.224  68.970  1.00  0.00    -0.221 C  
HETATM   17  C   UNL     1      -6.495  17.427  69.109  1.00  0.00    -0.239 A  
HETATM   18  C   UNL     1      -5.713  18.469  69.612  1.00  0.00    -0.243 A  
HETATM   19  C   UNL     1      -6.188  19.774  69.577  1.00  0.00    -0.359 A  
HETATM   20  C   UNL     1      -7.435  20.036  69.019  1.00  0.00    -0.121 A  
HETATM   21  C   UNL     1      -8.227  18.994  68.515  1.00  0.00    -0.355 A  
HETATM   22  I   UNL     1     -10.070  19.579  67.674  1.00  0.00    -0.626 I  
ENDBRANCH  12  13
ENDBRANCH  11  12
ENDBRANCH  10  11
ENDBRANCH   9  10
ENDBRANCH   8   9
ENDBRANCH   7   8
ENDBRANCH   6   7
ENDBRANCH   4   6
ENDBRANCH   3   4
ENDBRANCH   2   3
TORSDOF 10
ENDMDL
MODEL       98
REMARK 921   NORMALIZED FREE ENERGY PREDICTED BY IDOCK:   -4.27 KCAL/MOL
REMARK 922        TOTAL FREE ENERGY PREDICTED BY IDOCK:   -8.17 KCAL/MOL
REMARK 923 INTER-LIGAND FREE ENERGY PREDICTED BY IDOCK:   -7.17 KCAL/MOL
REMARK 924 INTRA-LIGAND FREE ENERGY PREDICTED BY IDOCK:   -1.00 KCAL/MOL
REMARK 927      BINDING AFFINITY PREDICTED BY RF-SCORE:    0.00 PKD
ROOT
HETATM    1  C   UNL     1      -7.202   6.458  72.820  1.00  0.00    -0.083 C  
HETATM    2  C   UNL     1      -8.136   6.134  71.668  1.00  0.00    -0.110 C  
ENDROOT
BRANCH   2   3
HETATM    3  O   UNL     1      -9.353   5.620  72.223  1.00  0.00    -0.145 OA 
BRANCH   3   4
HETATM    4  C   UNL     1     -10.182   6.568  72.745  1.00  0.00    -0.186 C  
HETATM    5  O   UNL     1     -10.493   6.661  73.923  1.00  0.00    -0.331 OA 
BRANCH   4   6
HETATM    6  C   UNL     1     -10.574   7.535  71.658  1.00  0.00    -0.232 C  
BRANCH   6   7
HETATM    7  C   UNL     1     -11.789   7.019  70.896  1.00  0.00    -0.401 C  
BRANCH   7   8
HETATM    8  C   UNL     1     -13.093   7.341  71.617  1.00  0.00    -0.417 C  
BRANCH   8   9
HETATM    9  C   UNL     1     -13.026   8.744  72.217  1.00  0.00    -0.462 C  
BRANCH   9  10
HETATM   10  C   UNL     1     -13.499   9.795  71.222  1.00  0.00    -0.362 C  
BRANCH  10  11
HETATM   11  C   UNL     1     -12.583  11.018  71.234  1.00  0.00    -0.517 C  
BRANCH  11  12
HETATM   12  C   UNL     1     -11.556  10.920  70.110  1.00  0.00    -0.425 C  
BRANCH  12  13
HETATM   13  C   UNL     1     -11.901  11.835  68.933  1.00  0.00    -0.381 C  
HETATM   14  C   UNL     1     -10.861  11.745  67.796  1.00  0.00    -0.258 C  
HETATM   15  C   UNL     1     -11.144  12.798  66.726  1.00  0.00    -0.314 A  
HETATM   16  C   UNL     1     -10.766  10.320  67.221  1.00  0.00    -0.323 C  
HETATM   17  C   UNL     1     -12.022  12.491  65.665  1.00  0.00    -0.492 A  
HETATM   18  C   UNL     1     -12.278  13.402  64.638  1.00  0.00    -0.456 A  
HETATM   19  C   UNL     1     -11.680  14.655  64.655  1.00  0.00    -0.431 A  
HETATM   20  C   UNL     1     -10.841  15.002  65.710  1.00  0.00    -0.355 A  
HETATM   21  C   UNL     1     -10.577  14.089  66.743  1.00  0.00    -0.277 A  
HETATM   22  I   UNL     1      -9.315  14.797  68.277  1.00  0.00    -0.212 I  
ENDBRANCH  12  13
ENDBRANCH  11  12
ENDBRANCH  10  11
ENDBRANCH   9  10
ENDBRANCH   8   9
ENDBRANCH   7   8
ENDBRANCH   6   7
ENDBRANCH   4   6
ENDBRANCH   3   4
ENDBRANCH   2   3
TORSDOF 10
ENDMDL
MODEL       99
REMARK 921   NORMALIZED FREE ENERGY PREDICTED BY IDOCK:   -4.27 KCAL/MOL
REMARK 922        TOTAL FREE ENERGY PREDICTED BY IDOCK:   -8.16 KCAL/MOL
REMARK 923 INTER-LIGAND FREE ENERGY PREDICTED BY IDOCK:   -7.42 KCAL/MOL
REMARK 924 INTRA-LIGAND FREE ENERGY PREDICTED BY IDOCK:   -0.75 KCAL/MOL
REMARK 927      BINDING AFFINITY PREDICTED BY RF-SCORE:    0.00 PKD
ROOT
HETATM    1  C   UNL     1     -10.436   3.217  74.015  1.00  0.00    -0.251 C  
HETATM    2  C   UNL     1     -11.095   4.407  73.340  1.00  0.00    -0.305 C  
ENDROOT
BRANCH   2   3
HETATM    3  O   UNL     1     -10.072   5.367  73.050  1.00  0.00    -0.168 OA 
BRANCH   3   4
HETATM    4  C   UNL     1     -10.315   6.138  71.952  1.00  0.00    -0.208 C  
HETATM    5  O   UNL     1     -10.599   5.714  70.841  1.00  0.00    -0.244 OA 
BRANCH   4   6
HETATM    6  C   UNL     1     -10.272   7.591  72.349  1.00  0.00    -0.261 C  
BRANCH   6   7
HETATM    7  C   UNL     1     -11.657   8.073  72.764  1.00  0.00    -0.390 C  
BRANCH   7   8
HETATM    8  C   UNL     1     -12.451   8.615  71.581  1.00  0.00    -0.382 C  
BRANCH   8   9
HETATM    9  C   UNL     1     -13.377   9.739  72.043  1.00  0.00    -0.547 C  
BRANCH   9  10
HETATM   10  C   UNL     1     -12.916  11.089  71.512  1.00  0.00    -0.553 C  
BRANCH  10  11
HETATM   11  C   UNL     1     -11.770  10.927  70.514  1.00  0.00    -0.441 C  
BRANCH  11  12
HETATM   12  C   UNL     1     -11.869  11.985  69.419  1.00  0.00    -0.384 C  
BRANCH  12  13
HETATM   13  C   UNL     1     -11.574  11.407  68.033  1.00  0.00    -0.357 C  
HETATM   14  C   UNL     1     -10.367  12.093  67.357  1.00  0.00    -0.220 C  
HETATM   15  C   UNL     1     -10.218  11.615  65.914  1.00  0.00    -0.277 A  
HETATM   16  C   UNL     1      -9.078  11.919  68.180  1.00  0.00    -0.190 C  
HETATM   17  C   UNL     1      -9.451  10.464  65.640  1.00  0.00    -0.262 A  
HETATM   18  C   UNL     1      -9.246  10.012  64.335  1.00  0.00    -0.316 A  
HETATM   19  C   UNL     1      -9.821  10.689  63.267  1.00  0.00    -0.364 A  
HETATM   20  C   UNL     1     -10.618  11.804  63.509  1.00  0.00    -0.499 A  
HETATM   21  C   UNL     1     -10.824  12.265  64.818  1.00  0.00    -0.304 A  
HETATM   22  I   UNL     1     -12.087  13.943  65.000  1.00  0.00    -0.493 I  
ENDBRANCH  12  13
ENDBRANCH  11  12
ENDBRANCH  10  11
ENDBRANCH   9  10
ENDBRANCH   8   9
ENDBRANCH   7   8
ENDBRANCH   6   7
ENDBRANCH   4   6
ENDBRANCH   3   4
ENDBRANCH   2   3
TORSDOF 10
ENDMDL
MODEL      100
REMARK 921   NORMALIZED FREE ENERGY PREDICTED BY IDOCK:   -4.24 KCAL/MOL
REMARK 922        TOTAL FREE ENERGY PREDICTED BY IDOCK:   -8.12 KCAL/MOL
REMARK 923 INTER-LIGAND FREE ENERGY PREDICTED BY IDOCK:   -6.68 KCAL/MOL
REMARK 924 INTRA-LIGAND FREE ENERGY PREDICTED BY IDOCK:   -1.44 KCAL/MOL
REMARK 927      BINDING AFFINITY PREDICTED BY RF-SCORE:    0.00 PKD
ROOT
HETATM    1  C   UNL     1      -8.071  10.896  69.038  1.00  0.00    -0.126 C  
HETATM    2  C   UNL     1      -9.409  10.213  68.815  1.00  0.00    -0.168 C  
ENDROOT
BRANCH   2   3
HETATM    3  O   UNL     1      -9.815   9.632  70.060  1.00  0.00    -0.216 OA 
BRANCH   3   4
HETATM    4  C   UNL     1     -11.034  10.047  70.507  1.00  0.00    -0.326 C  
HETATM    5  O   UNL     1     -11.498   9.811  71.613  1.00  0.00    -0.364 OA 
BRANCH   4   6
HETATM    6  C   UNL     1     -11.674  10.922  69.460  1.00  0.00    -0.400 C  
BRANCH   6   7
HETATM    7  C   UNL     1     -12.272  12.170  70.100  1.00  0.00    -0.308 C  
BRANCH   7   8
HETATM    8  C   UNL     1     -11.724  13.448  69.477  1.00  0.00    -0.385 C  
BRANCH   8   9
HETATM    9  C   UNL     1     -11.412  13.219  68.000  1.00  0.00    -0.344 C  
BRANCH   9  10
HETATM   10  C   UNL     1     -11.984  14.333  67.133  1.00  0.00    -0.449 C  
BRANCH  10  11
HETATM   11  C   UNL     1     -10.955  14.824  66.117  1.00  0.00    -0.332 C  
BRANCH  11  12
HETATM   12  C   UNL     1      -9.553  14.390  66.531  1.00  0.00    -0.310 C  
BRANCH  12  13
HETATM   13  C   UNL     1      -8.635  15.585  66.798  1.00  0.00    -0.307 C  
HETATM   14  C   UNL     1      -8.926  16.256  68.157  1.00  0.00    -0.187 C  
HETATM   15  C   UNL     1      -8.117  17.544  68.303  1.00  0.00    -0.268 A  
HETATM   16  C   UNL     1      -8.718  15.283  69.331  1.00  0.00    -0.216 C  
HETATM   17  C   UNL     1      -6.816  17.487  68.847  1.00  0.00    -0.246 A  
HETATM   18  C   UNL     1      -6.053  18.640  69.043  1.00  0.00    -0.247 A  
HETATM   19  C   UNL     1      -6.562  19.880  68.683  1.00  0.00    -0.334 A  
HETATM   20  C   UNL     1      -7.826  19.963  68.106  1.00  0.00    -0.307 A  
HETATM   21  C   UNL     1      -8.599  18.809  67.909  1.00  0.00    -0.296 A  
HETATM   22  I   UNL     1     -10.471  19.118  66.990  1.00  0.00    -0.544 I  
ENDBRANCH  12  13
ENDBRANCH  11  12
ENDBRANCH  10  11
ENDBRANCH   9  10
ENDBRANCH   8   9
ENDBRANCH   7   8
ENDBRANCH   6   7
ENDBRANCH   4   6
ENDBRANCH   3   4
ENDBRANCH   2   3
TORSDOF 10
ENDMDL
MODEL      101
REMARK 921   NORMALIZED FREE ENERGY PREDICTED BY IDOCK:   -4.23 KCAL/MOL
REMARK 922        TOTAL FREE ENERGY PREDICTED BY IDOCK:   -8.11 KCAL/MOL
REMARK 923 INTER-LIGAND FREE ENERGY PREDICTED BY IDOCK:   -6.79 KCAL/MOL
REMARK 924 INTRA-LIGAND FREE ENERGY PREDICTED BY IDOCK:   -1.32 KCAL/MOL
REMARK 927      BINDING AFFINITY PREDICTED BY RF-SCORE:    0.00 PKD
ROOT
HETATM    1  C   UNL     1      -9.616  10.703  64.747  1.00  0.00    -0.334 C  
HETATM    2  C   UNL     1     -10.377  11.327  63.591  1.00  0.00    -0.408 C  
ENDROOT
BRANCH   2   3
HETATM    3  O   UNL     1     -10.858  12.606  64.023  1.00  0.00    -0.357 OA 
BRANCH   3   4
HETATM    4  C   UNL     1     -12.212  12.685  64.156  1.00  0.00    -0.450 C  
HETATM    5  O   UNL     1     -13.023  12.428  63.279  1.00  0.00    -0.675 OA 
BRANCH   4   6
HETATM    6  C   UNL     1     -12.550  13.047  65.579  1.00  0.00    -0.422 C  
BRANCH   6   7
HETATM    7  C   UNL     1     -11.662  14.186  66.066  1.00  0.00    -0.389 C  
BRANCH   7   8
HETATM    8  C   UNL     1     -10.921  13.824  67.348  1.00  0.00    -0.296 C  
BRANCH   8   9
HETATM    9  C   UNL     1     -11.861  13.937  68.546  1.00  0.00    -0.401 C  
BRANCH   9  10
HETATM   10  C   UNL     1     -11.664  12.780  69.516  1.00  0.00    -0.383 C  
BRANCH  10  11
HETATM   11  C   UNL     1     -11.984  11.442  68.850  1.00  0.00    -0.371 C  
BRANCH  11  12
HETATM   12  C   UNL     1     -10.969  10.385  69.273  1.00  0.00    -0.287 C  
BRANCH  12  13
HETATM   13  C   UNL     1     -10.820   9.279  68.226  1.00  0.00    -0.132 C  
HETATM   14  C   UNL     1     -10.091   8.038  68.784  1.00  0.00    -0.206 C  
HETATM   15  C   UNL     1      -9.805   7.036  67.666  1.00  0.00    -0.180 A  
HETATM   16  C   UNL     1     -10.854   7.412  69.965  1.00  0.00    -0.266 C  
HETATM   17  C   UNL     1     -10.774   6.063  67.342  1.00  0.00    -0.393 A  
HETATM   18  C   UNL     1     -10.543   5.098  66.360  1.00  0.00    -0.336 A  
HETATM   19  C   UNL     1      -9.344   5.091  65.660  1.00  0.00    -0.163 A  
HETATM   20  C   UNL     1      -8.386   6.064  65.929  1.00  0.00    -0.138 A  
HETATM   21  C   UNL     1      -8.611   7.034  66.916  1.00  0.00    -0.120 A  
HETATM   22  I   UNL     1      -7.068   8.451  67.163  1.00  0.00    -0.081 I  
ENDBRANCH  12  13
ENDBRANCH  11  12
ENDBRANCH  10  11
ENDBRANCH   9  10
ENDBRANCH   8   9
ENDBRANCH   7   8
ENDBRANCH   6   7
ENDBRANCH   4   6
ENDBRANCH   3   4
ENDBRANCH   2   3
TORSDOF 10
ENDMDL
MODEL      102
REMARK 921   NORMALIZED FREE ENERGY PREDICTED BY IDOCK:   -4.23 KCAL/MOL
REMARK 922        TOTAL FREE ENERGY PREDICTED BY IDOCK:   -8.10 KCAL/MOL
REMARK 923 INTER-LIGAND FREE ENERGY PREDICTED BY IDOCK:   -6.89 KCAL/MOL
REMARK 924 INTRA-LIGAND FREE ENERGY PREDICTED BY IDOCK:   -1.21 KCAL/MOL
REMARK 927      BINDING AFFINITY PREDICTED BY RF-SCORE:    0.00 PKD
ROOT
HETATM    1  C   UNL     1     -12.223  10.789  70.775  1.00  0.00    -0.480 C  
HETATM    2  C   UNL     1     -12.430   9.705  71.817  1.00  0.00    -0.402 C  
ENDROOT
BRANCH   2   3
HETATM    3  O   UNL     1     -12.045   8.456  71.230  1.00  0.00    -0.291 OA 
BRANCH   3   4
HETATM    4  C   UNL     1     -11.437   7.590  72.091  1.00  0.00    -0.291 C  
HETATM    5  O   UNL     1     -11.234   7.802  73.277  1.00  0.00    -0.350 OA 
BRANCH   4   6
HETATM    6  C   UNL     1     -11.143   6.300  71.370  1.00  0.00    -0.339 C  
BRANCH   6   7
HETATM    7  C   UNL     1     -11.476   6.428  69.888  1.00  0.00    -0.483 C  
BRANCH   7   8
HETATM    8  C   UNL     1     -10.405   5.795  69.007  1.00  0.00    -0.313 C  
BRANCH   8   9
HETATM    9  C   UNL     1     -10.189   6.643  67.755  1.00  0.00    -0.207 C  
BRANCH   9  10
HETATM   10  C   UNL     1     -10.207   8.130  68.084  1.00  0.00    -0.253 C  
BRANCH  10  11
HETATM   11  C   UNL     1     -10.630   8.957  66.871  1.00  0.00    -0.254 C  
BRANCH  11  12
HETATM   12  C   UNL     1      -9.757  10.202  66.750  1.00  0.00    -0.235 C  
BRANCH  12  13
HETATM   13  C   UNL     1     -10.089  11.244  67.821  1.00  0.00    -0.199 C  
HETATM   14  C   UNL     1     -10.554  12.584  67.211  1.00  0.00    -0.246 C  
HETATM   15  C   UNL     1     -10.702  13.646  68.300  1.00  0.00    -0.266 A  
HETATM   16  C   UNL     1     -11.830  12.413  66.367  1.00  0.00    -0.421 C  
HETATM   17  C   UNL     1     -11.928  13.771  68.986  1.00  0.00    -0.399 A  
HETATM   18  C   UNL     1     -12.129  14.754  69.956  1.00  0.00    -0.380 A  
HETATM   19  C   UNL     1     -11.100  15.627  70.283  1.00  0.00    -0.361 A  
HETATM   20  C   UNL     1      -9.866  15.502  69.654  1.00  0.00    -0.281 A  
HETATM   21  C   UNL     1      -9.659  14.518  68.675  1.00  0.00    -0.219 A  
HETATM   22  I   UNL     1      -7.718  14.450  67.854  1.00  0.00    -0.219 I  
ENDBRANCH  12  13
ENDBRANCH  11  12
ENDBRANCH  10  11
ENDBRANCH   9  10
ENDBRANCH   8   9
ENDBRANCH   7   8
ENDBRANCH   6   7
ENDBRANCH   4   6
ENDBRANCH   3   4
ENDBRANCH   2   3
TORSDOF 10
ENDMDL
MODEL      103
REMARK 921   NORMALIZED FREE ENERGY PREDICTED BY IDOCK:   -4.23 KCAL/MOL
REMARK 922        TOTAL FREE ENERGY PREDICTED BY IDOCK:   -8.10 KCAL/MOL
REMARK 923 INTER-LIGAND FREE ENERGY PREDICTED BY IDOCK:   -7.13 KCAL/MOL
REMARK 924 INTRA-LIGAND FREE ENERGY PREDICTED BY IDOCK:   -0.97 KCAL/MOL
REMARK 927      BINDING AFFINITY PREDICTED BY RF-SCORE:    0.00 PKD
ROOT
HETATM    1  C   UNL     1     -12.127  12.136  63.568  1.00  0.00    -0.649 C  
HETATM    2  C   UNL     1     -11.193  12.619  64.662  1.00  0.00    -0.310 C  
ENDROOT
BRANCH   2   3
HETATM    3  O   UNL     1     -10.929  11.512  65.533  1.00  0.00    -0.284 OA 
BRANCH   3   4
HETATM    4  C   UNL     1     -11.407  11.664  66.801  1.00  0.00    -0.286 C  
HETATM    5  O   UNL     1     -12.064  12.615  67.198  1.00  0.00    -0.466 OA 
BRANCH   4   6
HETATM    6  C   UNL     1     -11.079  10.432  67.605  1.00  0.00    -0.361 C  
BRANCH   6   7
HETATM    7  C   UNL     1      -9.575  10.184  67.612  1.00  0.00    -0.170 C  
BRANCH   7   8
HETATM    8  C   UNL     1      -8.952  10.502  68.966  1.00  0.00    -0.183 C  
BRANCH   8   9
HETATM    9  C   UNL     1      -7.634  11.249  68.773  1.00  0.00    -0.130 C  
BRANCH   9  10
HETATM   10  C   UNL     1      -7.555  11.885  67.392  1.00  0.00    -0.151 C  
BRANCH  10  11
HETATM   11  C   UNL     1      -7.555  13.410  67.486  1.00  0.00    -0.176 C  
BRANCH  11  12
HETATM   12  C   UNL     1      -8.879  13.972  66.980  1.00  0.00    -0.234 C  
BRANCH  12  13
HETATM   13  C   UNL     1      -9.087  15.428  67.404  1.00  0.00    -0.206 C  
HETATM   14  C   UNL     1      -9.245  16.374  66.194  1.00  0.00    -0.365 C  
HETATM   15  C   UNL     1      -9.269  17.831  66.653  1.00  0.00    -0.280 A  
HETATM   16  C   UNL     1     -10.463  15.999  65.332  1.00  0.00    -0.415 C  
HETATM   17  C   UNL     1     -10.497  18.425  67.012  1.00  0.00    -0.429 A  
HETATM   18  C   UNL     1     -10.580  19.765  67.394  1.00  0.00    -0.553 A  
HETATM   19  C   UNL     1      -9.432  20.544  67.448  1.00  0.00    -0.551 A  
HETATM   20  C   UNL     1      -8.200  19.975  67.139  1.00  0.00    -0.365 A  
HETATM   21  C   UNL     1      -8.111  18.630  66.751  1.00  0.00    -0.265 A  
HETATM   22  I   UNL     1      -6.163  17.927  66.357  1.00  0.00    -0.300 I  
ENDBRANCH  12  13
ENDBRANCH  11  12
ENDBRANCH  10  11
ENDBRANCH   9  10
ENDBRANCH   8   9
ENDBRANCH   7   8
ENDBRANCH   6   7
ENDBRANCH   4   6
ENDBRANCH   3   4
ENDBRANCH   2   3
TORSDOF 10
ENDMDL
MODEL      104
REMARK 921   NORMALIZED FREE ENERGY PREDICTED BY IDOCK:   -4.21 KCAL/MOL
REMARK 922        TOTAL FREE ENERGY PREDICTED BY IDOCK:   -8.07 KCAL/MOL
REMARK 923 INTER-LIGAND FREE ENERGY PREDICTED BY IDOCK:   -6.35 KCAL/MOL
REMARK 924 INTRA-LIGAND FREE ENERGY PREDICTED BY IDOCK:   -1.72 KCAL/MOL
REMARK 927      BINDING AFFINITY PREDICTED BY RF-SCORE:    0.00 PKD
ROOT
HETATM    1  C   UNL     1      -7.120  10.994  69.418  1.00  0.00    -0.128 C  
HETATM    2  C   UNL     1      -6.059  12.033  69.729  1.00  0.00    -0.145 C  
ENDROOT
BRANCH   2   3
HETATM    3  O   UNL     1      -6.528  13.296  69.242  1.00  0.00    -0.103 OA 
BRANCH   3   4
HETATM    4  C   UNL     1      -6.431  13.453  67.891  1.00  0.00    -0.151 C  
HETATM    5  O   UNL     1      -5.496  13.073  67.202  1.00  0.00    -0.349 OA 
BRANCH   4   6
HETATM    6  C   UNL     1      -7.700  14.080  67.373  1.00  0.00    -0.177 C  
BRANCH   6   7
HETATM    7  C   UNL     1      -7.505  15.576  67.153  1.00  0.00    -0.244 C  
BRANCH   7   8
HETATM    8  C   UNL     1      -8.630  16.182  66.322  1.00  0.00    -0.373 C  
BRANCH   8   9
HETATM    9  C   UNL     1      -9.091  17.497  66.947  1.00  0.00    -0.265 C  
BRANCH   9  10
HETATM   10  C   UNL     1     -10.556  17.431  67.358  1.00  0.00    -0.308 C  
BRANCH  10  11
HETATM   11  C   UNL     1     -10.710  16.821  68.751  1.00  0.00    -0.341 C  
BRANCH  11  12
HETATM   12  C   UNL     1     -11.651  15.621  68.702  1.00  0.00    -0.391 C  
BRANCH  12  13
HETATM   13  C   UNL     1     -10.930  14.342  68.269  1.00  0.00    -0.261 C  
HETATM   14  C   UNL     1     -11.876  13.346  67.565  1.00  0.00    -0.408 C  
HETATM   15  C   UNL     1     -11.165  12.018  67.312  1.00  0.00    -0.371 A  
HETATM   16  C   UNL     1     -12.490  13.947  66.288  1.00  0.00    -0.454 C  
HETATM   17  C   UNL     1     -10.430  11.841  66.120  1.00  0.00    -0.284 A  
HETATM   18  C   UNL     1      -9.800  10.631  65.821  1.00  0.00    -0.296 A  
HETATM   19  C   UNL     1      -9.869   9.572  66.715  1.00  0.00    -0.277 A  
HETATM   20  C   UNL     1     -10.550   9.730  67.918  1.00  0.00    -0.310 A  
HETATM   21  C   UNL     1     -11.189  10.941  68.223  1.00  0.00    -0.286 A  
HETATM   22  I   UNL     1     -12.142  11.016  70.102  1.00  0.00    -0.432 I  
ENDBRANCH  12  13
ENDBRANCH  11  12
ENDBRANCH  10  11
ENDBRANCH   9  10
ENDBRANCH   8   9
ENDBRANCH   7   8
ENDBRANCH   6   7
ENDBRANCH   4   6
ENDBRANCH   3   4
ENDBRANCH   2   3
TORSDOF 10
ENDMDL
MODEL      105
REMARK 921   NORMALIZED FREE ENERGY PREDICTED BY IDOCK:   -4.21 KCAL/MOL
REMARK 922        TOTAL FREE ENERGY PREDICTED BY IDOCK:   -8.07 KCAL/MOL
REMARK 923 INTER-LIGAND FREE ENERGY PREDICTED BY IDOCK:   -6.85 KCAL/MOL
REMARK 924 INTRA-LIGAND FREE ENERGY PREDICTED BY IDOCK:   -1.22 KCAL/MOL
REMARK 927      BINDING AFFINITY PREDICTED BY RF-SCORE:    0.00 PKD
ROOT
HETATM    1  C   UNL     1     -10.580  19.695  67.115  1.00  0.00    -0.611 C  
HETATM    2  C   UNL     1     -10.136  18.260  67.334  1.00  0.00    -0.352 C  
ENDROOT
BRANCH   2   3
HETATM    3  O   UNL     1      -9.179  18.256  68.400  1.00  0.00    -0.301 OA 
BRANCH   3   4
HETATM    4  C   UNL     1      -7.885  18.110  67.998  1.00  0.00    -0.261 C  
HETATM    5  O   UNL     1      -7.352  18.737  67.094  1.00  0.00    -0.211 OA 
BRANCH   4   6
HETATM    6  C   UNL     1      -7.192  17.126  68.905  1.00  0.00    -0.242 C  
BRANCH   6   7
HETATM    7  C   UNL     1      -7.801  15.737  68.752  1.00  0.00    -0.180 C  
BRANCH   7   8
HETATM    8  C   UNL     1      -7.703  15.228  67.318  1.00  0.00    -0.243 C  
BRANCH   8   9
HETATM    9  C   UNL     1      -9.062  14.707  66.854  1.00  0.00    -0.272 C  
BRANCH   9  10
HETATM   10  C   UNL     1     -10.042  14.606  68.015  1.00  0.00    -0.227 C  
BRANCH  10  11
HETATM   11  C   UNL     1     -11.481  14.497  67.514  1.00  0.00    -0.375 C  
BRANCH  11  12
HETATM   12  C   UNL     1     -12.141  13.239  68.070  1.00  0.00    -0.260 C  
BRANCH  12  13
HETATM   13  C   UNL     1     -11.196  12.444  68.973  1.00  0.00    -0.320 C  
HETATM   14  C   UNL     1     -11.253  10.927  68.691  1.00  0.00    -0.326 C  
HETATM   15  C   UNL     1     -10.436  10.158  69.728  1.00  0.00    -0.301 A  
HETATM   16  C   UNL     1     -10.843  10.599  67.245  1.00  0.00    -0.345 C  
HETATM   17  C   UNL     1      -9.061   9.936  69.501  1.00  0.00    -0.237 A  
HETATM   18  C   UNL     1      -8.280   9.201  70.395  1.00  0.00    -0.188 A  
HETATM   19  C   UNL     1      -8.848   8.684  71.552  1.00  0.00    -0.285 A  
HETATM   20  C   UNL     1     -10.192   8.922  71.823  1.00  0.00    -0.414 A  
HETATM   21  C   UNL     1     -10.983   9.656  70.927  1.00  0.00    -0.342 A  
HETATM   22  I   UNL     1     -12.986   9.950  71.517  1.00  0.00    -0.557 I  
ENDBRANCH  12  13
ENDBRANCH  11  12
ENDBRANCH  10  11
ENDBRANCH   9  10
ENDBRANCH   8   9
ENDBRANCH   7   8
ENDBRANCH   6   7
ENDBRANCH   4   6
ENDBRANCH   3   4
ENDBRANCH   2   3
TORSDOF 10
ENDMDL
MODEL      106
REMARK 921   NORMALIZED FREE ENERGY PREDICTED BY IDOCK:   -4.20 KCAL/MOL
REMARK 922        TOTAL FREE ENERGY PREDICTED BY IDOCK:   -8.05 KCAL/MOL
REMARK 923 INTER-LIGAND FREE ENERGY PREDICTED BY IDOCK:   -7.18 KCAL/MOL
REMARK 924 INTRA-LIGAND FREE ENERGY PREDICTED BY IDOCK:   -0.87 KCAL/MOL
REMARK 927      BINDING AFFINITY PREDICTED BY RF-SCORE:    0.00 PKD
ROOT
HETATM    1  C   UNL     1      -7.078  19.652  66.770  1.00  0.00    -0.232 C  
HETATM    2  C   UNL     1      -8.430  19.234  67.318  1.00  0.00    -0.287 C  
ENDROOT
BRANCH   2   3
HETATM    3  O   UNL     1      -9.408  19.469  66.297  1.00  0.00    -0.356 OA 
BRANCH   3   4
HETATM    4  C   UNL     1     -10.394  18.529  66.232  1.00  0.00    -0.427 C  
HETATM    5  O   UNL     1     -10.867  18.075  65.200  1.00  0.00    -0.665 OA 
BRANCH   4   6
HETATM    6  C   UNL     1     -10.737  18.074  67.626  1.00  0.00    -0.360 C  
BRANCH   6   7
HETATM    7  C   UNL     1     -10.715  16.552  67.712  1.00  0.00    -0.329 C  
BRANCH   7   8
HETATM    8  C   UNL     1     -11.474  16.038  68.930  1.00  0.00    -0.362 C  
BRANCH   8   9
HETATM    9  C   UNL     1     -11.815  14.560  68.748  1.00  0.00    -0.350 C  
BRANCH   9  10
HETATM   10  C   UNL     1     -11.831  14.172  67.275  1.00  0.00    -0.452 C  
BRANCH  10  11
HETATM   11  C   UNL     1     -11.858  12.654  67.106  1.00  0.00    -0.399 C  
BRANCH  11  12
HETATM   12  C   UNL     1     -10.441  12.114  66.943  1.00  0.00    -0.250 C  
BRANCH  12  13
HETATM   13  C   UNL     1      -9.960  11.373  68.193  1.00  0.00    -0.196 C  
HETATM   14  C   UNL     1     -10.612   9.982  68.337  1.00  0.00    -0.253 C  
HETATM   15  C   UNL     1     -10.245   9.354  69.681  1.00  0.00    -0.225 A  
HETATM   16  C   UNL     1     -10.282   9.070  67.142  1.00  0.00    -0.334 C  
HETATM   17  C   UNL     1      -9.069   8.583  69.788  1.00  0.00    -0.153 A  
HETATM   18  C   UNL     1      -8.713   7.951  70.981  1.00  0.00    -0.138 A  
HETATM   19  C   UNL     1      -9.514   8.090  72.107  1.00  0.00    -0.264 A  
HETATM   20  C   UNL     1     -10.658   8.879  72.043  1.00  0.00    -0.388 A  
HETATM   21  C   UNL     1     -11.023   9.513  70.846  1.00  0.00    -0.337 A  
HETATM   22  I   UNL     1     -12.766  10.697  70.943  1.00  0.00    -0.427 I  
ENDBRANCH  12  13
ENDBRANCH  11  12
ENDBRANCH  10  11
ENDBRANCH   9  10
ENDBRANCH   8   9
ENDBRANCH   7   8
ENDBRANCH   6   7
ENDBRANCH   4   6
ENDBRANCH   3   4
ENDBRANCH   2   3
TORSDOF 10
ENDMDL
MODEL      107
REMARK 921   NORMALIZED FREE ENERGY PREDICTED BY IDOCK:   -4.18 KCAL/MOL
REMARK 922        TOTAL FREE ENERGY PREDICTED BY IDOCK:   -8.02 KCAL/MOL
REMARK 923 INTER-LIGAND FREE ENERGY PREDICTED BY IDOCK:   -7.15 KCAL/MOL
REMARK 924 INTRA-LIGAND FREE ENERGY PREDICTED BY IDOCK:   -0.88 KCAL/MOL
REMARK 927      BINDING AFFINITY PREDICTED BY RF-SCORE:    0.00 PKD
ROOT
HETATM    1  C   UNL     1      -8.133   9.232  68.865  1.00  0.00    -0.103 C  
HETATM    2  C   UNL     1      -9.365   9.813  69.534  1.00  0.00    -0.213 C  
ENDROOT
BRANCH   2   3
HETATM    3  O   UNL     1      -9.580   9.094  70.755  1.00  0.00    -0.230 OA 
BRANCH   3   4
HETATM    4  C   UNL     1     -10.805   9.290  71.319  1.00  0.00    -0.347 C  
HETATM    5  O   UNL     1     -11.215   8.734  72.327  1.00  0.00    -0.354 OA 
BRANCH   4   6
HETATM    6  C   UNL     1     -11.533  10.368  70.559  1.00  0.00    -0.431 C  
BRANCH   6   7
HETATM    7  C   UNL     1     -13.020  10.347  70.893  1.00  0.00    -0.475 C  
BRANCH   7   8
HETATM    8  C   UNL     1     -13.403  11.461  71.860  1.00  0.00    -0.409 C  
BRANCH   8   9
HETATM    9  C   UNL     1     -12.726  12.767  71.449  1.00  0.00    -0.353 C  
BRANCH   9  10
HETATM   10  C   UNL     1     -13.047  13.889  72.427  1.00  0.00    -0.532 C  
BRANCH  10  11
HETATM   11  C   UNL     1     -12.209  15.133  72.132  1.00  0.00    -0.451 C  
BRANCH  11  12
HETATM   12  C   UNL     1     -11.257  14.866  70.970  1.00  0.00    -0.198 C  
BRANCH  12  13
HETATM   13  C   UNL     1     -10.849  16.155  70.252  1.00  0.00    -0.300 C  
HETATM   14  C   UNL     1     -10.439  15.904  68.786  1.00  0.00    -0.237 C  
HETATM   15  C   UNL     1      -9.871  17.178  68.163  1.00  0.00    -0.281 A  
HETATM   16  C   UNL     1     -11.594  15.302  67.965  1.00  0.00    -0.325 C  
HETATM   17  C   UNL     1     -10.744  18.096  67.543  1.00  0.00    -0.365 A  
HETATM   18  C   UNL     1     -10.271  19.252  66.920  1.00  0.00    -0.496 A  
HETATM   19  C   UNL     1      -8.911  19.533  66.917  1.00  0.00    -0.362 A  
HETATM   20  C   UNL     1      -8.029  18.667  67.556  1.00  0.00    -0.256 A  
HETATM   21  C   UNL     1      -8.498  17.502  68.181  1.00  0.00    -0.254 A  
HETATM   22  I   UNL     1      -7.027  16.327  69.130  1.00  0.00    -0.177 I  
ENDBRANCH  12  13
ENDBRANCH  11  12
ENDBRANCH  10  11
ENDBRANCH   9  10
ENDBRANCH   8   9
ENDBRANCH   7   8
ENDBRANCH   6   7
ENDBRANCH   4   6
ENDBRANCH   3   4
ENDBRANCH   2   3
TORSDOF 10
ENDMDL
MODEL      108
REMARK 921   NORMALIZED FREE ENERGY PREDICTED BY IDOCK:   -4.18 KCAL/MOL
REMARK 922        TOTAL FREE ENERGY PREDICTED BY IDOCK:   -8.02 KCAL/MOL
REMARK 923 INTER-LIGAND FREE ENERGY PREDICTED BY IDOCK:   -7.10 KCAL/MOL
REMARK 924 INTRA-LIGAND FREE ENERGY PREDICTED BY IDOCK:   -0.92 KCAL/MOL
REMARK 927      BINDING AFFINITY PREDICTED BY RF-SCORE:    0.00 PKD
ROOT
HETATM    1  C   UNL     1     -12.153  12.447  63.574  1.00  0.00    -0.651 C  
HETATM    2  C   UNL     1     -12.087  13.803  64.253  1.00  0.00    -0.440 C  
ENDROOT
BRANCH   2   3
HETATM    3  O   UNL     1     -12.736  13.688  65.525  1.00  0.00    -0.504 OA 
BRANCH   3   4
HETATM    4  C   UNL     1     -11.963  13.146  66.508  1.00  0.00    -0.398 C  
HETATM    5  O   UNL     1     -12.123  12.040  67.002  1.00  0.00    -0.603 OA 
BRANCH   4   6
HETATM    6  C   UNL     1     -10.826  14.085  66.818  1.00  0.00    -0.294 C  
BRANCH   6   7
HETATM    7  C   UNL     1      -9.486  13.391  66.605  1.00  0.00    -0.264 C  
BRANCH   7   8
HETATM    8  C   UNL     1      -9.042  12.616  67.840  1.00  0.00    -0.200 C  
BRANCH   8   9
HETATM    9  C   UNL     1      -8.246  11.381  67.425  1.00  0.00    -0.145 C  
BRANCH   9  10
HETATM   10  C   UNL     1      -8.849  10.723  66.191  1.00  0.00    -0.187 C  
BRANCH  10  11
HETATM   11  C   UNL     1      -9.209   9.263  66.465  1.00  0.00    -0.206 C  
BRANCH  11  12
HETATM   12  C   UNL     1     -10.324   9.180  67.503  1.00  0.00    -0.324 C  
BRANCH  12  13
HETATM   13  C   UNL     1      -9.986   8.208  68.636  1.00  0.00    -0.201 C  
HETATM   14  C   UNL     1     -10.998   7.047  68.734  1.00  0.00    -0.150 C  
HETATM   15  C   UNL     1     -10.729   6.205  69.980  1.00  0.00    -0.370 A  
HETATM   16  C   UNL     1     -11.031   6.208  67.443  1.00  0.00    -0.409 C  
HETATM   17  C   UNL     1      -9.819   5.130  69.908  1.00  0.00    -0.289 A  
HETATM   18  C   UNL     1      -9.573   4.303  71.006  1.00  0.00    -0.253 A  
HETATM   19  C   UNL     1     -10.215   4.542  72.214  1.00  0.00    -0.257 A  
HETATM   20  C   UNL     1     -11.086   5.620  72.327  1.00  0.00    -0.318 A  
HETATM   21  C   UNL     1     -11.341   6.452  71.227  1.00  0.00    -0.306 A  
HETATM   22  I   UNL     1     -12.659   8.058  71.590  1.00  0.00    -0.336 I  
ENDBRANCH  12  13
ENDBRANCH  11  12
ENDBRANCH  10  11
ENDBRANCH   9  10
ENDBRANCH   8   9
ENDBRANCH   7   8
ENDBRANCH   6   7
ENDBRANCH   4   6
ENDBRANCH   3   4
ENDBRANCH   2   3
TORSDOF 10
ENDMDL
MODEL      109
REMARK 921   NORMALIZED FREE ENERGY PREDICTED BY IDOCK:   -4.17 KCAL/MOL
REMARK 922        TOTAL FREE ENERGY PREDICTED BY IDOCK:   -8.01 KCAL/MOL
REMARK 923 INTER-LIGAND FREE ENERGY PREDICTED BY IDOCK:   -6.98 KCAL/MOL
REMARK 924 INTRA-LIGAND FREE ENERGY PREDICTED BY IDOCK:   -1.03 KCAL/MOL
REMARK 927      BINDING AFFINITY PREDICTED BY RF-SCORE:    0.00 PKD
ROOT
HETATM    1  C   UNL     1     -13.598   9.183  72.275  1.00  0.00    -0.548 C  
HETATM    2  C   UNL     1     -13.116   8.000  71.457  1.00  0.00    -0.296 C  
ENDROOT
BRANCH   2   3
HETATM    3  O   UNL     1     -11.966   7.453  72.114  1.00  0.00    -0.286 OA 
BRANCH   3   4
HETATM    4  C   UNL     1     -10.976   7.041  71.272  1.00  0.00    -0.243 C  
HETATM    5  O   UNL     1      -9.781   7.057  71.528  1.00  0.00    -0.166 OA 
BRANCH   4   6
HETATM    6  C   UNL     1     -11.595   6.476  70.020  1.00  0.00    -0.455 C  
BRANCH   6   7
HETATM    7  C   UNL     1     -10.548   6.346  68.919  1.00  0.00    -0.298 C  
BRANCH   7   8
HETATM    8  C   UNL     1     -10.917   7.157  67.683  1.00  0.00    -0.226 C  
BRANCH   8   9
HETATM    9  C   UNL     1     -10.063   8.422  67.612  1.00  0.00    -0.268 C  
BRANCH   9  10
HETATM   10  C   UNL     1     -10.909   9.673  67.804  1.00  0.00    -0.278 C  
BRANCH  10  11
HETATM   11  C   UNL     1     -10.854  10.160  69.251  1.00  0.00    -0.269 C  
BRANCH  11  12
HETATM   12  C   UNL     1     -11.540  11.516  69.380  1.00  0.00    -0.388 C  
BRANCH  12  13
HETATM   13  C   UNL     1     -10.747  12.630  68.693  1.00  0.00    -0.269 C  
HETATM   14  C   UNL     1     -11.547  13.947  68.600  1.00  0.00    -0.363 C  
HETATM   15  C   UNL     1     -10.794  14.973  67.754  1.00  0.00    -0.284 A  
HETATM   16  C   UNL     1     -11.927  14.484  69.991  1.00  0.00    -0.388 C  
HETATM   17  C   UNL     1      -9.858  15.829  68.373  1.00  0.00    -0.206 A  
HETATM   18  C   UNL     1      -9.178  16.813  67.653  1.00  0.00    -0.223 A  
HETATM   19  C   UNL     1      -9.398  16.955  66.290  1.00  0.00    -0.292 A  
HETATM   20  C   UNL     1     -10.284  16.097  65.644  1.00  0.00    -0.390 A  
HETATM   21  C   UNL     1     -10.974  15.109  66.362  1.00  0.00    -0.329 A  
HETATM   22  I   UNL     1     -12.246  13.878  65.217  1.00  0.00    -0.515 I  
ENDBRANCH  12  13
ENDBRANCH  11  12
ENDBRANCH  10  11
ENDBRANCH   9  10
ENDBRANCH   8   9
ENDBRANCH   7   8
ENDBRANCH   6   7
ENDBRANCH   4   6
ENDBRANCH   3   4
ENDBRANCH   2   3
TORSDOF 10
ENDMDL
MODEL      110
REMARK 921   NORMALIZED FREE ENERGY PREDICTED BY IDOCK:   -4.17 KCAL/MOL
REMARK 922        TOTAL FREE ENERGY PREDICTED BY IDOCK:   -8.01 KCAL/MOL
REMARK 923 INTER-LIGAND FREE ENERGY PREDICTED BY IDOCK:   -7.02 KCAL/MOL
REMARK 924 INTRA-LIGAND FREE ENERGY PREDICTED BY IDOCK:   -0.98 KCAL/MOL
REMARK 927      BINDING AFFINITY PREDICTED BY RF-SCORE:    0.00 PKD
ROOT
HETATM    1  C   UNL     1      -8.161   8.162  62.762  1.00  0.00    -0.151 C  
HETATM    2  C   UNL     1      -7.895   9.489  63.450  1.00  0.00    -0.132 C  
ENDROOT
BRANCH   2   3
HETATM    3  O   UNL     1      -8.486   9.432  64.754  1.00  0.00    -0.146 OA 
BRANCH   3   4
HETATM    4  C   UNL     1      -9.111  10.579  65.143  1.00  0.00    -0.197 C  
HETATM    5  O   UNL     1      -8.669  11.385  65.948  1.00  0.00    -0.179 OA 
BRANCH   4   6
HETATM    6  C   UNL     1     -10.384  10.741  64.353  1.00  0.00    -0.405 C  
BRANCH   6   7
HETATM    7  C   UNL     1     -10.331  12.009  63.509  1.00  0.00    -0.492 C  
BRANCH   7   8
HETATM    8  C   UNL     1     -11.646  12.778  63.552  1.00  0.00    -0.565 C  
BRANCH   8   9
HETATM    9  C   UNL     1     -12.201  12.787  64.975  1.00  0.00    -0.527 C  
BRANCH   9  10
HETATM   10  C   UNL     1     -12.371  14.209  65.494  1.00  0.00    -0.472 C  
BRANCH  10  11
HETATM   11  C   UNL     1     -11.074  15.004  65.356  1.00  0.00    -0.377 C  
BRANCH  11  12
HETATM   12  C   UNL     1     -10.067  14.562  66.413  1.00  0.00    -0.293 C  
BRANCH  12  13
HETATM   13  C   UNL     1      -9.042  15.655  66.726  1.00  0.00    -0.281 C  
HETATM   14  C   UNL     1      -9.423  16.473  67.979  1.00  0.00    -0.222 C  
HETATM   15  C   UNL     1      -8.477  17.661  68.151  1.00  0.00    -0.260 A  
HETATM   16  C   UNL     1      -9.505  15.588  69.235  1.00  0.00    -0.263 C  
HETATM   17  C   UNL     1      -7.280  17.494  68.879  1.00  0.00    -0.249 A  
HETATM   18  C   UNL     1      -6.405  18.558  69.104  1.00  0.00    -0.264 A  
HETATM   19  C   UNL     1      -6.691  19.815  68.588  1.00  0.00    -0.341 A  
HETATM   20  C   UNL     1      -7.844  20.000  67.830  1.00  0.00    -0.307 A  
HETATM   21  C   UNL     1      -8.729  18.936  67.604  1.00  0.00    -0.288 A  
HETATM   22  I   UNL     1     -10.403  19.389  66.404  1.00  0.00    -0.611 I  
ENDBRANCH  12  13
ENDBRANCH  11  12
ENDBRANCH  10  11
ENDBRANCH   9  10
ENDBRANCH   8   9
ENDBRANCH   7   8
ENDBRANCH   6   7
ENDBRANCH   4   6
ENDBRANCH   3   4
ENDBRANCH   2   3
TORSDOF 10
ENDMDL
MODEL      111
REMARK 921   NORMALIZED FREE ENERGY PREDICTED BY IDOCK:   -4.17 KCAL/MOL
REMARK 922        TOTAL FREE ENERGY PREDICTED BY IDOCK:   -8.00 KCAL/MOL
REMARK 923 INTER-LIGAND FREE ENERGY PREDICTED BY IDOCK:   -7.18 KCAL/MOL
REMARK 924 INTRA-LIGAND FREE ENERGY PREDICTED BY IDOCK:   -0.83 KCAL/MOL
REMARK 927      BINDING AFFINITY PREDICTED BY RF-SCORE:    0.00 PKD
ROOT
HETATM    1  C   UNL     1     -12.521  15.898  74.268  1.00  0.00    -0.773 C  
HETATM    2  C   UNL     1     -12.352  16.061  72.769  1.00  0.00    -0.507 C  
ENDROOT
BRANCH   2   3
HETATM    3  O   UNL     1     -13.592  15.701  72.147  1.00  0.00    -0.463 OA 
BRANCH   3   4
HETATM    4  C   UNL     1     -13.686  14.389  71.790  1.00  0.00    -0.421 C  
HETATM    5  O   UNL     1     -14.306  13.533  72.404  1.00  0.00    -0.645 OA 
BRANCH   4   6
HETATM    6  C   UNL     1     -12.985  14.184  70.472  1.00  0.00    -0.227 C  
BRANCH   6   7
HETATM    7  C   UNL     1     -11.793  13.250  70.640  1.00  0.00    -0.128 C  
BRANCH   7   8
HETATM    8  C   UNL     1     -11.799  12.126  69.610  1.00  0.00    -0.391 C  
BRANCH   8   9
HETATM    9  C   UNL     1     -12.868  11.095  69.966  1.00  0.00    -0.006 C  
BRANCH   9  10
HETATM   10  C   UNL     1     -12.659  10.543  71.370  1.00  0.00    -0.539 C  
BRANCH  10  11
HETATM   11  C   UNL     1     -11.608   9.433  71.374  1.00  0.00    -0.451 C  
BRANCH  11  12
HETATM   12  C   UNL     1     -11.837   8.492  72.552  1.00  0.00    -0.398 C  
BRANCH  12  13
HETATM   13  C   UNL     1     -11.605   7.027  72.174  1.00  0.00    -0.320 C  
HETATM   14  C   UNL     1     -10.151   6.578  72.434  1.00  0.00    -0.187 C  
HETATM   15  C   UNL     1      -9.917   5.174  71.879  1.00  0.00    -0.239 A  
HETATM   16  C   UNL     1      -9.773   6.704  73.921  1.00  0.00    -0.267 C  
HETATM   17  C   UNL     1     -10.188   4.053  72.691  1.00  0.00    -0.232 A  
HETATM   18  C   UNL     1      -9.948   2.751  72.248  1.00  0.00    -0.240 A  
HETATM   19  C   UNL     1      -9.449   2.533  70.971  1.00  0.00    -0.222 A  
HETATM   20  C   UNL     1      -9.211   3.617  70.132  1.00  0.00    -0.221 A  
HETATM   21  C   UNL     1      -9.446   4.928  70.573  1.00  0.00    -0.166 A  
HETATM   22  I   UNL     1      -9.065   6.443  69.157  1.00  0.00    -0.131 I  
ENDBRANCH  12  13
ENDBRANCH  11  12
ENDBRANCH  10  11
ENDBRANCH   9  10
ENDBRANCH   8   9
ENDBRANCH   7   8
ENDBRANCH   6   7
ENDBRANCH   4   6
ENDBRANCH   3   4
ENDBRANCH   2   3
TORSDOF 10
ENDMDL
MODEL      112
REMARK 921   NORMALIZED FREE ENERGY PREDICTED BY IDOCK:   -4.17 KCAL/MOL
REMARK 922        TOTAL FREE ENERGY PREDICTED BY IDOCK:   -8.00 KCAL/MOL
REMARK 923 INTER-LIGAND FREE ENERGY PREDICTED BY IDOCK:   -7.47 KCAL/MOL
REMARK 924 INTRA-LIGAND FREE ENERGY PREDICTED BY IDOCK:   -0.53 KCAL/MOL
REMARK 927      BINDING AFFINITY PREDICTED BY RF-SCORE:    0.00 PKD
ROOT
HETATM    1  C   UNL     1     -10.618   7.631  70.451  1.00  0.00    -0.233 C  
HETATM    2  C   UNL     1     -11.718   6.675  70.874  1.00  0.00    -0.375 C  
ENDROOT
BRANCH   2   3
HETATM    3  O   UNL     1     -12.894   7.449  71.139  1.00  0.00    -0.326 OA 
BRANCH   3   4
HETATM    4  C   UNL     1     -12.698   8.505  71.979  1.00  0.00    -0.376 C  
HETATM    5  O   UNL     1     -12.017   8.483  72.993  1.00  0.00    -0.186 OA 
BRANCH   4   6
HETATM    6  C   UNL     1     -13.374   9.724  71.407  1.00  0.00    -0.449 C  
BRANCH   6   7
HETATM    7  C   UNL     1     -12.361  10.841  71.183  1.00  0.00    -0.498 C  
BRANCH   7   8
HETATM    8  C   UNL     1     -12.085  11.073  69.702  1.00  0.00    -0.411 C  
BRANCH   8   9
HETATM    9  C   UNL     1     -11.293  12.365  69.513  1.00  0.00    -0.250 C  
BRANCH   9  10
HETATM   10  C   UNL     1     -11.101  12.686  68.037  1.00  0.00    -0.288 C  
BRANCH  10  11
HETATM   11  C   UNL     1     -12.069  13.776  67.580  1.00  0.00    -0.366 C  
BRANCH  11  12
HETATM   12  C   UNL     1     -12.160  13.798  66.057  1.00  0.00    -0.470 C  
BRANCH  12  13
HETATM   13  C   UNL     1     -10.957  13.119  65.399  1.00  0.00    -0.298 C  
HETATM   14  C   UNL     1     -11.351  11.834  64.641  1.00  0.00    -0.320 C  
HETATM   15  C   UNL     1     -10.106  11.095  64.154  1.00  0.00    -0.388 A  
HETATM   16  C   UNL     1     -12.354  12.122  63.511  1.00  0.00    -0.682 C  
HETATM   17  C   UNL     1      -9.555  11.418  62.896  1.00  0.00    -0.366 A  
HETATM   18  C   UNL     1      -8.446  10.741  62.386  1.00  0.00    -0.308 A  
HETATM   19  C   UNL     1      -7.842   9.736  63.129  1.00  0.00    -0.139 A  
HETATM   20  C   UNL     1      -8.337   9.424  64.392  1.00  0.00    -0.170 A  
HETATM   21  C   UNL     1      -9.454  10.097  64.909  1.00  0.00    -0.289 A  
HETATM   22  I   UNL     1     -10.043   9.521  66.849  1.00  0.00    -0.286 I  
ENDBRANCH  12  13
ENDBRANCH  11  12
ENDBRANCH  10  11
ENDBRANCH   9  10
ENDBRANCH   8   9
ENDBRANCH   7   8
ENDBRANCH   6   7
ENDBRANCH   4   6
ENDBRANCH   3   4
ENDBRANCH   2   3
TORSDOF 10
ENDMDL
MODEL      113
REMARK 921   NORMALIZED FREE ENERGY PREDICTED BY IDOCK:   -4.17 KCAL/MOL
REMARK 922        TOTAL FREE ENERGY PREDICTED BY IDOCK:   -8.00 KCAL/MOL
REMARK 923 INTER-LIGAND FREE ENERGY PREDICTED BY IDOCK:   -6.34 KCAL/MOL
REMARK 924 INTRA-LIGAND FREE ENERGY PREDICTED BY IDOCK:   -1.65 KCAL/MOL
REMARK 927      BINDING AFFINITY PREDICTED BY RF-SCORE:    0.00 PKD
ROOT
HETATM    1  C   UNL     1     -11.743  12.126  68.251  1.00  0.00    -0.401 C  
HETATM    2  C   UNL     1     -11.602  11.716  69.705  1.00  0.00    -0.315 C  
ENDROOT
BRANCH   2   3
HETATM    3  O   UNL     1     -12.690  10.840  70.021  1.00  0.00    -0.283 OA 
BRANCH   3   4
HETATM    4  C   UNL     1     -12.934  10.698  71.354  1.00  0.00    -0.443 C  
HETATM    5  O   UNL     1     -13.199  11.610  72.124  1.00  0.00    -0.504 OA 
BRANCH   4   6
HETATM    6  C   UNL     1     -12.920   9.233  71.707  1.00  0.00    -0.471 C  
BRANCH   6   7
HETATM    7  C   UNL     1     -11.494   8.760  71.966  1.00  0.00    -0.441 C  
BRANCH   7   8
HETATM    8  C   UNL     1     -11.460   7.483  72.799  1.00  0.00    -0.352 C  
BRANCH   8   9
HETATM    9  C   UNL     1     -11.427   6.262  71.882  1.00  0.00    -0.360 C  
BRANCH   9  10
HETATM   10  C   UNL     1     -10.006   5.742  71.703  1.00  0.00    -0.218 C  
BRANCH  10  11
HETATM   11  C   UNL     1      -9.684   5.517  70.226  1.00  0.00    -0.242 C  
BRANCH  11  12
HETATM   12  C   UNL     1     -10.901   5.839  69.364  1.00  0.00    -0.393 C  
BRANCH  12  13
HETATM   13  C   UNL     1     -10.763   7.189  68.655  1.00  0.00    -0.198 C  
HETATM   14  C   UNL     1      -9.436   7.307  67.875  1.00  0.00    -0.142 C  
HETATM   15  C   UNL     1      -9.258   8.725  67.334  1.00  0.00    -0.158 A  
HETATM   16  C   UNL     1      -9.320   6.232  66.780  1.00  0.00    -0.158 C  
HETATM   17  C   UNL     1      -9.789   9.058  66.070  1.00  0.00    -0.312 A  
HETATM   18  C   UNL     1      -9.614  10.326  65.512  1.00  0.00    -0.299 A  
HETATM   19  C   UNL     1      -8.920  11.303  66.212  1.00  0.00    -0.204 A  
HETATM   20  C   UNL     1      -8.420  11.018  67.479  1.00  0.00    -0.127 A  
HETATM   21  C   UNL     1      -8.589   9.745  68.043  1.00  0.00    -0.122 A  
HETATM   22  I   UNL     1      -7.800   9.502  69.983  1.00  0.00    -0.202 I  
ENDBRANCH  12  13
ENDBRANCH  11  12
ENDBRANCH  10  11
ENDBRANCH   9  10
ENDBRANCH   8   9
ENDBRANCH   7   8
ENDBRANCH   6   7
ENDBRANCH   4   6
ENDBRANCH   3   4
ENDBRANCH   2   3
TORSDOF 10
ENDMDL
MODEL      114
REMARK 921   NORMALIZED FREE ENERGY PREDICTED BY IDOCK:   -4.16 KCAL/MOL
REMARK 922        TOTAL FREE ENERGY PREDICTED BY IDOCK:   -7.99 KCAL/MOL
REMARK 923 INTER-LIGAND FREE ENERGY PREDICTED BY IDOCK:   -6.83 KCAL/MOL
REMARK 924 INTRA-LIGAND FREE ENERGY PREDICTED BY IDOCK:   -1.17 KCAL/MOL
REMARK 927      BINDING AFFINITY PREDICTED BY RF-SCORE:    0.00 PKD
ROOT
HETATM    1  C   UNL     1     -11.589   9.998  70.962  1.00  0.00    -0.476 C  
HETATM    2  C   UNL     1     -10.848   8.933  71.749  1.00  0.00    -0.365 C  
ENDROOT
BRANCH   2   3
HETATM    3  O   UNL     1     -10.246   8.034  70.810  1.00  0.00    -0.193 OA 
BRANCH   3   4
HETATM    4  C   UNL     1     -10.787   6.783  70.796  1.00  0.00    -0.249 C  
HETATM    5  O   UNL     1     -11.984   6.532  70.803  1.00  0.00    -0.378 OA 
BRANCH   4   6
HETATM    6  C   UNL     1      -9.682   5.766  70.675  1.00  0.00    -0.224 C  
BRANCH   6   7
HETATM    7  C   UNL     1      -9.971   4.796  69.535  1.00  0.00    -0.287 C  
BRANCH   7   8
HETATM    8  C   UNL     1      -9.152   5.119  68.291  1.00  0.00    -0.128 C  
BRANCH   8   9
HETATM    9  C   UNL     1     -10.064   5.656  67.189  1.00  0.00    -0.215 C  
BRANCH   9  10
HETATM   10  C   UNL     1      -9.664   7.066  66.777  1.00  0.00    -0.241 C  
BRANCH  10  11
HETATM   11  C   UNL     1     -10.573   8.109  67.427  1.00  0.00    -0.325 C  
BRANCH  11  12
HETATM   12  C   UNL     1      -9.851   9.448  67.530  1.00  0.00    -0.220 C  
BRANCH  12  13
HETATM   13  C   UNL     1     -10.657  10.587  66.899  1.00  0.00    -0.303 C  
HETATM   14  C   UNL     1      -9.921  11.235  65.707  1.00  0.00    -0.281 C  
HETATM   15  C   UNL     1     -10.673  12.475  65.224  1.00  0.00    -0.318 A  
HETATM   16  C   UNL     1      -9.655  10.221  64.581  1.00  0.00    -0.374 C  
HETATM   17  C   UNL     1     -11.687  12.336  64.253  1.00  0.00    -0.456 A  
HETATM   18  C   UNL     1     -12.372  13.442  63.746  1.00  0.00    -0.418 A  
HETATM   19  C   UNL     1     -12.076  14.716  64.210  1.00  0.00    -0.437 A  
HETATM   20  C   UNL     1     -11.109  14.880  65.198  1.00  0.00    -0.399 A  
HETATM   21  C   UNL     1     -10.415  13.774  65.709  1.00  0.00    -0.299 A  
HETATM   22  I   UNL     1      -9.013  14.204  67.224  1.00  0.00    -0.241 I  
ENDBRANCH  12  13
ENDBRANCH  11  12
ENDBRANCH  10  11
ENDBRANCH   9  10
ENDBRANCH   8   9
ENDBRANCH   7   8
ENDBRANCH   6   7
ENDBRANCH   4   6
ENDBRANCH   3   4
ENDBRANCH   2   3
TORSDOF 10
ENDMDL
MODEL      115
REMARK 921   NORMALIZED FREE ENERGY PREDICTED BY IDOCK:   -4.15 KCAL/MOL
REMARK 922        TOTAL FREE ENERGY PREDICTED BY IDOCK:   -7.98 KCAL/MOL
REMARK 923 INTER-LIGAND FREE ENERGY PREDICTED BY IDOCK:   -6.56 KCAL/MOL
REMARK 924 INTRA-LIGAND FREE ENERGY PREDICTED BY IDOCK:   -1.42 KCAL/MOL
REMARK 927      BINDING AFFINITY PREDICTED BY RF-SCORE:    0.00 PKD
ROOT
HETATM    1  C   UNL     1      -8.108  14.373  67.732  1.00  0.00    -0.174 C  
HETATM    2  C   UNL     1      -8.474  15.843  67.821  1.00  0.00    -0.158 C  
ENDROOT
BRANCH   2   3
HETATM    3  O   UNL     1      -9.244  16.030  69.015  1.00  0.00    -0.218 OA 
BRANCH   3   4
HETATM    4  C   UNL     1     -10.297  16.885  68.881  1.00  0.00    -0.333 C  
HETATM    5  O   UNL     1     -10.216  18.105  68.856  1.00  0.00    -0.379 OA 
BRANCH   4   6
HETATM    6  C   UNL     1     -11.559  16.089  68.673  1.00  0.00    -0.343 C  
BRANCH   6   7
HETATM    7  C   UNL     1     -11.443  14.721  69.335  1.00  0.00    -0.330 C  
BRANCH   7   8
HETATM    8  C   UNL     1     -11.758  13.589  68.365  1.00  0.00    -0.393 C  
BRANCH   8   9
HETATM    9  C   UNL     1     -12.020  14.153  66.970  1.00  0.00    -0.471 C  
BRANCH   9  10
HETATM   10  C   UNL     1     -11.918  13.069  65.905  1.00  0.00    -0.491 C  
BRANCH  10  11
HETATM   11  C   UNL     1     -10.534  12.419  65.911  1.00  0.00    -0.284 C  
BRANCH  11  12
HETATM   12  C   UNL     1     -10.659  10.912  66.107  1.00  0.00    -0.270 C  
BRANCH  12  13
HETATM   13  C   UNL     1     -10.000  10.444  67.407  1.00  0.00    -0.226 C  
HETATM   14  C   UNL     1     -10.647   9.157  67.961  1.00  0.00    -0.253 C  
HETATM   15  C   UNL     1     -10.085   8.826  69.343  1.00  0.00    -0.203 A  
HETATM   16  C   UNL     1     -10.525   7.985  66.971  1.00  0.00    -0.410 C  
HETATM   17  C   UNL     1      -8.920   8.037  69.447  1.00  0.00    -0.148 A  
HETATM   18  C   UNL     1      -8.393   7.669  70.687  1.00  0.00    -0.125 A  
HETATM   19  C   UNL     1      -9.003   8.098  71.857  1.00  0.00    -0.225 A  
HETATM   20  C   UNL     1     -10.129   8.913  71.786  1.00  0.00    -0.407 A  
HETATM   21  C   UNL     1     -10.667   9.283  70.544  1.00  0.00    -0.257 A  
HETATM   22  I   UNL     1     -12.351  10.549  70.625  1.00  0.00    -0.462 I  
ENDBRANCH  12  13
ENDBRANCH  11  12
ENDBRANCH  10  11
ENDBRANCH   9  10
ENDBRANCH   8   9
ENDBRANCH   7   8
ENDBRANCH   6   7
ENDBRANCH   4   6
ENDBRANCH   3   4
ENDBRANCH   2   3
TORSDOF 10
ENDMDL
MODEL      116
REMARK 921   NORMALIZED FREE ENERGY PREDICTED BY IDOCK:   -4.15 KCAL/MOL
REMARK 922        TOTAL FREE ENERGY PREDICTED BY IDOCK:   -7.97 KCAL/MOL
REMARK 923 INTER-LIGAND FREE ENERGY PREDICTED BY IDOCK:   -7.11 KCAL/MOL
REMARK 924 INTRA-LIGAND FREE ENERGY PREDICTED BY IDOCK:   -0.87 KCAL/MOL
REMARK 927      BINDING AFFINITY PREDICTED BY RF-SCORE:    0.00 PKD
ROOT
HETATM    1  C   UNL     1     -11.833  15.956  70.901  1.00  0.00    -0.453 C  
HETATM    2  C   UNL     1     -12.945  14.923  70.935  1.00  0.00    -0.380 C  
ENDROOT
BRANCH   2   3
HETATM    3  O   UNL     1     -12.355  13.657  71.254  1.00  0.00    -0.345 OA 
BRANCH   3   4
HETATM    4  C   UNL     1     -13.237  12.720  71.705  1.00  0.00    -0.374 C  
HETATM    5  O   UNL     1     -14.194  12.945  72.432  1.00  0.00    -0.442 OA 
BRANCH   4   6
HETATM    6  C   UNL     1     -12.902  11.387  71.090  1.00  0.00    -0.440 C  
BRANCH   6   7
HETATM    7  C   UNL     1     -11.559  11.452  70.371  1.00  0.00    -0.267 C  
BRANCH   7   8
HETATM    8  C   UNL     1     -11.669  11.012  68.916  1.00  0.00    -0.400 C  
BRANCH   8   9
HETATM    9  C   UNL     1     -11.407  12.197  67.989  1.00  0.00    -0.353 C  
BRANCH   9  10
HETATM   10  C   UNL     1     -10.181  11.958  67.118  1.00  0.00    -0.230 C  
BRANCH  10  11
HETATM   11  C   UNL     1      -9.923  13.146  66.192  1.00  0.00    -0.291 C  
BRANCH  11  12
HETATM   12  C   UNL     1     -10.046  14.455  66.966  1.00  0.00    -0.256 C  
BRANCH  12  13
HETATM   13  C   UNL     1      -9.297  15.601  66.281  1.00  0.00    -0.358 C  
HETATM   14  C   UNL     1      -8.460  16.432  67.277  1.00  0.00    -0.196 C  
HETATM   15  C   UNL     1      -7.876  17.665  66.589  1.00  0.00    -0.283 A  
HETATM   16  C   UNL     1      -7.390  15.576  67.977  1.00  0.00    -0.139 C  
HETATM   17  C   UNL     1      -6.627  17.570  65.940  1.00  0.00    -0.170 A  
HETATM   18  C   UNL     1      -6.029  18.678  65.336  1.00  0.00    -0.280 A  
HETATM   19  C   UNL     1      -6.674  19.907  65.345  1.00  0.00    -0.327 A  
HETATM   20  C   UNL     1      -7.927  20.022  65.940  1.00  0.00    -0.253 A  
HETATM   21  C   UNL     1      -8.531  18.914  66.553  1.00  0.00    -0.304 A  
HETATM   22  I   UNL     1     -10.443  19.260  67.371  1.00  0.00    -0.565 I  
ENDBRANCH  12  13
ENDBRANCH  11  12
ENDBRANCH  10  11
ENDBRANCH   9  10
ENDBRANCH   8   9
ENDBRANCH   7   8
ENDBRANCH   6   7
ENDBRANCH   4   6
ENDBRANCH   3   4
ENDBRANCH   2   3
TORSDOF 10
ENDMDL
MODEL      117
REMARK 921   NORMALIZED FREE ENERGY PREDICTED BY IDOCK:   -4.14 KCAL/MOL
REMARK 922        TOTAL FREE ENERGY PREDICTED BY IDOCK:   -7.95 KCAL/MOL
REMARK 923 INTER-LIGAND FREE ENERGY PREDICTED BY IDOCK:   -6.99 KCAL/MOL
REMARK 924 INTRA-LIGAND FREE ENERGY PREDICTED BY IDOCK:   -0.96 KCAL/MOL
REMARK 927      BINDING AFFINITY PREDICTED BY RF-SCORE:    0.00 PKD
ROOT
HETATM    1  C   UNL     1     -13.458  15.757  73.125  1.00  0.00    -0.652 C  
HETATM    2  C   UNL     1     -13.180  14.390  72.528  1.00  0.00    -0.469 C  
ENDROOT
BRANCH   2   3
HETATM    3  O   UNL     1     -12.045  14.514  71.662  1.00  0.00    -0.342 OA 
BRANCH   3   4
HETATM    4  C   UNL     1     -12.344  14.905  70.390  1.00  0.00    -0.345 C  
HETATM    5  O   UNL     1     -12.765  16.007  70.072  1.00  0.00    -0.200 OA 
BRANCH   4   6
HETATM    6  C   UNL     1     -11.982  13.798  69.434  1.00  0.00    -0.397 C  
BRANCH   6   7
HETATM    7  C   UNL     1     -12.029  14.299  67.995  1.00  0.00    -0.353 C  
BRANCH   7   8
HETATM    8  C   UNL     1     -10.936  13.672  67.137  1.00  0.00    -0.299 C  
BRANCH   8   9
HETATM    9  C   UNL     1     -11.399  12.315  66.610  1.00  0.00    -0.398 C  
BRANCH   9  10
HETATM   10  C   UNL     1     -10.239  11.334  66.510  1.00  0.00    -0.269 C  
BRANCH  10  11
HETATM   11  C   UNL     1      -9.500  11.217  67.843  1.00  0.00    -0.178 C  
BRANCH  11  12
HETATM   12  C   UNL     1      -8.660   9.944  67.871  1.00  0.00    -0.125 C  
BRANCH  12  13
HETATM   13  C   UNL     1      -9.037   9.031  69.040  1.00  0.00    -0.143 C  
HETATM   14  C   UNL     1     -10.382   8.308  68.809  1.00  0.00    -0.223 C  
HETATM   15  C   UNL     1     -10.807   7.552  70.066  1.00  0.00    -0.260 A  
HETATM   16  C   UNL     1     -10.340   7.412  67.558  1.00  0.00    -0.320 C  
HETATM   17  C   UNL     1     -10.366   6.226  70.260  1.00  0.00    -0.258 A  
HETATM   18  C   UNL     1     -10.763   5.476  71.370  1.00  0.00    -0.290 A  
HETATM   19  C   UNL     1     -11.596   6.040  72.327  1.00  0.00    -0.359 A  
HETATM   20  C   UNL     1     -12.013   7.360  72.184  1.00  0.00    -0.307 A  
HETATM   21  C   UNL     1     -11.621   8.116  71.070  1.00  0.00    -0.279 A  
HETATM   22  I   UNL     1     -12.316  10.107  71.036  1.00  0.00    -0.523 I  
ENDBRANCH  12  13
ENDBRANCH  11  12
ENDBRANCH  10  11
ENDBRANCH   9  10
ENDBRANCH   8   9
ENDBRANCH   7   8
ENDBRANCH   6   7
ENDBRANCH   4   6
ENDBRANCH   3   4
ENDBRANCH   2   3
TORSDOF 10
ENDMDL
MODEL      118
REMARK 921   NORMALIZED FREE ENERGY PREDICTED BY IDOCK:   -4.07 KCAL/MOL
REMARK 922        TOTAL FREE ENERGY PREDICTED BY IDOCK:   -7.85 KCAL/MOL
REMARK 923 INTER-LIGAND FREE ENERGY PREDICTED BY IDOCK:   -6.93 KCAL/MOL
REMARK 924 INTRA-LIGAND FREE ENERGY PREDICTED BY IDOCK:   -0.92 KCAL/MOL
REMARK 927      BINDING AFFINITY PREDICTED BY RF-SCORE:    0.00 PKD
ROOT
HETATM    1  C   UNL     1     -11.128  11.650  63.405  1.00  0.00    -0.422 C  
HETATM    2  C   UNL     1     -12.372  12.517  63.339  1.00  0.00    -0.477 C  
ENDROOT
BRANCH   2   3
HETATM    3  O   UNL     1     -13.025  12.443  64.613  1.00  0.00    -0.793 OA 
BRANCH   3   4
HETATM    4  C   UNL     1     -12.419  13.160  65.602  1.00  0.00    -0.425 C  
HETATM    5  O   UNL     1     -12.014  12.699  66.659  1.00  0.00    -0.470 OA 
BRANCH   4   6
HETATM    6  C   UNL     1     -12.244  14.585  65.145  1.00  0.00    -0.346 C  
BRANCH   6   7
HETATM    7  C   UNL     1     -10.764  14.935  65.044  1.00  0.00    -0.451 C  
BRANCH   7   8
HETATM    8  C   UNL     1     -10.293  15.768  66.232  1.00  0.00    -0.320 C  
BRANCH   8   9
HETATM    9  C   UNL     1      -8.769  15.730  66.326  1.00  0.00    -0.358 C  
BRANCH   9  10
HETATM   10  C   UNL     1      -8.311  15.115  67.641  1.00  0.00    -0.172 C  
BRANCH  10  11
HETATM   11  C   UNL     1      -7.571  13.799  67.406  1.00  0.00    -0.153 C  
BRANCH  11  12
HETATM   12  C   UNL     1      -8.563  12.644  67.306  1.00  0.00    -0.196 C  
BRANCH  12  13
HETATM   13  C   UNL     1      -8.565  11.776  68.566  1.00  0.00    -0.123 C  
HETATM   14  C   UNL     1      -9.309  10.440  68.356  1.00  0.00    -0.150 C  
HETATM   15  C   UNL     1      -9.443   9.687  69.679  1.00  0.00    -0.226 A  
HETATM   16  C   UNL     1      -8.658   9.591  67.250  1.00  0.00    -0.128 C  
HETATM   17  C   UNL     1      -8.415   8.811  70.085  1.00  0.00    -0.139 A  
HETATM   18  C   UNL     1      -8.509   8.065  71.263  1.00  0.00    -0.138 A  
HETATM   19  C   UNL     1      -9.626   8.192  72.078  1.00  0.00    -0.284 A  
HETATM   20  C   UNL     1     -10.638   9.080  71.724  1.00  0.00    -0.426 A  
HETATM   21  C   UNL     1     -10.550   9.829  70.541  1.00  0.00    -0.312 A  
HETATM   22  I   UNL     1     -12.154  11.150  70.183  1.00  0.00    -0.423 I  
ENDBRANCH  12  13
ENDBRANCH  11  12
ENDBRANCH  10  11
ENDBRANCH   9  10
ENDBRANCH   8   9
ENDBRANCH   7   8
ENDBRANCH   6   7
ENDBRANCH   4   6
ENDBRANCH   3   4
ENDBRANCH   2   3
TORSDOF 10
ENDMDL
MODEL      119
REMARK 921   NORMALIZED FREE ENERGY PREDICTED BY IDOCK:   -4.03 KCAL/MOL
REMARK 922        TOTAL FREE ENERGY PREDICTED BY IDOCK:   -7.79 KCAL/MOL
REMARK 923 INTER-LIGAND FREE ENERGY PREDICTED BY IDOCK:   -6.80 KCAL/MOL
REMARK 924 INTRA-LIGAND FREE ENERGY PREDICTED BY IDOCK:   -0.99 KCAL/MOL
REMARK 927      BINDING AFFINITY PREDICTED BY RF-SCORE:    0.00 PKD
ROOT
HETATM    1  C   UNL     1     -13.135  11.721  71.747  1.00  0.00    -0.480 C  
HETATM    2  C   UNL     1     -13.140  10.208  71.630  1.00  0.00    -0.447 C  
ENDROOT
BRANCH   2   3
HETATM    3  O   UNL     1     -11.777   9.764  71.636  1.00  0.00    -0.385 OA 
BRANCH   3   4
HETATM    4  C   UNL     1     -11.622   8.416  71.766  1.00  0.00    -0.308 C  
HETATM    5  O   UNL     1     -12.441   7.576  71.424  1.00  0.00    -0.329 OA 
BRANCH   4   6
HETATM    6  C   UNL     1     -10.246   8.126  72.308  1.00  0.00    -0.348 C  
BRANCH   6   7
HETATM    7  C   UNL     1      -9.507   7.153  71.396  1.00  0.00    -0.162 C  
BRANCH   7   8
HETATM    8  C   UNL     1      -8.065   7.582  71.153  1.00  0.00    -0.100 C  
BRANCH   8   9
HETATM    9  C   UNL     1      -7.756   7.555  69.658  1.00  0.00    -0.100 C  
BRANCH   9  10
HETATM   10  C   UNL     1      -7.144   8.870  69.195  1.00  0.00    -0.063 C  
BRANCH  10  11
HETATM   11  C   UNL     1      -8.082   9.607  68.239  1.00  0.00    -0.105 C  
BRANCH  11  12
HETATM   12  C   UNL     1      -8.464  10.967  68.817  1.00  0.00    -0.150 C  
BRANCH  12  13
HETATM   13  C   UNL     1      -9.170  11.852  67.787  1.00  0.00    -0.184 C  
HETATM   14  C   UNL     1     -10.459  11.201  67.240  1.00  0.00    -0.263 C  
HETATM   15  C   UNL     1     -11.032  12.030  66.092  1.00  0.00    -0.343 A  
HETATM   16  C   UNL     1     -11.484  10.939  68.357  1.00  0.00    -0.374 C  
HETATM   17  C   UNL     1     -11.931  13.080  66.376  1.00  0.00    -0.466 A  
HETATM   18  C   UNL     1     -12.518  13.838  65.360  1.00  0.00    -0.532 A  
HETATM   19  C   UNL     1     -12.206  13.580  64.032  1.00  0.00    -0.458 A  
HETATM   20  C   UNL     1     -11.290  12.578  63.723  1.00  0.00    -0.534 A  
HETATM   21  C   UNL     1     -10.700  11.812  64.739  1.00  0.00    -0.302 A  
HETATM   22  I   UNL     1      -9.310  10.364  64.091  1.00  0.00    -0.367 I  
ENDBRANCH  12  13
ENDBRANCH  11  12
ENDBRANCH  10  11
ENDBRANCH   9  10
ENDBRANCH   8   9
ENDBRANCH   7   8
ENDBRANCH   6   7
ENDBRANCH   4   6
ENDBRANCH   3   4
ENDBRANCH   2   3
TORSDOF 10
ENDMDL
MODEL      120
REMARK 921   NORMALIZED FREE ENERGY PREDICTED BY IDOCK:   -4.02 KCAL/MOL
REMARK 922        TOTAL FREE ENERGY PREDICTED BY IDOCK:   -7.77 KCAL/MOL
REMARK 923 INTER-LIGAND FREE ENERGY PREDICTED BY IDOCK:   -6.62 KCAL/MOL
REMARK 924 INTRA-LIGAND FREE ENERGY PREDICTED BY IDOCK:   -1.15 KCAL/MOL
REMARK 927      BINDING AFFINITY PREDICTED BY RF-SCORE:    0.00 PKD
ROOT
HETATM    1  C   UNL     1     -10.142   9.367  71.078  1.00  0.00    -0.353 C  
HETATM    2  C   UNL     1     -10.894   8.617  72.162  1.00  0.00    -0.354 C  
ENDROOT
BRANCH   2   3
HETATM    3  O   UNL     1     -11.659   7.584  71.530  1.00  0.00    -0.258 OA 
BRANCH   3   4
HETATM    4  C   UNL     1     -11.251   6.317  71.823  1.00  0.00    -0.284 C  
HETATM    5  O   UNL     1     -11.292   5.801  72.930  1.00  0.00    -0.283 OA 
BRANCH   4   6
HETATM    6  C   UNL     1     -10.831   5.626  70.552  1.00  0.00    -0.315 C  
BRANCH   6   7
HETATM    7  C   UNL     1     -11.473   6.295  69.342  1.00  0.00    -0.348 C  
BRANCH   7   8
HETATM    8  C   UNL     1     -10.789   5.896  68.040  1.00  0.00    -0.321 C  
BRANCH   8   9
HETATM    9  C   UNL     1     -10.444   7.143  67.227  1.00  0.00    -0.372 C  
BRANCH   9  10
HETATM   10  C   UNL     1      -8.946   7.238  66.968  1.00  0.00    -0.140 C  
BRANCH  10  11
HETATM   11  C   UNL     1      -8.608   8.480  66.144  1.00  0.00    -0.154 C  
BRANCH  11  12
HETATM   12  C   UNL     1      -9.875   9.274  65.839  1.00  0.00    -0.335 C  
BRANCH  12  13
HETATM   13  C   UNL     1      -9.692  10.771  66.098  1.00  0.00    -0.253 C  
HETATM   14  C   UNL     1     -10.974  11.431  66.650  1.00  0.00    -0.341 C  
HETATM   15  C   UNL     1     -10.807  12.948  66.724  1.00  0.00    -0.288 A  
HETATM   16  C   UNL     1     -11.403  10.811  67.992  1.00  0.00    -0.378 C  
HETATM   17  C   UNL     1     -10.258  13.529  67.887  1.00  0.00    -0.247 A  
HETATM   18  C   UNL     1     -10.126  14.912  68.023  1.00  0.00    -0.221 A  
HETATM   19  C   UNL     1     -10.521  15.753  66.991  1.00  0.00    -0.309 A  
HETATM   20  C   UNL     1     -11.027  15.207  65.815  1.00  0.00    -0.350 A  
HETATM   21  C   UNL     1     -11.166  13.818  65.674  1.00  0.00    -0.302 A  
HETATM   22  I   UNL     1     -11.915  13.166  63.814  1.00  0.00    -0.420 I  
ENDBRANCH  12  13
ENDBRANCH  11  12
ENDBRANCH  10  11
ENDBRANCH   9  10
ENDBRANCH   8   9
ENDBRANCH   7   8
ENDBRANCH   6   7
ENDBRANCH   4   6
ENDBRANCH   3   4
ENDBRANCH   2   3
TORSDOF 10
ENDMDL
MODEL      121
REMARK 921   NORMALIZED FREE ENERGY PREDICTED BY IDOCK:   -4.02 KCAL/MOL
REMARK 922        TOTAL FREE ENERGY PREDICTED BY IDOCK:   -7.77 KCAL/MOL
REMARK 923 INTER-LIGAND FREE ENERGY PREDICTED BY IDOCK:   -6.69 KCAL/MOL
REMARK 924 INTRA-LIGAND FREE ENERGY PREDICTED BY IDOCK:   -1.08 KCAL/MOL
REMARK 927      BINDING AFFINITY PREDICTED BY RF-SCORE:    0.00 PKD
ROOT
HETATM    1  C   UNL     1      -7.011  20.067  65.510  1.00  0.00    -0.337 C  
HETATM    2  C   UNL     1      -8.084  19.300  66.261  1.00  0.00    -0.312 C  
ENDROOT
BRANCH   2   3
HETATM    3  O   UNL     1      -9.355  19.691  65.729  1.00  0.00    -0.386 OA 
BRANCH   3   4
HETATM    4  C   UNL     1     -10.378  18.838  66.022  1.00  0.00    -0.422 C  
HETATM    5  O   UNL     1     -11.029  18.210  65.201  1.00  0.00    -0.637 OA 
BRANCH   4   6
HETATM    6  C   UNL     1     -10.511  18.721  67.518  1.00  0.00    -0.495 C  
BRANCH   6   7
HETATM    7  C   UNL     1     -10.897  17.300  67.911  1.00  0.00    -0.283 C  
BRANCH   7   8
HETATM    8  C   UNL     1      -9.680  16.387  68.012  1.00  0.00    -0.235 C  
BRANCH   8   9
HETATM    9  C   UNL     1     -10.128  14.935  68.167  1.00  0.00    -0.222 C  
BRANCH   9  10
HETATM   10  C   UNL     1     -11.634  14.798  67.993  1.00  0.00    -0.367 C  
BRANCH  10  11
HETATM   11  C   UNL     1     -11.993  13.477  67.312  1.00  0.00    -0.408 C  
BRANCH  11  12
HETATM   12  C   UNL     1     -11.792  12.313  68.277  1.00  0.00    -0.367 C  
BRANCH  12  13
HETATM   13  C   UNL     1     -11.181  11.092  67.587  1.00  0.00    -0.373 C  
HETATM   14  C   UNL     1      -9.718  11.332  67.156  1.00  0.00    -0.201 C  
HETATM   15  C   UNL     1      -9.207  10.162  66.317  1.00  0.00    -0.191 A  
HETATM   16  C   UNL     1      -8.813  11.643  68.361  1.00  0.00    -0.161 C  
HETATM   17  C   UNL     1      -8.617   9.054  66.959  1.00  0.00    -0.120 A  
HETATM   18  C   UNL     1      -8.093   7.980  66.236  1.00  0.00    -0.112 A  
HETATM   19  C   UNL     1      -8.165   7.976  64.849  1.00  0.00    -0.137 A  
HETATM   20  C   UNL     1      -8.779   9.036  64.189  1.00  0.00    -0.126 A  
HETATM   21  C   UNL     1      -9.304  10.119  64.911  1.00  0.00    -0.254 A  
HETATM   22  I   UNL     1     -10.230  11.617  63.751  1.00  0.00    -0.546 I  
ENDBRANCH  12  13
ENDBRANCH  11  12
ENDBRANCH  10  11
ENDBRANCH   9  10
ENDBRANCH   8   9
ENDBRANCH   7   8
ENDBRANCH   6   7
ENDBRANCH   4   6
ENDBRANCH   3   4
ENDBRANCH   2   3
TORSDOF 10
ENDMDL
MODEL      122
REMARK 921   NORMALIZED FREE ENERGY PREDICTED BY IDOCK:   -4.01 KCAL/MOL
REMARK 922        TOTAL FREE ENERGY PREDICTED BY IDOCK:   -7.76 KCAL/MOL
REMARK 923 INTER-LIGAND FREE ENERGY PREDICTED BY IDOCK:   -6.33 KCAL/MOL
REMARK 924 INTRA-LIGAND FREE ENERGY PREDICTED BY IDOCK:   -1.43 KCAL/MOL
REMARK 927      BINDING AFFINITY PREDICTED BY RF-SCORE:    0.00 PKD
ROOT
HETATM    1  C   UNL     1     -12.303  13.584  64.723  1.00  0.00    -0.435 C  
HETATM    2  C   UNL     1     -10.947  14.263  64.751  1.00  0.00    -0.398 C  
ENDROOT
BRANCH   2   3
HETATM    3  O   UNL     1     -10.963  15.230  65.809  1.00  0.00    -0.338 OA 
BRANCH   3   4
HETATM    4  C   UNL     1     -10.785  16.518  65.401  1.00  0.00    -0.259 C  
HETATM    5  O   UNL     1     -11.068  16.953  64.294  1.00  0.00    -1.135 OA 
BRANCH   4   6
HETATM    6  C   UNL     1     -10.274  17.338  66.558  1.00  0.00    -0.325 C  
BRANCH   6   7
HETATM    7  C   UNL     1      -9.023  18.109  66.155  1.00  0.00    -0.113 C  
BRANCH   7   8
HETATM    8  C   UNL     1      -8.146  18.442  67.357  1.00  0.00    -0.243 C  
BRANCH   8   9
HETATM    9  C   UNL     1      -8.461  17.494  68.512  1.00  0.00    -0.280 C  
BRANCH   9  10
HETATM   10  C   UNL     1      -7.398  16.413  68.647  1.00  0.00    -0.186 C  
BRANCH  10  11
HETATM   11  C   UNL     1      -7.919  15.224  69.454  1.00  0.00    -0.223 C  
BRANCH  11  12
HETATM   12  C   UNL     1      -9.254  14.748  68.890  1.00  0.00    -0.177 C  
BRANCH  12  13
HETATM   13  C   UNL     1      -9.082  13.594  67.899  1.00  0.00    -0.198 C  
HETATM   14  C   UNL     1      -9.881  12.341  68.315  1.00  0.00    -0.217 C  
HETATM   15  C   UNL     1      -9.542  11.162  67.404  1.00  0.00    -0.183 A  
HETATM   16  C   UNL     1     -11.392  12.625  68.387  1.00  0.00    -0.329 C  
HETATM   17  C   UNL     1     -10.272  10.976  66.211  1.00  0.00    -0.295 A  
HETATM   18  C   UNL     1     -10.032   9.890  65.366  1.00  0.00    -0.349 A  
HETATM   19  C   UNL     1      -9.040   8.970  65.682  1.00  0.00    -0.278 A  
HETATM   20  C   UNL     1      -8.276   9.151  66.830  1.00  0.00    -0.116 A  
HETATM   21  C   UNL     1      -8.515  10.238  67.684  1.00  0.00    -0.118 A  
HETATM   22  I   UNL     1      -7.238  10.374  69.357  1.00  0.00    -0.135 I  
ENDBRANCH  12  13
ENDBRANCH  11  12
ENDBRANCH  10  11
ENDBRANCH   9  10
ENDBRANCH   8   9
ENDBRANCH   7   8
ENDBRANCH   6   7
ENDBRANCH   4   6
ENDBRANCH   3   4
ENDBRANCH   2   3
TORSDOF 10
ENDMDL
MODEL      123
REMARK 921   NORMALIZED FREE ENERGY PREDICTED BY IDOCK:   -4.01 KCAL/MOL
REMARK 922        TOTAL FREE ENERGY PREDICTED BY IDOCK:   -7.76 KCAL/MOL
REMARK 923 INTER-LIGAND FREE ENERGY PREDICTED BY IDOCK:   -6.91 KCAL/MOL
REMARK 924 INTRA-LIGAND FREE ENERGY PREDICTED BY IDOCK:   -0.85 KCAL/MOL
REMARK 927      BINDING AFFINITY PREDICTED BY RF-SCORE:    0.00 PKD
ROOT
HETATM    1  C   UNL     1      -8.552   7.753  69.119  1.00  0.00    -0.138 C  
HETATM    2  C   UNL     1      -9.409   8.466  68.089  1.00  0.00    -0.133 C  
ENDROOT
BRANCH   2   3
HETATM    3  O   UNL     1     -10.241   9.403  68.784  1.00  0.00    -0.190 OA 
BRANCH   3   4
HETATM    4  C   UNL     1     -10.953  10.237  67.974  1.00  0.00    -0.289 C  
HETATM    5  O   UNL     1     -11.963  10.843  68.300  1.00  0.00    -0.561 OA 
BRANCH   4   6
HETATM    6  C   UNL     1     -10.244  10.366  66.651  1.00  0.00    -0.292 C  
BRANCH   6   7
HETATM    7  C   UNL     1     -10.933  11.407  65.776  1.00  0.00    -0.256 C  
BRANCH   7   8
HETATM    8  C   UNL     1     -10.518  11.286  64.314  1.00  0.00    -0.419 C  
BRANCH   8   9
HETATM    9  C   UNL     1     -11.110  12.439  63.505  1.00  0.00    -0.521 C  
BRANCH   9  10
HETATM   10  C   UNL     1     -12.310  13.054  64.214  1.00  0.00    -0.436 C  
BRANCH  10  11
HETATM   11  C   UNL     1     -12.116  14.555  64.424  1.00  0.00    -0.492 C  
BRANCH  11  12
HETATM   12  C   UNL     1     -11.443  14.819  65.767  1.00  0.00    -0.322 C  
BRANCH  12  13
HETATM   13  C   UNL     1     -10.124  15.580  65.610  1.00  0.00    -0.406 C  
HETATM   14  C   UNL     1      -9.590  16.111  66.957  1.00  0.00    -0.233 C  
HETATM   15  C   UNL     1      -8.376  17.011  66.735  1.00  0.00    -0.267 A  
HETATM   16  C   UNL     1      -9.312  14.969  67.951  1.00  0.00    -0.183 C  
HETATM   17  C   UNL     1      -7.087  16.439  66.687  1.00  0.00    -0.175 A  
HETATM   18  C   UNL     1      -5.942  17.223  66.532  1.00  0.00    -0.244 A  
HETATM   19  C   UNL     1      -6.056  18.600  66.399  1.00  0.00    -0.188 A  
HETATM   20  C   UNL     1      -7.317  19.189  66.400  1.00  0.00    -0.263 A  
HETATM   21  C   UNL     1      -8.470  18.408  66.559  1.00  0.00    -0.270 A  
HETATM   22  I   UNL     1     -10.295  19.462  66.500  1.00  0.00    -0.632 I  
ENDBRANCH  12  13
ENDBRANCH  11  12
ENDBRANCH  10  11
ENDBRANCH   9  10
ENDBRANCH   8   9
ENDBRANCH   7   8
ENDBRANCH   6   7
ENDBRANCH   4   6
ENDBRANCH   3   4
ENDBRANCH   2   3
TORSDOF 10
ENDMDL
MODEL      124
REMARK 921   NORMALIZED FREE ENERGY PREDICTED BY IDOCK:   -4.01 KCAL/MOL
REMARK 922        TOTAL FREE ENERGY PREDICTED BY IDOCK:   -7.76 KCAL/MOL
REMARK 923 INTER-LIGAND FREE ENERGY PREDICTED BY IDOCK:   -6.81 KCAL/MOL
REMARK 924 INTRA-LIGAND FREE ENERGY PREDICTED BY IDOCK:   -0.94 KCAL/MOL
REMARK 927      BINDING AFFINITY PREDICTED BY RF-SCORE:    0.00 PKD
ROOT
HETATM    1  C   UNL     1     -12.329  16.086  74.258  1.00  0.00    -0.717 C  
HETATM    2  C   UNL     1     -11.935  15.685  72.848  1.00  0.00    -0.479 C  
ENDROOT
BRANCH   2   3
HETATM    3  O   UNL     1     -13.133  15.348  72.138  1.00  0.00    -0.348 OA 
BRANCH   3   4
HETATM    4  C   UNL     1     -13.355  14.010  72.005  1.00  0.00    -0.427 C  
HETATM    5  O   UNL     1     -13.932  13.306  72.820  1.00  0.00    -0.701 OA 
BRANCH   4   6
HETATM    6  C   UNL     1     -12.862  13.558  70.654  1.00  0.00    -0.189 C  
BRANCH   6   7
HETATM    7  C   UNL     1     -12.082  12.254  70.779  1.00  0.00    -0.259 C  
BRANCH   7   8
HETATM    8  C   UNL     1     -12.948  11.040  70.467  1.00  0.00    -0.162 C  
BRANCH   8   9
HETATM    9  C   UNL     1     -13.072  10.154  71.706  1.00  0.00    -0.568 C  
BRANCH   9  10
HETATM   10  C   UNL     1     -12.057   9.019  71.678  1.00  0.00    -0.422 C  
BRANCH  10  11
HETATM   11  C   UNL     1     -12.739   7.676  71.418  1.00  0.00    -0.357 C  
BRANCH  11  12
HETATM   12  C   UNL     1     -11.699   6.563  71.332  1.00  0.00    -0.378 C  
BRANCH  12  13
HETATM   13  C   UNL     1     -11.205   6.346  69.899  1.00  0.00    -0.485 C  
HETATM   14  C   UNL     1      -9.770   6.874  69.689  1.00  0.00    -0.157 C  
HETATM   15  C   UNL     1      -9.384   6.802  68.212  1.00  0.00    -0.124 A  
HETATM   16  C   UNL     1      -8.759   6.162  70.605  1.00  0.00    -0.139 C  
HETATM   17  C   UNL     1      -8.801   5.622  67.704  1.00  0.00    -0.105 A  
HETATM   18  C   UNL     1      -8.389   5.522  66.374  1.00  0.00    -0.111 A  
HETATM   19  C   UNL     1      -8.568   6.593  65.508  1.00  0.00    -0.101 A  
HETATM   20  C   UNL     1      -9.178   7.755  65.970  1.00  0.00    -0.139 A  
HETATM   21  C   UNL     1      -9.590   7.863  67.306  1.00  0.00    -0.159 A  
HETATM   22  I   UNL     1     -10.528   9.680  67.821  1.00  0.00    -0.286 I  
ENDBRANCH  12  13
ENDBRANCH  11  12
ENDBRANCH  10  11
ENDBRANCH   9  10
ENDBRANCH   8   9
ENDBRANCH   7   8
ENDBRANCH   6   7
ENDBRANCH   4   6
ENDBRANCH   3   4
ENDBRANCH   2   3
TORSDOF 10
ENDMDL
MODEL      125
REMARK 921   NORMALIZED FREE ENERGY PREDICTED BY IDOCK:   -4.00 KCAL/MOL
REMARK 922        TOTAL FREE ENERGY PREDICTED BY IDOCK:   -7.73 KCAL/MOL
REMARK 923 INTER-LIGAND FREE ENERGY PREDICTED BY IDOCK:   -6.76 KCAL/MOL
REMARK 924 INTRA-LIGAND FREE ENERGY PREDICTED BY IDOCK:   -0.97 KCAL/MOL
REMARK 927      BINDING AFFINITY PREDICTED BY RF-SCORE:    0.00 PKD
ROOT
HETATM    1  C   UNL     1     -10.132   7.693  66.615  1.00  0.00    -0.278 C  
HETATM    2  C   UNL     1     -10.236   8.933  67.483  1.00  0.00    -0.248 C  
ENDROOT
BRANCH   2   3
HETATM    3  O   UNL     1     -10.268  10.073  66.615  1.00  0.00    -0.217 OA 
BRANCH   3   4
HETATM    4  C   UNL     1      -9.043  10.502  66.198  1.00  0.00    -0.162 C  
HETATM    5  O   UNL     1      -8.063  10.640  66.915  1.00  0.00    -0.118 OA 
BRANCH   4   6
HETATM    6  C   UNL     1      -9.065  10.685  64.702  1.00  0.00    -0.238 C  
BRANCH   6   7
HETATM    7  C   UNL     1     -10.478  10.996  64.223  1.00  0.00    -0.427 C  
BRANCH   7   8
HETATM    8  C   UNL     1     -10.509  12.192  63.278  1.00  0.00    -0.360 C  
BRANCH   8   9
HETATM    9  C   UNL     1     -11.563  13.197  63.741  1.00  0.00    -0.481 C  
BRANCH   9  10
HETATM   10  C   UNL     1     -12.518  12.573  64.749  1.00  0.00    -0.532 C  
BRANCH  10  11
HETATM   11  C   UNL     1     -12.206  13.045  66.169  1.00  0.00    -0.428 C  
BRANCH  11  12
HETATM   12  C   UNL     1     -12.096  14.566  66.209  1.00  0.00    -0.311 C  
BRANCH  12  13
HETATM   13  C   UNL     1     -10.715  15.031  66.675  1.00  0.00    -0.312 C  
HETATM   14  C   UNL     1     -10.783  15.858  67.977  1.00  0.00    -0.301 C  
HETATM   15  C   UNL     1      -9.415  16.450  68.308  1.00  0.00    -0.217 A  
HETATM   16  C   UNL     1     -11.379  15.043  69.139  1.00  0.00    -0.311 C  
HETATM   17  C   UNL     1      -8.502  15.700  69.079  1.00  0.00    -0.231 A  
HETATM   18  C   UNL     1      -7.257  16.215  69.447  1.00  0.00    -0.204 A  
HETATM   19  C   UNL     1      -6.882  17.487  69.037  1.00  0.00    -0.242 A  
HETATM   20  C   UNL     1      -7.744  18.234  68.240  1.00  0.00    -0.303 A  
HETATM   21  C   UNL     1      -8.997  17.724  67.870  1.00  0.00    -0.255 A  
HETATM   22  I   UNL     1     -10.156  18.978  66.632  1.00  0.00    -0.583 I  
ENDBRANCH  12  13
ENDBRANCH  11  12
ENDBRANCH  10  11
ENDBRANCH   9  10
ENDBRANCH   8   9
ENDBRANCH   7   8
ENDBRANCH   6   7
ENDBRANCH   4   6
ENDBRANCH   3   4
ENDBRANCH   2   3
TORSDOF 10
ENDMDL
MODEL      126
REMARK 921   NORMALIZED FREE ENERGY PREDICTED BY IDOCK:   -3.98 KCAL/MOL
REMARK 922        TOTAL FREE ENERGY PREDICTED BY IDOCK:   -7.71 KCAL/MOL
REMARK 923 INTER-LIGAND FREE ENERGY PREDICTED BY IDOCK:   -5.88 KCAL/MOL
REMARK 924 INTRA-LIGAND FREE ENERGY PREDICTED BY IDOCK:   -1.83 KCAL/MOL
REMARK 927      BINDING AFFINITY PREDICTED BY RF-SCORE:    0.00 PKD
ROOT
HETATM    1  C   UNL     1      -9.098  10.039  63.177  1.00  0.00    -0.296 C  
HETATM    2  C   UNL     1     -10.156  11.117  63.032  1.00  0.00    -0.268 C  
ENDROOT
BRANCH   2   3
HETATM    3  O   UNL     1     -10.916  11.150  64.246  1.00  0.00    -0.341 OA 
BRANCH   3   4
HETATM    4  C   UNL     1     -11.991  11.987  64.218  1.00  0.00    -0.335 C  
HETATM    5  O   UNL     1     -12.748  12.132  63.269  1.00  0.00    -0.698 OA 
BRANCH   4   6
HETATM    6  C   UNL     1     -12.153  12.632  65.571  1.00  0.00    -0.515 C  
BRANCH   6   7
HETATM    7  C   UNL     1     -12.304  14.142  65.429  1.00  0.00    -0.475 C  
BRANCH   7   8
HETATM    8  C   UNL     1     -10.998  14.809  65.012  1.00  0.00    -0.426 C  
BRANCH   8   9
HETATM    9  C   UNL     1     -11.129  16.327  65.118  1.00  0.00    -0.219 C  
BRANCH   9  10
HETATM   10  C   UNL     1      -9.933  16.937  65.837  1.00  0.00    -0.274 C  
BRANCH  10  11
HETATM   11  C   UNL     1     -10.334  17.484  67.206  1.00  0.00    -0.337 C  
BRANCH  11  12
HETATM   12  C   UNL     1      -9.708  16.643  68.315  1.00  0.00    -0.244 C  
BRANCH  12  13
HETATM   13  C   UNL     1      -9.006  15.399  67.767  1.00  0.00    -0.173 C  
HETATM   14  C   UNL     1      -9.198  14.168  68.679  1.00  0.00    -0.146 C  
HETATM   15  C   UNL     1      -8.339  13.002  68.194  1.00  0.00    -0.164 A  
HETATM   16  C   UNL     1     -10.684  13.794  68.827  1.00  0.00    -0.267 C  
HETATM   17  C   UNL     1      -8.858  12.110  67.233  1.00  0.00    -0.186 A  
HETATM   18  C   UNL     1      -8.131  11.003  66.791  1.00  0.00    -0.151 A  
HETATM   19  C   UNL     1      -6.854  10.769  67.283  1.00  0.00    -0.081 A  
HETATM   20  C   UNL     1      -6.298  11.655  68.201  1.00  0.00    -0.050 A  
HETATM   21  C   UNL     1      -7.025  12.767  68.652  1.00  0.00    -0.101 A  
HETATM   22  I   UNL     1      -6.014  14.020  70.013  1.00  0.00    -0.135 I  
ENDBRANCH  12  13
ENDBRANCH  11  12
ENDBRANCH  10  11
ENDBRANCH   9  10
ENDBRANCH   8   9
ENDBRANCH   7   8
ENDBRANCH   6   7
ENDBRANCH   4   6
ENDBRANCH   3   4
ENDBRANCH   2   3
TORSDOF 10
ENDMDL
MODEL      127
REMARK 921   NORMALIZED FREE ENERGY PREDICTED BY IDOCK:   -3.96 KCAL/MOL
REMARK 922        TOTAL FREE ENERGY PREDICTED BY IDOCK:   -7.67 KCAL/MOL
REMARK 923 INTER-LIGAND FREE ENERGY PREDICTED BY IDOCK:   -6.83 KCAL/MOL
REMARK 924 INTRA-LIGAND FREE ENERGY PREDICTED BY IDOCK:   -0.84 KCAL/MOL
REMARK 927      BINDING AFFINITY PREDICTED BY RF-SCORE:    0.00 PKD
ROOT
HETATM    1  C   UNL     1      -7.211  18.136  68.817  1.00  0.00    -0.287 C  
HETATM    2  C   UNL     1      -8.100  19.115  68.072  1.00  0.00    -0.298 C  
ENDROOT
BRANCH   2   3
HETATM    3  O   UNL     1      -8.363  18.567  66.775  1.00  0.00    -0.253 OA 
BRANCH   3   4
HETATM    4  C   UNL     1      -9.687  18.444  66.470  1.00  0.00    -0.348 C  
HETATM    5  O   UNL     1     -10.354  19.277  65.876  1.00  0.00    -0.454 OA 
BRANCH   4   6
HETATM    6  C   UNL     1     -10.168  17.081  66.897  1.00  0.00    -0.305 C  
BRANCH   6   7
HETATM    7  C   UNL     1      -9.576  16.000  65.999  1.00  0.00    -0.385 C  
BRANCH   7   8
HETATM    8  C   UNL     1      -9.654  14.620  66.641  1.00  0.00    -0.294 C  
BRANCH   8   9
HETATM    9  C   UNL     1     -10.857  13.855  66.093  1.00  0.00    -0.290 C  
BRANCH   9  10
HETATM   10  C   UNL     1     -10.504  13.110  64.813  1.00  0.00    -0.390 C  
BRANCH  10  11
HETATM   11  C   UNL     1     -10.977  11.658  64.872  1.00  0.00    -0.345 C  
BRANCH  11  12
HETATM   12  C   UNL     1     -10.026  10.826  65.727  1.00  0.00    -0.306 C  
BRANCH  12  13
HETATM   13  C   UNL     1     -10.685  10.350  67.024  1.00  0.00    -0.298 C  
HETATM   14  C   UNL     1      -9.661   9.766  68.021  1.00  0.00    -0.165 C  
HETATM   15  C   UNL     1     -10.376   9.142  69.219  1.00  0.00    -0.223 A  
HETATM   16  C   UNL     1      -8.607  10.809  68.433  1.00  0.00    -0.141 C  
HETATM   17  C   UNL     1     -10.692   9.946  70.334  1.00  0.00    -0.379 A  
HETATM   18  C   UNL     1     -11.303   9.415  71.472  1.00  0.00    -0.464 A  
HETATM   19  C   UNL     1     -11.635   8.067  71.517  1.00  0.00    -0.313 A  
HETATM   20  C   UNL     1     -11.374   7.258  70.415  1.00  0.00    -0.299 A  
HETATM   21  C   UNL     1     -10.757   7.785  69.271  1.00  0.00    -0.147 A  
HETATM   22  I   UNL     1     -10.472   6.424  67.686  1.00  0.00    -0.443 I  
ENDBRANCH  12  13
ENDBRANCH  11  12
ENDBRANCH  10  11
ENDBRANCH   9  10
ENDBRANCH   8   9
ENDBRANCH   7   8
ENDBRANCH   6   7
ENDBRANCH   4   6
ENDBRANCH   3   4
ENDBRANCH   2   3
TORSDOF 10
ENDMDL
MODEL      128
REMARK 921   NORMALIZED FREE ENERGY PREDICTED BY IDOCK:   -3.95 KCAL/MOL
REMARK 922        TOTAL FREE ENERGY PREDICTED BY IDOCK:   -7.65 KCAL/MOL
REMARK 923 INTER-LIGAND FREE ENERGY PREDICTED BY IDOCK:   -6.65 KCAL/MOL
REMARK 924 INTRA-LIGAND FREE ENERGY PREDICTED BY IDOCK:   -1.01 KCAL/MOL
REMARK 927      BINDING AFFINITY PREDICTED BY RF-SCORE:    0.00 PKD
ROOT
HETATM    1  C   UNL     1      -8.502  14.413  67.300  1.00  0.00    -0.229 C  
HETATM    2  C   UNL     1      -9.985  14.588  67.571  1.00  0.00    -0.224 C  
ENDROOT
BRANCH   2   3
HETATM    3  O   UNL     1     -10.224  14.239  68.940  1.00  0.00    -0.235 OA 
BRANCH   3   4
HETATM    4  C   UNL     1     -11.478  14.533  69.388  1.00  0.00    -0.285 C  
HETATM    5  O   UNL     1     -12.032  15.617  69.272  1.00  0.00    -0.365 OA 
BRANCH   4   6
HETATM    6  C   UNL     1     -12.104  13.289  69.962  1.00  0.00    -0.385 C  
BRANCH   6   7
HETATM    7  C   UNL     1     -12.771  13.594  71.298  1.00  0.00    -0.443 C  
BRANCH   7   8
HETATM    8  C   UNL     1     -13.196  12.324  72.027  1.00  0.00    -0.508 C  
BRANCH   8   9
HETATM    9  C   UNL     1     -12.684  11.095  71.277  1.00  0.00    -0.531 C  
BRANCH   9  10
HETATM   10  C   UNL     1     -13.274   9.813  71.848  1.00  0.00    -0.545 C  
BRANCH  10  11
HETATM   11  C   UNL     1     -12.175   8.874  72.346  1.00  0.00    -0.365 C  
BRANCH  11  12
HETATM   12  C   UNL     1     -12.556   7.423  72.073  1.00  0.00    -0.262 C  
BRANCH  12  13
HETATM   13  C   UNL     1     -12.170   6.982  70.659  1.00  0.00    -0.289 C  
HETATM   14  C   UNL     1     -10.641   6.883  70.472  1.00  0.00    -0.247 C  
HETATM   15  C   UNL     1     -10.296   6.618  69.008  1.00  0.00    -0.216 A  
HETATM   16  C   UNL     1     -10.015   5.854  71.430  1.00  0.00    -0.228 C  
HETATM   17  C   UNL     1     -10.229   5.288  68.541  1.00  0.00    -0.214 A  
HETATM   18  C   UNL     1      -9.873   4.991  67.224  1.00  0.00    -0.205 A  
HETATM   19  C   UNL     1      -9.595   6.016  66.331  1.00  0.00    -0.168 A  
HETATM   20  C   UNL     1      -9.693   7.339  66.751  1.00  0.00    -0.260 A  
HETATM   21  C   UNL     1     -10.046   7.644  68.074  1.00  0.00    -0.187 A  
HETATM   22  I   UNL     1     -10.183   9.700  68.524  1.00  0.00    -0.255 I  
ENDBRANCH  12  13
ENDBRANCH  11  12
ENDBRANCH  10  11
ENDBRANCH   9  10
ENDBRANCH   8   9
ENDBRANCH   7   8
ENDBRANCH   6   7
ENDBRANCH   4   6
ENDBRANCH   3   4
ENDBRANCH   2   3
TORSDOF 10
ENDMDL
MODEL      129
REMARK 921   NORMALIZED FREE ENERGY PREDICTED BY IDOCK:   -3.94 KCAL/MOL
REMARK 922        TOTAL FREE ENERGY PREDICTED BY IDOCK:   -7.65 KCAL/MOL
REMARK 923 INTER-LIGAND FREE ENERGY PREDICTED BY IDOCK:   -6.91 KCAL/MOL
REMARK 924 INTRA-LIGAND FREE ENERGY PREDICTED BY IDOCK:   -0.74 KCAL/MOL
REMARK 927      BINDING AFFINITY PREDICTED BY RF-SCORE:    0.00 PKD
ROOT
HETATM    1  C   UNL     1     -12.605  11.905  63.408  1.00  0.00    -0.555 C  
HETATM    2  C   UNL     1     -11.166  12.315  63.663  1.00  0.00    -0.466 C  
ENDROOT
BRANCH   2   3
HETATM    3  O   UNL     1     -10.919  12.193  65.069  1.00  0.00    -0.292 OA 
BRANCH   3   4
HETATM    4  C   UNL     1     -11.064  13.353  65.771  1.00  0.00    -0.282 C  
HETATM    5  O   UNL     1     -10.531  14.417  65.494  1.00  0.00    -0.310 OA 
BRANCH   4   6
HETATM    6  C   UNL     1     -12.058  13.137  66.883  1.00  0.00    -0.377 C  
BRANCH   6   7
HETATM    7  C   UNL     1     -11.682  13.968  68.104  1.00  0.00    -0.387 C  
BRANCH   7   8
HETATM    8  C   UNL     1     -11.671  13.135  69.381  1.00  0.00    -0.386 C  
BRANCH   8   9
HETATM    9  C   UNL     1     -11.784  11.651  69.037  1.00  0.00    -0.388 C  
BRANCH   9  10
HETATM   10  C   UNL     1     -10.731  10.831  69.771  1.00  0.00    -0.241 C  
BRANCH  10  11
HETATM   11  C   UNL     1     -11.236   9.417  70.059  1.00  0.00    -0.217 C  
BRANCH  11  12
HETATM   12  C   UNL     1     -11.689   9.303  71.511  1.00  0.00    -0.450 C  
BRANCH  12  13
HETATM   13  C   UNL     1     -11.659   7.857  72.011  1.00  0.00    -0.357 C  
HETATM   14  C   UNL     1     -10.220   7.345  72.236  1.00  0.00    -0.237 C  
HETATM   15  C   UNL     1     -10.228   5.851  72.560  1.00  0.00    -0.214 A  
HETATM   16  C   UNL     1      -9.475   8.181  73.291  1.00  0.00    -0.290 C  
HETATM   17  C   UNL     1     -10.363   5.433  73.900  1.00  0.00    -0.287 A  
HETATM   18  C   UNL     1     -10.330   4.083  74.254  1.00  0.00    -0.268 A  
HETATM   19  C   UNL     1     -10.182   3.111  73.274  1.00  0.00    -0.219 A  
HETATM   20  C   UNL     1     -10.088   3.491  71.938  1.00  0.00    -0.168 A  
HETATM   21  C   UNL     1     -10.117   4.846  71.577  1.00  0.00    -0.197 A  
HETATM   22  I   UNL     1     -10.000   5.235  69.508  1.00  0.00    -0.317 I  
ENDBRANCH  12  13
ENDBRANCH  11  12
ENDBRANCH  10  11
ENDBRANCH   9  10
ENDBRANCH   8   9
ENDBRANCH   7   8
ENDBRANCH   6   7
ENDBRANCH   4   6
ENDBRANCH   3   4
ENDBRANCH   2   3
TORSDOF 10
ENDMDL
MODEL      130
REMARK 921   NORMALIZED FREE ENERGY PREDICTED BY IDOCK:   -3.94 KCAL/MOL
REMARK 922        TOTAL FREE ENERGY PREDICTED BY IDOCK:   -7.65 KCAL/MOL
REMARK 923 INTER-LIGAND FREE ENERGY PREDICTED BY IDOCK:   -6.50 KCAL/MOL
REMARK 924 INTRA-LIGAND FREE ENERGY PREDICTED BY IDOCK:   -1.15 KCAL/MOL
REMARK 927      BINDING AFFINITY PREDICTED BY RF-SCORE:    0.00 PKD
ROOT
HETATM    1  C   UNL     1      -8.402   5.959  65.303  1.00  0.00    -0.146 C  
HETATM    2  C   UNL     1      -8.160   7.300  65.971  1.00  0.00    -0.121 C  
ENDROOT
BRANCH   2   3
HETATM    3  O   UNL     1      -8.748   8.313  65.145  1.00  0.00    -0.149 OA 
BRANCH   3   4
HETATM    4  C   UNL     1      -7.850   9.155  64.558  1.00  0.00    -0.120 C  
HETATM    5  O   UNL     1      -6.653   8.938  64.441  1.00  0.00    -0.071 OA 
BRANCH   4   6
HETATM    6  C   UNL     1      -8.583  10.345  63.995  1.00  0.00    -0.179 C  
BRANCH   6   7
HETATM    7  C   UNL     1     -10.010  10.396  64.530  1.00  0.00    -0.401 C  
BRANCH   7   8
HETATM    8  C   UNL     1     -10.767  11.616  64.019  1.00  0.00    -0.442 C  
BRANCH   8   9
HETATM    9  C   UNL     1     -11.552  12.260  65.160  1.00  0.00    -0.402 C  
BRANCH   9  10
HETATM   10  C   UNL     1     -11.032  11.804  66.517  1.00  0.00    -0.342 C  
BRANCH  10  11
HETATM   11  C   UNL     1     -11.070  12.944  67.534  1.00  0.00    -0.302 C  
BRANCH  11  12
HETATM   12  C   UNL     1     -12.088  13.998  67.109  1.00  0.00    -0.436 C  
BRANCH  12  13
HETATM   13  C   UNL     1     -11.636  15.414  67.473  1.00  0.00    -0.176 C  
HETATM   14  C   UNL     1     -10.484  15.911  66.574  1.00  0.00    -0.305 C  
HETATM   15  C   UNL     1      -9.946  17.247  67.082  1.00  0.00    -0.282 A  
HETATM   16  C   UNL     1     -10.895  15.958  65.092  1.00  0.00    -0.438 C  
HETATM   17  C   UNL     1     -10.535  18.448  66.633  1.00  0.00    -0.415 A  
HETATM   18  C   UNL     1     -10.051  19.696  67.032  1.00  0.00    -0.531 A  
HETATM   19  C   UNL     1      -8.977  19.777  67.908  1.00  0.00    -0.390 A  
HETATM   20  C   UNL     1      -8.402  18.610  68.401  1.00  0.00    -0.362 A  
HETATM   21  C   UNL     1      -8.881  17.353  68.001  1.00  0.00    -0.252 A  
HETATM   22  I   UNL     1      -7.915  15.695  68.875  1.00  0.00    -0.239 I  
ENDBRANCH  12  13
ENDBRANCH  11  12
ENDBRANCH  10  11
ENDBRANCH   9  10
ENDBRANCH   8   9
ENDBRANCH   7   8
ENDBRANCH   6   7
ENDBRANCH   4   6
ENDBRANCH   3   4
ENDBRANCH   2   3
TORSDOF 10
ENDMDL
MODEL      131
REMARK 921   NORMALIZED FREE ENERGY PREDICTED BY IDOCK:   -3.94 KCAL/MOL
REMARK 922        TOTAL FREE ENERGY PREDICTED BY IDOCK:   -7.64 KCAL/MOL
REMARK 923 INTER-LIGAND FREE ENERGY PREDICTED BY IDOCK:   -6.43 KCAL/MOL
REMARK 924 INTRA-LIGAND FREE ENERGY PREDICTED BY IDOCK:   -1.22 KCAL/MOL
REMARK 927      BINDING AFFINITY PREDICTED BY RF-SCORE:    0.00 PKD
ROOT
HETATM    1  C   UNL     1      -9.545   7.666  66.592  1.00  0.00    -0.271 C  
HETATM    2  C   UNL     1      -8.950   8.864  67.309  1.00  0.00    -0.128 C  
ENDROOT
BRANCH   2   3
HETATM    3  O   UNL     1      -9.663  10.030  66.878  1.00  0.00    -0.174 OA 
BRANCH   3   4
HETATM    4  C   UNL     1      -9.044  10.739  65.892  1.00  0.00    -0.188 C  
HETATM    5  O   UNL     1      -7.866  10.638  65.584  1.00  0.00    -0.157 OA 
BRANCH   4   6
HETATM    6  C   UNL     1     -10.063  11.593  65.183  1.00  0.00    -0.304 C  
BRANCH   6   7
HETATM    7  C   UNL     1     -11.313  11.756  66.040  1.00  0.00    -0.335 C  
BRANCH   7   8
HETATM    8  C   UNL     1     -12.103  13.005  65.665  1.00  0.00    -0.507 C  
BRANCH   8   9
HETATM    9  C   UNL     1     -12.049  14.020  66.805  1.00  0.00    -0.480 C  
BRANCH   9  10
HETATM   10  C   UNL     1     -11.275  13.473  67.997  1.00  0.00    -0.300 C  
BRANCH  10  11
HETATM   11  C   UNL     1     -10.698  14.605  68.846  1.00  0.00    -0.251 C  
BRANCH  11  12
HETATM   12  C   UNL     1     -11.491  15.890  68.624  1.00  0.00    -0.391 C  
BRANCH  12  13
HETATM   13  C   UNL     1     -10.595  17.131  68.651  1.00  0.00    -0.352 C  
HETATM   14  C   UNL     1      -9.647  17.196  67.436  1.00  0.00    -0.247 C  
HETATM   15  C   UNL     1      -8.653  18.346  67.593  1.00  0.00    -0.268 A  
HETATM   16  C   UNL     1     -10.423  17.255  66.108  1.00  0.00    -0.279 C  
HETATM   17  C   UNL     1      -9.001  19.632  67.127  1.00  0.00    -0.385 A  
HETATM   18  C   UNL     1      -8.111  20.705  67.206  1.00  0.00    -0.315 A  
HETATM   19  C   UNL     1      -6.856  20.528  67.772  1.00  0.00    -0.363 A  
HETATM   20  C   UNL     1      -6.500  19.281  68.278  1.00  0.00    -0.262 A  
HETATM   21  C   UNL     1      -7.388  18.198  68.198  1.00  0.00    -0.251 A  
HETATM   22  I   UNL     1      -6.697  16.396  69.048  1.00  0.00    -0.218 I  
ENDBRANCH  12  13
ENDBRANCH  11  12
ENDBRANCH  10  11
ENDBRANCH   9  10
ENDBRANCH   8   9
ENDBRANCH   7   8
ENDBRANCH   6   7
ENDBRANCH   4   6
ENDBRANCH   3   4
ENDBRANCH   2   3
TORSDOF 10
ENDMDL
MODEL      132
REMARK 921   NORMALIZED FREE ENERGY PREDICTED BY IDOCK:   -3.93 KCAL/MOL
REMARK 922        TOTAL FREE ENERGY PREDICTED BY IDOCK:   -7.63 KCAL/MOL
REMARK 923 INTER-LIGAND FREE ENERGY PREDICTED BY IDOCK:   -7.12 KCAL/MOL
REMARK 924 INTRA-LIGAND FREE ENERGY PREDICTED BY IDOCK:   -0.51 KCAL/MOL
REMARK 927      BINDING AFFINITY PREDICTED BY RF-SCORE:    0.00 PKD
ROOT
HETATM    1  C   UNL     1     -14.409   8.315  71.615  1.00  0.00    -0.561 C  
HETATM    2  C   UNL     1     -13.301   8.897  72.474  1.00  0.00    -0.399 C  
ENDROOT
BRANCH   2   3
HETATM    3  O   UNL     1     -12.990  10.199  71.963  1.00  0.00    -0.424 OA 
BRANCH   3   4
HETATM    4  C   UNL     1     -12.068  10.207  70.960  1.00  0.00    -0.377 C  
HETATM    5  O   UNL     1     -11.085   9.484  70.899  1.00  0.00    -0.279 OA 
BRANCH   4   6
HETATM    6  C   UNL     1     -12.504  11.180  69.894  1.00  0.00    -0.257 C  
BRANCH   6   7
HETATM    7  C   UNL     1     -11.419  12.222  69.645  1.00  0.00    -0.285 C  
BRANCH   7   8
HETATM    8  C   UNL     1     -11.901  13.338  68.726  1.00  0.00    -0.371 C  
BRANCH   8   9
HETATM    9  C   UNL     1     -10.788  13.737  67.759  1.00  0.00    -0.262 C  
BRANCH   9  10
HETATM   10  C   UNL     1     -11.308  14.665  66.670  1.00  0.00    -0.358 C  
BRANCH  10  11
HETATM   11  C   UNL     1     -10.160  15.226  65.831  1.00  0.00    -0.359 C  
BRANCH  11  12
HETATM   12  C   UNL     1     -10.157  16.750  65.891  1.00  0.00    -0.324 C  
BRANCH  12  13
HETATM   13  C   UNL     1      -9.051  17.288  66.803  1.00  0.00    -0.269 C  
HETATM   14  C   UNL     1      -9.040  18.830  66.864  1.00  0.00    -0.305 C  
HETATM   15  C   UNL     1      -7.819  19.327  67.635  1.00  0.00    -0.295 A  
HETATM   16  C   UNL     1     -10.363  19.390  67.416  1.00  0.00    -0.559 C  
HETATM   17  C   UNL     1      -7.898  19.481  69.035  1.00  0.00    -0.310 A  
HETATM   18  C   UNL     1      -6.825  19.975  69.781  1.00  0.00    -0.218 A  
HETATM   19  C   UNL     1      -5.635  20.309  69.149  1.00  0.00    -0.311 A  
HETATM   20  C   UNL     1      -5.513  20.129  67.774  1.00  0.00    -0.207 A  
HETATM   21  C   UNL     1      -6.588  19.637  67.020  1.00  0.00    -0.193 A  
HETATM   22  I   UNL     1      -6.213  19.394  64.959  1.00  0.00    -0.201 I  
ENDBRANCH  12  13
ENDBRANCH  11  12
ENDBRANCH  10  11
ENDBRANCH   9  10
ENDBRANCH   8   9
ENDBRANCH   7   8
ENDBRANCH   6   7
ENDBRANCH   4   6
ENDBRANCH   3   4
ENDBRANCH   2   3
TORSDOF 10
ENDMDL
MODEL      133
REMARK 921   NORMALIZED FREE ENERGY PREDICTED BY IDOCK:   -3.93 KCAL/MOL
REMARK 922        TOTAL FREE ENERGY PREDICTED BY IDOCK:   -7.62 KCAL/MOL
REMARK 923 INTER-LIGAND FREE ENERGY PREDICTED BY IDOCK:   -6.23 KCAL/MOL
REMARK 924 INTRA-LIGAND FREE ENERGY PREDICTED BY IDOCK:   -1.39 KCAL/MOL
REMARK 927      BINDING AFFINITY PREDICTED BY RF-SCORE:    0.00 PKD
ROOT
HETATM    1  C   UNL     1      -5.555  17.896  69.053  1.00  0.00    -0.192 C  
HETATM    2  C   UNL     1      -6.644  18.898  69.389  1.00  0.00    -0.264 C  
ENDROOT
BRANCH   2   3
HETATM    3  O   UNL     1      -6.231  20.177  68.891  1.00  0.00    -0.284 OA 
BRANCH   3   4
HETATM    4  C   UNL     1      -6.641  20.449  67.620  1.00  0.00    -0.271 C  
HETATM    5  O   UNL     1      -5.913  20.804  66.705  1.00  0.00    -0.187 OA 
BRANCH   4   6
HETATM    6  C   UNL     1      -8.113  20.149  67.500  1.00  0.00    -0.356 C  
BRANCH   6   7
HETATM    7  C   UNL     1      -8.418  19.503  66.153  1.00  0.00    -0.329 C  
BRANCH   7   8
HETATM    8  C   UNL     1      -9.376  18.326  66.289  1.00  0.00    -0.223 C  
BRANCH   8   9
HETATM    9  C   UNL     1      -8.607  17.070  66.695  1.00  0.00    -0.285 C  
BRANCH   9  10
HETATM   10  C   UNL     1      -9.205  16.433  67.943  1.00  0.00    -0.202 C  
BRANCH  10  11
HETATM   11  C   UNL     1     -10.245  17.350  68.584  1.00  0.00    -0.361 C  
BRANCH  11  12
HETATM   12  C   UNL     1     -11.358  16.523  69.221  1.00  0.00    -0.133 C  
BRANCH  12  13
HETATM   13  C   UNL     1     -10.933  15.072  69.458  1.00  0.00    -0.281 C  
HETATM   14  C   UNL     1     -11.945  14.063  68.874  1.00  0.00    -0.387 C  
HETATM   15  C   UNL     1     -11.579  12.638  69.285  1.00  0.00    -0.376 A  
HETATM   16  C   UNL     1     -12.098  14.224  67.351  1.00  0.00    -0.371 C  
HETATM   17  C   UNL     1     -10.690  11.892  68.484  1.00  0.00    -0.254 A  
HETATM   18  C   UNL     1     -10.359  10.570  68.791  1.00  0.00    -0.208 A  
HETATM   19  C   UNL     1     -10.892   9.965  69.921  1.00  0.00    -0.316 A  
HETATM   20  C   UNL     1     -11.740  10.690  70.753  1.00  0.00    -0.435 A  
HETATM   21  C   UNL     1     -12.079  12.016  70.448  1.00  0.00    -0.321 A  
HETATM   22  I   UNL     1     -13.344  12.972  71.838  1.00  0.00    -0.198 I  
ENDBRANCH  12  13
ENDBRANCH  11  12
ENDBRANCH  10  11
ENDBRANCH   9  10
ENDBRANCH   8   9
ENDBRANCH   7   8
ENDBRANCH   6   7
ENDBRANCH   4   6
ENDBRANCH   3   4
ENDBRANCH   2   3
TORSDOF 10
ENDMDL
MODEL      134
REMARK 921   NORMALIZED FREE ENERGY PREDICTED BY IDOCK:   -3.92 KCAL/MOL
REMARK 922        TOTAL FREE ENERGY PREDICTED BY IDOCK:   -7.61 KCAL/MOL
REMARK 923 INTER-LIGAND FREE ENERGY PREDICTED BY IDOCK:   -6.26 KCAL/MOL
REMARK 924 INTRA-LIGAND FREE ENERGY PREDICTED BY IDOCK:   -1.35 KCAL/MOL
REMARK 927      BINDING AFFINITY PREDICTED BY RF-SCORE:    0.00 PKD
ROOT
HETATM    1  C   UNL     1      -8.296  13.435  68.430  1.00  0.00    -0.137 C  
HETATM    2  C   UNL     1      -9.197  12.333  67.903  1.00  0.00    -0.190 C  
ENDROOT
BRANCH   2   3
HETATM    3  O   UNL     1     -10.544  12.657  68.268  1.00  0.00    -0.222 OA 
BRANCH   3   4
HETATM    4  C   UNL     1     -11.435  11.639  68.102  1.00  0.00    -0.313 C  
HETATM    5  O   UNL     1     -11.880  11.259  67.029  1.00  0.00    -0.484 OA 
BRANCH   4   6
HETATM    6  C   UNL     1     -11.709  10.998  69.438  1.00  0.00    -0.394 C  
BRANCH   6   7
HETATM    7  C   UNL     1     -12.084  12.054  70.471  1.00  0.00    -0.402 C  
BRANCH   7   8
HETATM    8  C   UNL     1     -12.953  11.480  71.584  1.00  0.00    -0.499 C  
BRANCH   8   9
HETATM    9  C   UNL     1     -13.211   9.996  71.334  1.00  0.00    -0.486 C  
BRANCH   9  10
HETATM   10  C   UNL     1     -13.089   9.188  72.619  1.00  0.00    -0.345 C  
BRANCH  10  11
HETATM   11  C   UNL     1     -11.993   8.129  72.503  1.00  0.00    -0.410 C  
BRANCH  11  12
HETATM   12  C   UNL     1     -12.495   6.935  71.697  1.00  0.00    -0.418 C  
BRANCH  12  13
HETATM   13  C   UNL     1     -11.590   6.625  70.503  1.00  0.00    -0.448 C  
HETATM   14  C   UNL     1     -10.185   6.155  70.939  1.00  0.00    -0.250 C  
HETATM   15  C   UNL     1      -9.262   6.030  69.728  1.00  0.00    -0.153 A  
HETATM   16  C   UNL     1     -10.249   4.866  71.777  1.00  0.00    -0.268 C  
HETATM   17  C   UNL     1      -9.218   4.815  69.012  1.00  0.00    -0.174 A  
HETATM   18  C   UNL     1      -8.359   4.634  67.927  1.00  0.00    -0.099 A  
HETATM   19  C   UNL     1      -7.534   5.671  67.513  1.00  0.00    -0.081 A  
HETATM   20  C   UNL     1      -7.585   6.895  68.173  1.00  0.00    -0.108 A  
HETATM   21  C   UNL     1      -8.444   7.082  69.267  1.00  0.00    -0.133 A  
HETATM   22  I   UNL     1      -8.418   9.009  70.121  1.00  0.00    -0.241 I  
ENDBRANCH  12  13
ENDBRANCH  11  12
ENDBRANCH  10  11
ENDBRANCH   9  10
ENDBRANCH   8   9
ENDBRANCH   7   8
ENDBRANCH   6   7
ENDBRANCH   4   6
ENDBRANCH   3   4
ENDBRANCH   2   3
TORSDOF 10
ENDMDL
MODEL      135
REMARK 921   NORMALIZED FREE ENERGY PREDICTED BY IDOCK:   -3.91 KCAL/MOL
REMARK 922        TOTAL FREE ENERGY PREDICTED BY IDOCK:   -7.60 KCAL/MOL
REMARK 923 INTER-LIGAND FREE ENERGY PREDICTED BY IDOCK:   -5.82 KCAL/MOL
REMARK 924 INTRA-LIGAND FREE ENERGY PREDICTED BY IDOCK:   -1.78 KCAL/MOL
REMARK 927      BINDING AFFINITY PREDICTED BY RF-SCORE:    0.00 PKD
ROOT
HETATM    1  C   UNL     1     -11.959  11.553  69.475  1.00  0.00    -0.402 C  
HETATM    2  C   UNL     1     -11.834  10.401  70.454  1.00  0.00    -0.328 C  
ENDROOT
BRANCH   2   3
HETATM    3  O   UNL     1     -12.963  10.450  71.335  1.00  0.00    -0.379 OA 
BRANCH   3   4
HETATM    4  C   UNL     1     -13.218   9.284  71.993  1.00  0.00    -0.447 C  
HETATM    5  O   UNL     1     -14.298   8.964  72.467  1.00  0.00    -0.579 OA 
BRANCH   4   6
HETATM    6  C   UNL     1     -11.987   8.416  71.959  1.00  0.00    -0.419 C  
BRANCH   6   7
HETATM    7  C   UNL     1     -12.357   6.978  71.617  1.00  0.00    -0.407 C  
BRANCH   7   8
HETATM    8  C   UNL     1     -11.668   5.977  72.538  1.00  0.00    -0.280 C  
BRANCH   8   9
HETATM    9  C   UNL     1     -10.183   5.887  72.196  1.00  0.00    -0.231 C  
BRANCH   9  10
HETATM   10  C   UNL     1      -9.915   4.786  71.179  1.00  0.00    -0.273 C  
BRANCH  10  11
HETATM   11  C   UNL     1      -8.438   4.746  70.786  1.00  0.00    -0.110 C  
BRANCH  11  12
HETATM   12  C   UNL     1      -7.782   6.096  71.058  1.00  0.00    -0.102 C  
BRANCH  12  13
HETATM   13  C   UNL     1      -7.694   6.958  69.796  1.00  0.00    -0.113 C  
HETATM   14  C   UNL     1      -8.772   8.063  69.765  1.00  0.00    -0.136 C  
HETATM   15  C   UNL     1      -8.765   8.781  68.416  1.00  0.00    -0.135 A  
HETATM   16  C   UNL     1      -8.635   9.028  70.956  1.00  0.00    -0.264 C  
HETATM   17  C   UNL     1      -7.917   9.893  68.227  1.00  0.00    -0.100 A  
HETATM   18  C   UNL     1      -7.906  10.611  67.029  1.00  0.00    -0.117 A  
HETATM   19  C   UNL     1      -8.728  10.223  65.980  1.00  0.00    -0.162 A  
HETATM   20  C   UNL     1      -9.544   9.105  66.122  1.00  0.00    -0.333 A  
HETATM   21  C   UNL     1      -9.563   8.382  67.324  1.00  0.00    -0.165 A  
HETATM   22  I   UNL     1     -10.830   6.697  67.349  1.00  0.00    -0.340 I  
ENDBRANCH  12  13
ENDBRANCH  11  12
ENDBRANCH  10  11
ENDBRANCH   9  10
ENDBRANCH   8   9
ENDBRANCH   7   8
ENDBRANCH   6   7
ENDBRANCH   4   6
ENDBRANCH   3   4
ENDBRANCH   2   3
TORSDOF 10
ENDMDL
MODEL      136
REMARK 921   NORMALIZED FREE ENERGY PREDICTED BY IDOCK:   -3.91 KCAL/MOL
REMARK 922        TOTAL FREE ENERGY PREDICTED BY IDOCK:   -7.60 KCAL/MOL
REMARK 923 INTER-LIGAND FREE ENERGY PREDICTED BY IDOCK:   -6.37 KCAL/MOL
REMARK 924 INTRA-LIGAND FREE ENERGY PREDICTED BY IDOCK:   -1.23 KCAL/MOL
REMARK 927      BINDING AFFINITY PREDICTED BY RF-SCORE:    0.00 PKD
ROOT
HETATM    1  C   UNL     1     -12.378  13.344  63.668  1.00  0.00    -0.422 C  
HETATM    2  C   UNL     1     -12.342  13.466  65.181  1.00  0.00    -0.456 C  
ENDROOT
BRANCH   2   3
HETATM    3  O   UNL     1     -12.147  12.152  65.720  1.00  0.00    -0.572 OA 
BRANCH   3   4
HETATM    4  C   UNL     1     -10.870  11.685  65.623  1.00  0.00    -0.276 C  
HETATM    5  O   UNL     1     -10.495  10.813  64.853  1.00  0.00    -0.311 OA 
BRANCH   4   6
HETATM    6  C   UNL     1      -9.981  12.478  66.545  1.00  0.00    -0.252 C  
BRANCH   6   7
HETATM    7  C   UNL     1      -9.881  11.799  67.906  1.00  0.00    -0.186 C  
BRANCH   7   8
HETATM    8  C   UNL     1      -8.454  11.804  68.442  1.00  0.00    -0.155 C  
BRANCH   8   9
HETATM    9  C   UNL     1      -7.581  12.731  67.598  1.00  0.00    -0.152 C  
BRANCH   9  10
HETATM   10  C   UNL     1      -6.920  13.802  68.455  1.00  0.00    -0.103 C  
BRANCH  10  11
HETATM   11  C   UNL     1      -5.672  14.360  67.773  1.00  0.00    -0.072 C  
BRANCH  11  12
HETATM   12  C   UNL     1      -5.511  15.843  68.095  1.00  0.00    -0.119 C  
BRANCH  12  13
HETATM   13  C   UNL     1      -6.627  16.690  67.479  1.00  0.00    -0.180 C  
HETATM   14  C   UNL     1      -7.294  17.622  68.513  1.00  0.00    -0.256 C  
HETATM   15  C   UNL     1      -8.512  18.314  67.904  1.00  0.00    -0.263 A  
HETATM   16  C   UNL     1      -6.286  18.614  69.121  1.00  0.00    -0.268 C  
HETATM   17  C   UNL     1      -8.346  19.536  67.220  1.00  0.00    -0.327 A  
HETATM   18  C   UNL     1      -9.432  20.231  66.685  1.00  0.00    -0.487 A  
HETATM   19  C   UNL     1     -10.715  19.711  66.801  1.00  0.00    -0.562 A  
HETATM   20  C   UNL     1     -10.905  18.487  67.435  1.00  0.00    -0.342 A  
HETATM   21  C   UNL     1      -9.818  17.786  67.977  1.00  0.00    -0.317 A  
HETATM   22  I   UNL     1     -10.287  15.933  68.867  1.00  0.00    -0.289 I  
ENDBRANCH  12  13
ENDBRANCH  11  12
ENDBRANCH  10  11
ENDBRANCH   9  10
ENDBRANCH   8   9
ENDBRANCH   7   8
ENDBRANCH   6   7
ENDBRANCH   4   6
ENDBRANCH   3   4
ENDBRANCH   2   3
TORSDOF 10
ENDMDL
MODEL      137
REMARK 921   NORMALIZED FREE ENERGY PREDICTED BY IDOCK:   -3.89 KCAL/MOL
REMARK 922        TOTAL FREE ENERGY PREDICTED BY IDOCK:   -7.56 KCAL/MOL
REMARK 923 INTER-LIGAND FREE ENERGY PREDICTED BY IDOCK:   -5.97 KCAL/MOL
REMARK 924 INTRA-LIGAND FREE ENERGY PREDICTED BY IDOCK:   -1.59 KCAL/MOL
REMARK 927      BINDING AFFINITY PREDICTED BY RF-SCORE:    0.00 PKD
ROOT
HETATM    1  C   UNL     1      -8.786  11.362  68.267  1.00  0.00    -0.167 C  
HETATM    2  C   UNL     1      -7.351  11.609  68.694  1.00  0.00    -0.111 C  
ENDROOT
BRANCH   2   3
HETATM    3  O   UNL     1      -7.183  13.022  68.863  1.00  0.00    -0.103 OA 
BRANCH   3   4
HETATM    4  C   UNL     1      -6.535  13.641  67.836  1.00  0.00    -0.156 C  
HETATM    5  O   UNL     1      -5.573  13.187  67.233  1.00  0.00    -0.349 OA 
BRANCH   4   6
HETATM    6  C   UNL     1      -7.249  14.925  67.502  1.00  0.00    -0.227 C  
BRANCH   6   7
HETATM    7  C   UNL     1      -6.246  16.045  67.250  1.00  0.00    -0.155 C  
BRANCH   7   8
HETATM    8  C   UNL     1      -6.799  17.104  66.303  1.00  0.00    -0.237 C  
BRANCH   8   9
HETATM    9  C   UNL     1      -6.208  18.470  66.644  1.00  0.00    -0.197 C  
BRANCH   9  10
HETATM   10  C   UNL     1      -7.278  19.423  67.162  1.00  0.00    -0.231 C  
BRANCH  10  11
HETATM   11  C   UNL     1      -7.302  19.445  68.690  1.00  0.00    -0.375 C  
BRANCH  11  12
HETATM   12  C   UNL     1      -8.660  18.978  69.205  1.00  0.00    -0.097 C  
BRANCH  12  13
HETATM   13  C   UNL     1      -9.052  17.612  68.637  1.00  0.00    -0.261 C  
HETATM   14  C   UNL     1     -10.541  17.550  68.235  1.00  0.00    -0.354 C  
HETATM   15  C   UNL     1     -10.932  16.126  67.845  1.00  0.00    -0.318 A  
HETATM   16  C   UNL     1     -10.882  18.583  67.146  1.00  0.00    -0.304 C  
HETATM   17  C   UNL     1     -10.769  15.703  66.509  1.00  0.00    -0.293 A  
HETATM   18  C   UNL     1     -11.153  14.427  66.092  1.00  0.00    -0.330 A  
HETATM   19  C   UNL     1     -11.692  13.531  67.004  1.00  0.00    -0.424 A  
HETATM   20  C   UNL     1     -11.826  13.904  68.338  1.00  0.00    -0.409 A  
HETATM   21  C   UNL     1     -11.446  15.186  68.763  1.00  0.00    -0.319 A  
HETATM   22  I   UNL     1     -11.685  15.567  70.823  1.00  0.00    -0.552 I  
ENDBRANCH  12  13
ENDBRANCH  11  12
ENDBRANCH  10  11
ENDBRANCH   9  10
ENDBRANCH   8   9
ENDBRANCH   7   8
ENDBRANCH   6   7
ENDBRANCH   4   6
ENDBRANCH   3   4
ENDBRANCH   2   3
TORSDOF 10
ENDMDL
MODEL      138
REMARK 921   NORMALIZED FREE ENERGY PREDICTED BY IDOCK:   -3.89 KCAL/MOL
REMARK 922        TOTAL FREE ENERGY PREDICTED BY IDOCK:   -7.56 KCAL/MOL
REMARK 923 INTER-LIGAND FREE ENERGY PREDICTED BY IDOCK:   -6.13 KCAL/MOL
REMARK 924 INTRA-LIGAND FREE ENERGY PREDICTED BY IDOCK:   -1.43 KCAL/MOL
REMARK 927      BINDING AFFINITY PREDICTED BY RF-SCORE:    0.00 PKD
ROOT
HETATM    1  C   UNL     1      -5.383  13.938  69.276  1.00  0.00    -0.081 C  
HETATM    2  C   UNL     1      -6.105  14.725  68.198  1.00  0.00    -0.141 C  
ENDROOT
BRANCH   2   3
HETATM    3  O   UNL     1      -6.817  15.792  68.837  1.00  0.00    -0.117 OA 
BRANCH   3   4
HETATM    4  C   UNL     1      -7.024  16.885  68.051  1.00  0.00    -0.152 C  
HETATM    5  O   UNL     1      -6.266  17.278  67.176  1.00  0.00    -0.134 OA 
BRANCH   4   6
HETATM    6  C   UNL     1      -8.375  17.473  68.365  1.00  0.00    -0.278 C  
BRANCH   6   7
HETATM    7  C   UNL     1      -9.441  16.383  68.385  1.00  0.00    -0.220 C  
BRANCH   7   8
HETATM    8  C   UNL     1     -10.506  16.607  67.319  1.00  0.00    -0.313 C  
BRANCH   8   9
HETATM    9  C   UNL     1      -9.900  16.430  65.928  1.00  0.00    -0.344 C  
BRANCH   9  10
HETATM   10  C   UNL     1     -10.694  15.428  65.101  1.00  0.00    -0.460 C  
BRANCH  10  11
HETATM   11  C   UNL     1     -10.633  14.032  65.720  1.00  0.00    -0.303 C  
BRANCH  11  12
HETATM   12  C   UNL     1     -12.024  13.588  66.162  1.00  0.00    -0.454 C  
BRANCH  12  13
HETATM   13  C   UNL     1     -11.972  12.384  67.106  1.00  0.00    -0.248 C  
HETATM   14  C   UNL     1     -11.287  12.721  68.447  1.00  0.00    -0.331 C  
HETATM   15  C   UNL     1     -11.095  11.456  69.283  1.00  0.00    -0.313 A  
HETATM   16  C   UNL     1     -12.035  13.830  69.207  1.00  0.00    -0.399 C  
HETATM   17  C   UNL     1     -12.124  11.036  70.152  1.00  0.00    -0.438 A  
HETATM   18  C   UNL     1     -11.980   9.913  70.970  1.00  0.00    -0.456 A  
HETATM   19  C   UNL     1     -10.810   9.167  70.926  1.00  0.00    -0.345 A  
HETATM   20  C   UNL     1      -9.794   9.533  70.048  1.00  0.00    -0.269 A  
HETATM   21  C   UNL     1      -9.931  10.662  69.227  1.00  0.00    -0.193 A  
HETATM   22  I   UNL     1      -8.310  11.045  67.934  1.00  0.00    -0.139 I  
ENDBRANCH  12  13
ENDBRANCH  11  12
ENDBRANCH  10  11
ENDBRANCH   9  10
ENDBRANCH   8   9
ENDBRANCH   7   8
ENDBRANCH   6   7
ENDBRANCH   4   6
ENDBRANCH   3   4
ENDBRANCH   2   3
TORSDOF 10
ENDMDL
MODEL      139
REMARK 921   NORMALIZED FREE ENERGY PREDICTED BY IDOCK:   -3.89 KCAL/MOL
REMARK 922        TOTAL FREE ENERGY PREDICTED BY IDOCK:   -7.56 KCAL/MOL
REMARK 923 INTER-LIGAND FREE ENERGY PREDICTED BY IDOCK:   -6.65 KCAL/MOL
REMARK 924 INTRA-LIGAND FREE ENERGY PREDICTED BY IDOCK:   -0.91 KCAL/MOL
REMARK 927      BINDING AFFINITY PREDICTED BY RF-SCORE:    0.00 PKD
ROOT
HETATM    1  C   UNL     1      -9.666   7.583  73.608  1.00  0.00    -0.341 C  
HETATM    2  C   UNL     1     -10.832   6.851  72.970  1.00  0.00    -0.296 C  
ENDROOT
BRANCH   2   3
HETATM    3  O   UNL     1     -11.447   7.741  72.031  1.00  0.00    -0.262 OA 
BRANCH   3   4
HETATM    4  C   UNL     1     -11.174   7.463  70.725  1.00  0.00    -0.271 C  
HETATM    5  O   UNL     1     -11.607   6.505  70.102  1.00  0.00    -0.396 OA 
BRANCH   4   6
HETATM    6  C   UNL     1     -10.333   8.573  70.148  1.00  0.00    -0.214 C  
BRANCH   6   7
HETATM    7  C   UNL     1     -11.049   9.912  70.285  1.00  0.00    -0.368 C  
BRANCH   7   8
HETATM    8  C   UNL     1     -11.232  10.600  68.937  1.00  0.00    -0.333 C  
BRANCH   8   9
HETATM    9  C   UNL     1     -11.726  12.031  69.143  1.00  0.00    -0.389 C  
BRANCH   9  10
HETATM   10  C   UNL     1     -11.907  12.751  67.814  1.00  0.00    -0.387 C  
BRANCH  10  11
HETATM   11  C   UNL     1     -11.085  12.086  66.711  1.00  0.00    -0.353 C  
BRANCH  11  12
HETATM   12  C   UNL     1      -9.732  12.777  66.570  1.00  0.00    -0.255 C  
BRANCH  12  13
HETATM   13  C   UNL     1      -9.864  14.302  66.545  1.00  0.00    -0.299 C  
HETATM   14  C   UNL     1      -8.915  14.988  67.551  1.00  0.00    -0.189 C  
HETATM   15  C   UNL     1      -9.204  16.486  67.624  1.00  0.00    -0.200 A  
HETATM   16  C   UNL     1      -7.439  14.679  67.245  1.00  0.00    -0.148 C  
HETATM   17  C   UNL     1      -8.553  17.363  66.730  1.00  0.00    -0.284 A  
HETATM   18  C   UNL     1      -8.748  18.744  66.786  1.00  0.00    -0.303 A  
HETATM   19  C   UNL     1      -9.616  19.287  67.723  1.00  0.00    -0.395 A  
HETATM   20  C   UNL     1     -10.305  18.444  68.590  1.00  0.00    -0.286 A  
HETATM   21  C   UNL     1     -10.111  17.056  68.542  1.00  0.00    -0.303 A  
HETATM   22  I   UNL     1     -11.263  15.931  69.904  1.00  0.00    -0.381 I  
ENDBRANCH  12  13
ENDBRANCH  11  12
ENDBRANCH  10  11
ENDBRANCH   9  10
ENDBRANCH   8   9
ENDBRANCH   7   8
ENDBRANCH   6   7
ENDBRANCH   4   6
ENDBRANCH   3   4
ENDBRANCH   2   3
TORSDOF 10
ENDMDL
MODEL      140
REMARK 921   NORMALIZED FREE ENERGY PREDICTED BY IDOCK:   -3.89 KCAL/MOL
REMARK 922        TOTAL FREE ENERGY PREDICTED BY IDOCK:   -7.56 KCAL/MOL
REMARK 923 INTER-LIGAND FREE ENERGY PREDICTED BY IDOCK:   -6.32 KCAL/MOL
REMARK 924 INTRA-LIGAND FREE ENERGY PREDICTED BY IDOCK:   -1.23 KCAL/MOL
REMARK 927      BINDING AFFINITY PREDICTED BY RF-SCORE:    0.00 PKD
ROOT
HETATM    1  C   UNL     1     -10.947  15.420  65.019  1.00  0.00    -0.450 C  
HETATM    2  C   UNL     1      -9.560  15.430  65.635  1.00  0.00    -0.288 C  
ENDROOT
BRANCH   2   3
HETATM    3  O   UNL     1      -9.160  16.797  65.789  1.00  0.00    -0.515 OA 
BRANCH   3   4
HETATM    4  C   UNL     1      -9.095  17.225  67.082  1.00  0.00    -0.227 C  
HETATM    5  O   UNL     1      -9.999  17.139  67.899  1.00  0.00    -0.272 OA 
BRANCH   4   6
HETATM    6  C   UNL     1      -7.704  17.732  67.366  1.00  0.00    -0.214 C  
BRANCH   6   7
HETATM    7  C   UNL     1      -6.682  16.616  67.184  1.00  0.00    -0.223 C  
BRANCH   7   8
HETATM    8  C   UNL     1      -6.706  15.626  68.342  1.00  0.00    -0.116 C  
BRANCH   8   9
HETATM    9  C   UNL     1      -6.549  14.201  67.816  1.00  0.00    -0.188 C  
BRANCH   9  10
HETATM   10  C   UNL     1      -7.743  13.335  68.195  1.00  0.00    -0.143 C  
BRANCH  10  11
HETATM   11  C   UNL     1      -7.888  12.148  67.244  1.00  0.00    -0.176 C  
BRANCH  11  12
HETATM   12  C   UNL     1      -7.845  10.838  68.023  1.00  0.00    -0.106 C  
BRANCH  12  13
HETATM   13  C   UNL     1      -8.861  10.815  69.167  1.00  0.00    -0.098 C  
HETATM   14  C   UNL     1     -10.300  10.563  68.668  1.00  0.00    -0.201 C  
HETATM   15  C   UNL     1     -11.300  10.726  69.811  1.00  0.00    -0.372 A  
HETATM   16  C   UNL     1     -10.427   9.207  67.952  1.00  0.00    -0.293 C  
HETATM   17  C   UNL     1     -11.611   9.616  70.624  1.00  0.00    -0.371 A  
HETATM   18  C   UNL     1     -12.552   9.701  71.653  1.00  0.00    -0.493 A  
HETATM   19  C   UNL     1     -13.193  10.905  71.910  1.00  0.00    -0.508 A  
HETATM   20  C   UNL     1     -12.876  12.028  71.152  1.00  0.00    -0.331 A  
HETATM   21  C   UNL     1     -11.935  11.948  70.115  1.00  0.00    -0.332 A  
HETATM   22  I   UNL     1     -11.553  13.755  69.097  1.00  0.00    -0.408 I  
ENDBRANCH  12  13
ENDBRANCH  11  12
ENDBRANCH  10  11
ENDBRANCH   9  10
ENDBRANCH   8   9
ENDBRANCH   7   8
ENDBRANCH   6   7
ENDBRANCH   4   6
ENDBRANCH   3   4
ENDBRANCH   2   3
TORSDOF 10
ENDMDL
MODEL      141
REMARK 921   NORMALIZED FREE ENERGY PREDICTED BY IDOCK:   -3.88 KCAL/MOL
REMARK 922        TOTAL FREE ENERGY PREDICTED BY IDOCK:   -7.55 KCAL/MOL
REMARK 923 INTER-LIGAND FREE ENERGY PREDICTED BY IDOCK:   -7.10 KCAL/MOL
REMARK 924 INTRA-LIGAND FREE ENERGY PREDICTED BY IDOCK:   -0.46 KCAL/MOL
REMARK 927      BINDING AFFINITY PREDICTED BY RF-SCORE:    0.00 PKD
ROOT
HETATM    1  C   UNL     1      -9.684  20.132  66.470  1.00  0.00    -0.553 C  
HETATM    2  C   UNL     1     -10.318  19.789  67.806  1.00  0.00    -0.437 C  
ENDROOT
BRANCH   2   3
HETATM    3  O   UNL     1     -10.933  18.501  67.680  1.00  0.00    -0.355 OA 
BRANCH   3   4
HETATM    4  C   UNL     1     -10.358  17.523  68.436  1.00  0.00    -0.378 C  
HETATM    5  O   UNL     1      -9.198  17.521  68.823  1.00  0.00    -0.278 OA 
BRANCH   4   6
HETATM    6  C   UNL     1     -11.402  16.498  68.797  1.00  0.00    -0.221 C  
BRANCH   6   7
HETATM    7  C   UNL     1     -11.353  16.189  70.289  1.00  0.00    -0.363 C  
BRANCH   7   8
HETATM    8  C   UNL     1     -12.469  15.240  70.711  1.00  0.00    -0.457 C  
BRANCH   8   9
HETATM    9  C   UNL     1     -12.001  13.792  70.579  1.00  0.00    -0.367 C  
BRANCH   9  10
HETATM   10  C   UNL     1     -12.125  13.299  69.143  1.00  0.00    -0.283 C  
BRANCH  10  11
HETATM   11  C   UNL     1     -10.749  13.068  68.520  1.00  0.00    -0.275 C  
BRANCH  11  12
HETATM   12  C   UNL     1     -10.668  13.736  67.151  1.00  0.00    -0.283 C  
BRANCH  12  13
HETATM   13  C   UNL     1      -9.820  12.929  66.165  1.00  0.00    -0.270 C  
HETATM   14  C   UNL     1     -10.672  11.974  65.303  1.00  0.00    -0.331 C  
HETATM   15  C   UNL     1      -9.775  11.064  64.465  1.00  0.00    -0.323 A  
HETATM   16  C   UNL     1     -11.706  12.738  64.457  1.00  0.00    -0.420 C  
HETATM   17  C   UNL     1      -9.347  11.495  63.192  1.00  0.00    -0.271 A  
HETATM   18  C   UNL     1      -8.564  10.683  62.368  1.00  0.00    -0.294 A  
HETATM   19  C   UNL     1      -8.171   9.425  62.804  1.00  0.00    -0.162 A  
HETATM   20  C   UNL     1      -8.543   8.989  64.072  1.00  0.00    -0.161 A  
HETATM   21  C   UNL     1      -9.332   9.799  64.903  1.00  0.00    -0.265 A  
HETATM   22  I   UNL     1      -9.770   8.994  66.802  1.00  0.00    -0.351 I  
ENDBRANCH  12  13
ENDBRANCH  11  12
ENDBRANCH  10  11
ENDBRANCH   9  10
ENDBRANCH   8   9
ENDBRANCH   7   8
ENDBRANCH   6   7
ENDBRANCH   4   6
ENDBRANCH   3   4
ENDBRANCH   2   3
TORSDOF 10
ENDMDL
MODEL      142
REMARK 921   NORMALIZED FREE ENERGY PREDICTED BY IDOCK:   -3.88 KCAL/MOL
REMARK 922        TOTAL FREE ENERGY PREDICTED BY IDOCK:   -7.55 KCAL/MOL
REMARK 923 INTER-LIGAND FREE ENERGY PREDICTED BY IDOCK:   -5.88 KCAL/MOL
REMARK 924 INTRA-LIGAND FREE ENERGY PREDICTED BY IDOCK:   -1.67 KCAL/MOL
REMARK 927      BINDING AFFINITY PREDICTED BY RF-SCORE:    0.00 PKD
ROOT
HETATM    1  C   UNL     1      -9.354  10.580  62.570  1.00  0.00    -0.319 C  
HETATM    2  C   UNL     1     -10.043  11.747  63.253  1.00  0.00    -0.420 C  
ENDROOT
BRANCH   2   3
HETATM    3  O   UNL     1     -11.138  11.223  64.015  1.00  0.00    -0.372 OA 
BRANCH   3   4
HETATM    4  C   UNL     1     -12.246  12.016  64.032  1.00  0.00    -0.403 C  
HETATM    5  O   UNL     1     -13.155  11.975  63.217  1.00  0.00    -0.701 OA 
BRANCH   4   6
HETATM    6  C   UNL     1     -12.217  12.881  65.266  1.00  0.00    -0.524 C  
BRANCH   6   7
HETATM    7  C   UNL     1     -12.249  14.357  64.885  1.00  0.00    -0.440 C  
BRANCH   7   8
HETATM    8  C   UNL     1     -10.867  14.995  64.959  1.00  0.00    -0.439 C  
BRANCH   8   9
HETATM    9  C   UNL     1     -10.722  15.778  66.262  1.00  0.00    -0.282 C  
BRANCH   9  10
HETATM   10  C   UNL     1      -9.794  15.065  67.237  1.00  0.00    -0.228 C  
BRANCH  10  11
HETATM   11  C   UNL     1     -10.575  14.478  68.412  1.00  0.00    -0.244 C  
BRANCH  11  12
HETATM   12  C   UNL     1     -10.405  12.963  68.455  1.00  0.00    -0.249 C  
BRANCH  12  13
HETATM   13  C   UNL     1      -9.195  12.495  67.643  1.00  0.00    -0.190 C  
HETATM   14  C   UNL     1      -8.990  10.967  67.724  1.00  0.00    -0.140 C  
HETATM   15  C   UNL     1      -7.677  10.567  67.053  1.00  0.00    -0.110 A  
HETATM   16  C   UNL     1     -10.203  10.198  67.171  1.00  0.00    -0.278 C  
HETATM   17  C   UNL     1      -7.663  10.285  65.670  1.00  0.00    -0.148 A  
HETATM   18  C   UNL     1      -6.500   9.871  65.018  1.00  0.00    -0.106 A  
HETATM   19  C   UNL     1      -5.313   9.747  65.727  1.00  0.00    -0.044 A  
HETATM   20  C   UNL     1      -5.286  10.058  67.083  1.00  0.00    -0.041 A  
HETATM   21  C   UNL     1      -6.452  10.471  67.745  1.00  0.00    -0.060 A  
HETATM   22  I   UNL     1      -6.219  10.936  69.788  1.00  0.00    -0.142 I  
ENDBRANCH  12  13
ENDBRANCH  11  12
ENDBRANCH  10  11
ENDBRANCH   9  10
ENDBRANCH   8   9
ENDBRANCH   7   8
ENDBRANCH   6   7
ENDBRANCH   4   6
ENDBRANCH   3   4
ENDBRANCH   2   3
TORSDOF 10
ENDMDL
MODEL      143
REMARK 921   NORMALIZED FREE ENERGY PREDICTED BY IDOCK:   -3.88 KCAL/MOL
REMARK 922        TOTAL FREE ENERGY PREDICTED BY IDOCK:   -7.55 KCAL/MOL
REMARK 923 INTER-LIGAND FREE ENERGY PREDICTED BY IDOCK:   -6.40 KCAL/MOL
REMARK 924 INTRA-LIGAND FREE ENERGY PREDICTED BY IDOCK:   -1.16 KCAL/MOL
REMARK 927      BINDING AFFINITY PREDICTED BY RF-SCORE:    0.00 PKD
ROOT
HETATM    1  C   UNL     1     -10.067  16.484  69.038  1.00  0.00    -0.279 C  
HETATM    2  C   UNL     1     -10.435  15.843  67.712  1.00  0.00    -0.287 C  
ENDROOT
BRANCH   2   3
HETATM    3  O   UNL     1     -11.729  15.246  67.860  1.00  0.00    -0.328 OA 
BRANCH   3   4
HETATM    4  C   UNL     1     -11.708  13.912  68.142  1.00  0.00    -0.353 C  
HETATM    5  O   UNL     1     -11.661  13.429  69.264  1.00  0.00    -0.289 OA 
BRANCH   4   6
HETATM    6  C   UNL     1     -11.847  13.133  66.860  1.00  0.00    -0.444 C  
BRANCH   6   7
HETATM    7  C   UNL     1     -12.584  13.957  65.811  1.00  0.00    -0.533 C  
BRANCH   7   8
HETATM    8  C   UNL     1     -11.936  13.842  64.436  1.00  0.00    -0.480 C  
BRANCH   8   9
HETATM    9  C   UNL     1     -10.494  13.357  64.576  1.00  0.00    -0.431 C  
BRANCH   9  10
HETATM   10  C   UNL     1     -10.204  12.200  63.630  1.00  0.00    -0.459 C  
BRANCH  10  11
HETATM   11  C   UNL     1     -10.572  10.861  64.268  1.00  0.00    -0.336 C  
BRANCH  11  12
HETATM   12  C   UNL     1      -9.413  10.341  65.112  1.00  0.00    -0.309 C  
BRANCH  12  13
HETATM   13  C   UNL     1      -9.877   9.338  66.172  1.00  0.00    -0.363 C  
HETATM   14  C   UNL     1      -9.142   9.524  67.516  1.00  0.00    -0.142 C  
HETATM   15  C   UNL     1      -9.501   8.397  68.483  1.00  0.00    -0.149 A  
HETATM   16  C   UNL     1      -9.387  10.922  68.111  1.00  0.00    -0.165 C  
HETATM   17  C   UNL     1     -10.629   8.533  69.319  1.00  0.00    -0.193 A  
HETATM   18  C   UNL     1     -10.974   7.553  70.252  1.00  0.00    -0.264 A  
HETATM   19  C   UNL     1     -10.211   6.398  70.360  1.00  0.00    -0.233 A  
HETATM   20  C   UNL     1      -9.116   6.216  69.520  1.00  0.00    -0.140 A  
HETATM   21  C   UNL     1      -8.763   7.199  68.584  1.00  0.00    -0.127 A  
HETATM   22  I   UNL     1      -7.101   6.740  67.370  1.00  0.00    -0.090 I  
ENDBRANCH  12  13
ENDBRANCH  11  12
ENDBRANCH  10  11
ENDBRANCH   9  10
ENDBRANCH   8   9
ENDBRANCH   7   8
ENDBRANCH   6   7
ENDBRANCH   4   6
ENDBRANCH   3   4
ENDBRANCH   2   3
TORSDOF 10
ENDMDL
MODEL      144
REMARK 921   NORMALIZED FREE ENERGY PREDICTED BY IDOCK:   -3.88 KCAL/MOL
REMARK 922        TOTAL FREE ENERGY PREDICTED BY IDOCK:   -7.55 KCAL/MOL
REMARK 923 INTER-LIGAND FREE ENERGY PREDICTED BY IDOCK:   -6.49 KCAL/MOL
REMARK 924 INTRA-LIGAND FREE ENERGY PREDICTED BY IDOCK:   -1.06 KCAL/MOL
REMARK 927      BINDING AFFINITY PREDICTED BY RF-SCORE:    0.00 PKD
ROOT
HETATM    1  C   UNL     1      -9.473   9.160  65.677  1.00  0.00    -0.309 C  
HETATM    2  C   UNL     1      -8.829   8.360  66.794  1.00  0.00    -0.138 C  
ENDROOT
BRANCH   2   3
HETATM    3  O   UNL     1      -9.792   8.226  67.847  1.00  0.00    -0.156 OA 
BRANCH   3   4
HETATM    4  C   UNL     1      -9.704   9.178  68.818  1.00  0.00    -0.162 C  
HETATM    5  O   UNL     1      -8.716   9.398  69.504  1.00  0.00    -0.139 OA 
BRANCH   4   6
HETATM    6  C   UNL     1     -10.982   9.977  68.845  1.00  0.00    -0.244 C  
BRANCH   6   7
HETATM    7  C   UNL     1     -10.705  11.438  68.511  1.00  0.00    -0.235 C  
BRANCH   7   8
HETATM    8  C   UNL     1     -11.783  12.031  67.610  1.00  0.00    -0.365 C  
BRANCH   8   9
HETATM    9  C   UNL     1     -11.369  11.905  66.145  1.00  0.00    -0.383 C  
BRANCH   9  10
HETATM   10  C   UNL     1     -12.147  12.873  65.264  1.00  0.00    -0.496 C  
BRANCH  10  11
HETATM   11  C   UNL     1     -11.206  13.823  64.526  1.00  0.00    -0.381 C  
BRANCH  11  12
HETATM   12  C   UNL     1     -11.398  15.252  65.025  1.00  0.00    -0.359 C  
BRANCH  12  13
HETATM   13  C   UNL     1     -10.150  15.788  65.731  1.00  0.00    -0.399 C  
HETATM   14  C   UNL     1     -10.475  16.402  67.109  1.00  0.00    -0.297 C  
HETATM   15  C   UNL     1      -9.240  17.082  67.697  1.00  0.00    -0.233 A  
HETATM   16  C   UNL     1     -11.097  15.366  68.063  1.00  0.00    -0.312 C  
HETATM   17  C   UNL     1      -8.338  16.328  68.478  1.00  0.00    -0.204 A  
HETATM   18  C   UNL     1      -7.219  16.912  69.075  1.00  0.00    -0.232 A  
HETATM   19  C   UNL     1      -6.959  18.263  68.891  1.00  0.00    -0.289 A  
HETATM   20  C   UNL     1      -7.807  19.024  68.092  1.00  0.00    -0.334 A  
HETATM   21  C   UNL     1      -8.935  18.443  67.492  1.00  0.00    -0.264 A  
HETATM   22  I   UNL     1     -10.086  19.735  66.286  1.00  0.00    -0.562 I  
ENDBRANCH  12  13
ENDBRANCH  11  12
ENDBRANCH  10  11
ENDBRANCH   9  10
ENDBRANCH   8   9
ENDBRANCH   7   8
ENDBRANCH   6   7
ENDBRANCH   4   6
ENDBRANCH   3   4
ENDBRANCH   2   3
TORSDOF 10
ENDMDL
MODEL      145
REMARK 921   NORMALIZED FREE ENERGY PREDICTED BY IDOCK:   -3.88 KCAL/MOL
REMARK 922        TOTAL FREE ENERGY PREDICTED BY IDOCK:   -7.55 KCAL/MOL
REMARK 923 INTER-LIGAND FREE ENERGY PREDICTED BY IDOCK:   -5.77 KCAL/MOL
REMARK 924 INTRA-LIGAND FREE ENERGY PREDICTED BY IDOCK:   -1.78 KCAL/MOL
REMARK 927      BINDING AFFINITY PREDICTED BY RF-SCORE:    0.00 PKD
ROOT
HETATM    1  C   UNL     1      -7.106   8.442  69.175  1.00  0.00    -0.064 C  
HETATM    2  C   UNL     1      -7.498   9.299  70.365  1.00  0.00    -0.121 C  
ENDROOT
BRANCH   2   3
HETATM    3  O   UNL     1      -8.791   9.855  70.097  1.00  0.00    -0.206 OA 
BRANCH   3   4
HETATM    4  C   UNL     1      -9.800   9.325  70.845  1.00  0.00    -0.293 C  
HETATM    5  O   UNL     1      -9.746   9.104  72.046  1.00  0.00    -0.283 OA 
BRANCH   4   6
HETATM    6  C   UNL     1     -11.019   9.147  69.977  1.00  0.00    -0.240 C  
BRANCH   6   7
HETATM    7  C   UNL     1     -10.680   9.426  68.517  1.00  0.00    -0.203 C  
BRANCH   7   8
HETATM    8  C   UNL     1     -10.598   8.145  67.695  1.00  0.00    -0.258 C  
BRANCH   8   9
HETATM    9  C   UNL     1      -9.729   8.371  66.459  1.00  0.00    -0.330 C  
BRANCH   9  10
HETATM   10  C   UNL     1      -9.547   9.856  66.175  1.00  0.00    -0.275 C  
BRANCH  10  11
HETATM   11  C   UNL     1      -9.811  10.172  64.703  1.00  0.00    -0.361 C  
BRANCH  11  12
HETATM   12  C   UNL     1     -10.890  11.242  64.577  1.00  0.00    -0.354 C  
BRANCH  12  13
HETATM   13  C   UNL     1     -11.068  12.037  65.873  1.00  0.00    -0.369 C  
HETATM   14  C   UNL     1     -10.441  13.445  65.787  1.00  0.00    -0.291 C  
HETATM   15  C   UNL     1     -10.482  14.133  67.151  1.00  0.00    -0.270 A  
HETATM   16  C   UNL     1     -11.086  14.289  64.674  1.00  0.00    -0.371 C  
HETATM   17  C   UNL     1     -11.617  14.887  67.514  1.00  0.00    -0.355 A  
HETATM   18  C   UNL     1     -11.684  15.572  68.729  1.00  0.00    -0.372 A  
HETATM   19  C   UNL     1     -10.626  15.504  69.625  1.00  0.00    -0.285 A  
HETATM   20  C   UNL     1      -9.510  14.734  69.312  1.00  0.00    -0.061 A  
HETATM   21  C   UNL     1      -9.434  14.047  68.092  1.00  0.00    -0.215 A  
HETATM   22  I   UNL     1      -7.688  12.901  67.803  1.00  0.00    -0.192 I  
ENDBRANCH  12  13
ENDBRANCH  11  12
ENDBRANCH  10  11
ENDBRANCH   9  10
ENDBRANCH   8   9
ENDBRANCH   7   8
ENDBRANCH   6   7
ENDBRANCH   4   6
ENDBRANCH   3   4
ENDBRANCH   2   3
TORSDOF 10
ENDMDL
MODEL      146
REMARK 921   NORMALIZED FREE ENERGY PREDICTED BY IDOCK:   -3.87 KCAL/MOL
REMARK 922        TOTAL FREE ENERGY PREDICTED BY IDOCK:   -7.54 KCAL/MOL
REMARK 923 INTER-LIGAND FREE ENERGY PREDICTED BY IDOCK:   -6.30 KCAL/MOL
REMARK 924 INTRA-LIGAND FREE ENERGY PREDICTED BY IDOCK:   -1.24 KCAL/MOL
REMARK 927      BINDING AFFINITY PREDICTED BY RF-SCORE:    0.00 PKD
ROOT
HETATM    1  C   UNL     1      -9.272   7.922  73.257  1.00  0.00    -0.346 C  
HETATM    2  C   UNL     1     -10.166   8.352  72.108  1.00  0.00    -0.320 C  
ENDROOT
BRANCH   2   3
HETATM    3  O   UNL     1     -11.526   8.238  72.545  1.00  0.00    -0.378 OA 
BRANCH   3   4
HETATM    4  C   UNL     1     -12.363   9.189  72.042  1.00  0.00    -0.377 C  
HETATM    5  O   UNL     1     -13.495   9.415  72.444  1.00  0.00    -0.457 OA 
BRANCH   4   6
HETATM    6  C   UNL     1     -11.638   9.975  70.981  1.00  0.00    -0.476 C  
BRANCH   6   7
HETATM    7  C   UNL     1     -12.333  11.310  70.737  1.00  0.00    -0.495 C  
BRANCH   7   8
HETATM    8  C   UNL     1     -11.912  11.939  69.414  1.00  0.00    -0.350 C  
BRANCH   8   9
HETATM    9  C   UNL     1     -11.782  13.452  69.572  1.00  0.00    -0.385 C  
BRANCH   9  10
HETATM   10  C   UNL     1     -11.404  14.116  68.254  1.00  0.00    -0.319 C  
BRANCH  10  11
HETATM   11  C   UNL     1     -11.930  13.315  67.063  1.00  0.00    -0.419 C  
BRANCH  11  12
HETATM   12  C   UNL     1     -10.771  12.838  66.194  1.00  0.00    -0.297 C  
BRANCH  12  13
HETATM   13  C   UNL     1     -10.553  11.327  66.302  1.00  0.00    -0.315 C  
HETATM   14  C   UNL     1      -9.100  10.970  66.682  1.00  0.00    -0.177 C  
HETATM   15  C   UNL     1      -8.881   9.460  66.604  1.00  0.00    -0.151 A  
HETATM   16  C   UNL     1      -8.705  11.561  68.047  1.00  0.00    -0.151 C  
HETATM   17  C   UNL     1      -9.152   8.661  67.734  1.00  0.00    -0.143 A  
HETATM   18  C   UNL     1      -8.925   7.283  67.729  1.00  0.00    -0.126 A  
HETATM   19  C   UNL     1      -8.441   6.662  66.586  1.00  0.00    -0.120 A  
HETATM   20  C   UNL     1      -8.204   7.418  65.442  1.00  0.00    -0.135 A  
HETATM   21  C   UNL     1      -8.426   8.803  65.442  1.00  0.00    -0.170 A  
HETATM   22  I   UNL     1      -8.049   9.782  63.612  1.00  0.00    -0.190 I  
ENDBRANCH  12  13
ENDBRANCH  11  12
ENDBRANCH  10  11
ENDBRANCH   9  10
ENDBRANCH   8   9
ENDBRANCH   7   8
ENDBRANCH   6   7
ENDBRANCH   4   6
ENDBRANCH   3   4
ENDBRANCH   2   3
TORSDOF 10
ENDMDL
MODEL      147
REMARK 921   NORMALIZED FREE ENERGY PREDICTED BY IDOCK:   -3.86 KCAL/MOL
REMARK 922        TOTAL FREE ENERGY PREDICTED BY IDOCK:   -7.52 KCAL/MOL
REMARK 923 INTER-LIGAND FREE ENERGY PREDICTED BY IDOCK:   -6.24 KCAL/MOL
REMARK 924 INTRA-LIGAND FREE ENERGY PREDICTED BY IDOCK:   -1.29 KCAL/MOL
REMARK 927      BINDING AFFINITY PREDICTED BY RF-SCORE:    0.00 PKD
ROOT
HETATM    1  C   UNL     1      -9.018  19.500  67.320  1.00  0.00    -0.367 C  
HETATM    2  C   UNL     1      -9.947  18.317  67.112  1.00  0.00    -0.337 C  
ENDROOT
BRANCH   2   3
HETATM    3  O   UNL     1      -9.833  17.465  68.258  1.00  0.00    -0.280 OA 
BRANCH   3   4
HETATM    4  C   UNL     1      -8.882  16.494  68.149  1.00  0.00    -0.203 C  
HETATM    5  O   UNL     1      -7.773  16.534  68.660  1.00  0.00    -0.192 OA 
BRANCH   4   6
HETATM    6  C   UNL     1      -9.451  15.328  67.382  1.00  0.00    -0.200 C  
BRANCH   6   7
HETATM    7  C   UNL     1     -10.605  14.695  68.150  1.00  0.00    -0.237 C  
BRANCH   7   8
HETATM    8  C   UNL     1     -11.888  14.664  67.327  1.00  0.00    -0.375 C  
BRANCH   8   9
HETATM    9  C   UNL     1     -11.559  14.428  65.854  1.00  0.00    -0.361 C  
BRANCH   9  10
HETATM   10  C   UNL     1     -12.494  13.397  65.236  1.00  0.00    -0.532 C  
BRANCH  10  11
HETATM   11  C   UNL     1     -12.067  13.051  63.811  1.00  0.00    -0.574 C  
BRANCH  11  12
HETATM   12  C   UNL     1     -10.627  12.549  63.797  1.00  0.00    -0.471 C  
BRANCH  12  13
HETATM   13  C   UNL     1     -10.507  11.125  64.346  1.00  0.00    -0.418 C  
HETATM   14  C   UNL     1      -9.191  10.905  65.122  1.00  0.00    -0.240 C  
HETATM   15  C   UNL     1      -9.030   9.432  65.496  1.00  0.00    -0.248 A  
HETATM   16  C   UNL     1      -9.080  11.845  66.335  1.00  0.00    -0.208 C  
HETATM   17  C   UNL     1      -9.579   8.960  66.707  1.00  0.00    -0.262 A  
HETATM   18  C   UNL     1      -9.421   7.635  67.116  1.00  0.00    -0.196 A  
HETATM   19  C   UNL     1      -8.726   6.738  66.315  1.00  0.00    -0.152 A  
HETATM   20  C   UNL     1      -8.209   7.164  65.096  1.00  0.00    -0.114 A  
HETATM   21  C   UNL     1      -8.362   8.496  64.681  1.00  0.00    -0.146 A  
HETATM   22  I   UNL     1      -7.547   8.955  62.791  1.00  0.00    -0.125 I  
ENDBRANCH  12  13
ENDBRANCH  11  12
ENDBRANCH  10  11
ENDBRANCH   9  10
ENDBRANCH   8   9
ENDBRANCH   7   8
ENDBRANCH   6   7
ENDBRANCH   4   6
ENDBRANCH   3   4
ENDBRANCH   2   3
TORSDOF 10
ENDMDL
MODEL      148
REMARK 921   NORMALIZED FREE ENERGY PREDICTED BY IDOCK:   -3.86 KCAL/MOL
REMARK 922        TOTAL FREE ENERGY PREDICTED BY IDOCK:   -7.51 KCAL/MOL
REMARK 923 INTER-LIGAND FREE ENERGY PREDICTED BY IDOCK:   -6.34 KCAL/MOL
REMARK 924 INTRA-LIGAND FREE ENERGY PREDICTED BY IDOCK:   -1.17 KCAL/MOL
REMARK 927      BINDING AFFINITY PREDICTED BY RF-SCORE:    0.00 PKD
ROOT
HETATM    1  C   UNL     1      -9.146   7.610  73.654  1.00  0.00    -0.327 C  
HETATM    2  C   UNL     1     -10.314   6.829  74.227  1.00  0.00    -0.203 C  
ENDROOT
BRANCH   2   3
HETATM    3  O   UNL     1     -10.168   5.463  73.820  1.00  0.00    -0.185 OA 
BRANCH   3   4
HETATM    4  C   UNL     1     -10.909   5.115  72.730  1.00  0.00    -0.258 C  
HETATM    5  O   UNL     1     -12.099   5.351  72.582  1.00  0.00    -0.169 OA 
BRANCH   4   6
HETATM    6  C   UNL     1     -10.009   4.482  71.700  1.00  0.00    -0.266 C  
BRANCH   6   7
HETATM    7  C   UNL     1     -10.250   5.101  70.328  1.00  0.00    -0.342 C  
BRANCH   7   8
HETATM    8  C   UNL     1      -9.736   6.533  70.249  1.00  0.00    -0.181 C  
BRANCH   8   9
HETATM    9  C   UNL     1     -10.906   7.502  70.095  1.00  0.00    -0.259 C  
BRANCH   9  10
HETATM   10  C   UNL     1     -10.513   8.719  69.268  1.00  0.00    -0.228 C  
BRANCH  10  11
HETATM   11  C   UNL     1      -9.013   8.722  68.972  1.00  0.00    -0.137 C  
BRANCH  11  12
HETATM   12  C   UNL     1      -8.767   8.490  67.485  1.00  0.00    -0.135 C  
BRANCH  12  13
HETATM   13  C   UNL     1      -9.810   9.193  66.612  1.00  0.00    -0.307 C  
HETATM   14  C   UNL     1      -9.359  10.606  66.184  1.00  0.00    -0.207 C  
HETATM   15  C   UNL     1     -10.495  11.337  65.470  1.00  0.00    -0.323 A  
HETATM   16  C   UNL     1      -8.062  10.565  65.357  1.00  0.00    -0.141 C  
HETATM   17  C   UNL     1     -10.646  11.190  64.075  1.00  0.00    -0.436 A  
HETATM   18  C   UNL     1     -11.639  11.872  63.369  1.00  0.00    -0.477 A  
HETATM   19  C   UNL     1     -12.522  12.705  64.043  1.00  0.00    -0.487 A  
HETATM   20  C   UNL     1     -12.424  12.838  65.424  1.00  0.00    -0.478 A  
HETATM   21  C   UNL     1     -11.427  12.158  66.139  1.00  0.00    -0.371 A  
HETATM   22  I   UNL     1     -11.450  12.448  68.227  1.00  0.00    -0.417 I  
ENDBRANCH  12  13
ENDBRANCH  11  12
ENDBRANCH  10  11
ENDBRANCH   9  10
ENDBRANCH   8   9
ENDBRANCH   7   8
ENDBRANCH   6   7
ENDBRANCH   4   6
ENDBRANCH   3   4
ENDBRANCH   2   3
TORSDOF 10
ENDMDL
MODEL      149
REMARK 921   NORMALIZED FREE ENERGY PREDICTED BY IDOCK:   -3.85 KCAL/MOL
REMARK 922        TOTAL FREE ENERGY PREDICTED BY IDOCK:   -7.50 KCAL/MOL
REMARK 923 INTER-LIGAND FREE ENERGY PREDICTED BY IDOCK:   -6.80 KCAL/MOL
REMARK 924 INTRA-LIGAND FREE ENERGY PREDICTED BY IDOCK:   -0.70 KCAL/MOL
REMARK 927      BINDING AFFINITY PREDICTED BY RF-SCORE:    0.00 PKD
ROOT
HETATM    1  C   UNL     1      -9.915  20.409  67.299  1.00  0.00    -0.564 C  
HETATM    2  C   UNL     1      -9.164  19.740  68.435  1.00  0.00    -0.297 C  
ENDROOT
BRANCH   2   3
HETATM    3  O   UNL     1      -7.839  20.284  68.465  1.00  0.00    -0.095 OA 
BRANCH   3   4
HETATM    4  C   UNL     1      -7.002  19.785  67.512  1.00  0.00    -0.233 C  
HETATM    5  O   UNL     1      -6.953  20.160  66.349  1.00  0.00    -0.227 OA 
BRANCH   4   6
HETATM    6  C   UNL     1      -6.084  18.769  68.141  1.00  0.00    -0.217 C  
BRANCH   6   7
HETATM    7  C   UNL     1      -6.698  17.376  68.066  1.00  0.00    -0.181 C  
BRANCH   7   8
HETATM    8  C   UNL     1      -6.933  16.933  66.627  1.00  0.00    -0.281 C  
BRANCH   8   9
HETATM    9  C   UNL     1      -8.425  16.710  66.386  1.00  0.00    -0.348 C  
BRANCH   9  10
HETATM   10  C   UNL     1      -9.150  16.366  67.680  1.00  0.00    -0.198 C  
BRANCH  10  11
HETATM   11  C   UNL     1     -10.660  16.549  67.531  1.00  0.00    -0.313 C  
BRANCH  11  12
HETATM   12  C   UNL     1     -11.400  15.383  68.178  1.00  0.00    -0.353 C  
BRANCH  12  13
HETATM   13  C   UNL     1     -10.758  14.035  67.842  1.00  0.00    -0.246 C  
HETATM   14  C   UNL     1     -11.767  13.044  67.223  1.00  0.00    -0.429 C  
HETATM   15  C   UNL     1     -11.134  11.662  67.069  1.00  0.00    -0.359 A  
HETATM   16  C   UNL     1     -12.358  13.579  65.906  1.00  0.00    -0.507 C  
HETATM   17  C   UNL     1     -10.423  11.351  65.891  1.00  0.00    -0.309 A  
HETATM   18  C   UNL     1      -9.866  10.088  65.683  1.00  0.00    -0.363 A  
HETATM   19  C   UNL     1      -9.986   9.106  66.657  1.00  0.00    -0.343 A  
HETATM   20  C   UNL     1     -10.645   9.396  67.847  1.00  0.00    -0.293 A  
HETATM   21  C   UNL     1     -11.211  10.662  68.061  1.00  0.00    -0.307 A  
HETATM   22  I   UNL     1     -12.139  10.936  69.935  1.00  0.00    -0.337 I  
ENDBRANCH  12  13
ENDBRANCH  11  12
ENDBRANCH  10  11
ENDBRANCH   9  10
ENDBRANCH   8   9
ENDBRANCH   7   8
ENDBRANCH   6   7
ENDBRANCH   4   6
ENDBRANCH   3   4
ENDBRANCH   2   3
TORSDOF 10
ENDMDL
MODEL      150
REMARK 921   NORMALIZED FREE ENERGY PREDICTED BY IDOCK:   -3.84 KCAL/MOL
REMARK 922        TOTAL FREE ENERGY PREDICTED BY IDOCK:   -7.49 KCAL/MOL
REMARK 923 INTER-LIGAND FREE ENERGY PREDICTED BY IDOCK:   -6.55 KCAL/MOL
REMARK 924 INTRA-LIGAND FREE ENERGY PREDICTED BY IDOCK:   -0.94 KCAL/MOL
REMARK 927      BINDING AFFINITY PREDICTED BY RF-SCORE:    0.00 PKD
ROOT
HETATM    1  C   UNL     1      -5.372  17.991  69.116  1.00  0.00    -0.196 C  
HETATM    2  C   UNL     1      -6.812  18.420  69.330  1.00  0.00    -0.205 C  
ENDROOT
BRANCH   2   3
HETATM    3  O   UNL     1      -6.967  19.729  68.768  1.00  0.00    -0.315 OA 
BRANCH   3   4
HETATM    4  C   UNL     1      -7.760  19.779  67.660  1.00  0.00    -0.282 C  
HETATM    5  O   UNL     1      -7.460  20.310  66.601  1.00  0.00    -0.273 OA 
BRANCH   4   6
HETATM    6  C   UNL     1      -9.020  18.995  67.918  1.00  0.00    -0.338 C  
BRANCH   6   7
HETATM    7  C   UNL     1      -9.518  18.345  66.632  1.00  0.00    -0.313 C  
BRANCH   7   8
HETATM    8  C   UNL     1     -10.278  17.052  66.905  1.00  0.00    -0.305 C  
BRANCH   8   9
HETATM    9  C   UNL     1      -9.319  15.978  67.415  1.00  0.00    -0.220 C  
BRANCH   9  10
HETATM   10  C   UNL     1     -10.003  15.053  68.412  1.00  0.00    -0.225 C  
BRANCH  10  11
HETATM   11  C   UNL     1     -11.524  15.138  68.288  1.00  0.00    -0.350 C  
BRANCH  11  12
HETATM   12  C   UNL     1     -12.147  13.756  68.456  1.00  0.00    -0.327 C  
BRANCH  12  13
HETATM   13  C   UNL     1     -11.232  12.802  69.228  1.00  0.00    -0.252 C  
HETATM   14  C   UNL     1     -11.405  11.334  68.783  1.00  0.00    -0.335 C  
HETATM   15  C   UNL     1     -10.612  10.400  69.695  1.00  0.00    -0.289 A  
HETATM   16  C   UNL     1     -11.066  11.146  67.293  1.00  0.00    -0.366 C  
HETATM   17  C   UNL     1      -9.264  10.114  69.391  1.00  0.00    -0.229 A  
HETATM   18  C   UNL     1      -8.509   9.232  70.166  1.00  0.00    -0.206 A  
HETATM   19  C   UNL     1      -9.075   8.626  71.280  1.00  0.00    -0.272 A  
HETATM   20  C   UNL     1     -10.390   8.921  71.629  1.00  0.00    -0.416 A  
HETATM   21  C   UNL     1     -11.155   9.803  70.852  1.00  0.00    -0.357 A  
HETATM   22  I   UNL     1     -13.112  10.161  71.548  1.00  0.00    -0.476 I  
ENDBRANCH  12  13
ENDBRANCH  11  12
ENDBRANCH  10  11
ENDBRANCH   9  10
ENDBRANCH   8   9
ENDBRANCH   7   8
ENDBRANCH   6   7
ENDBRANCH   4   6
ENDBRANCH   3   4
ENDBRANCH   2   3
TORSDOF 10
ENDMDL
MODEL      151
REMARK 921   NORMALIZED FREE ENERGY PREDICTED BY IDOCK:   -3.84 KCAL/MOL
REMARK 922        TOTAL FREE ENERGY PREDICTED BY IDOCK:   -7.48 KCAL/MOL
REMARK 923 INTER-LIGAND FREE ENERGY PREDICTED BY IDOCK:   -6.32 KCAL/MOL
REMARK 924 INTRA-LIGAND FREE ENERGY PREDICTED BY IDOCK:   -1.16 KCAL/MOL
REMARK 927      BINDING AFFINITY PREDICTED BY RF-SCORE:    0.00 PKD
ROOT
HETATM    1  C   UNL     1      -6.013   4.517  65.201  1.00  0.00    -0.022 C  
HETATM    2  C   UNL     1      -7.071   5.421  64.595  1.00  0.00    -0.054 C  
ENDROOT
BRANCH   2   3
HETATM    3  O   UNL     1      -7.992   5.773  65.635  1.00  0.00    -0.106 OA 
BRANCH   3   4
HETATM    4  C   UNL     1      -9.226   5.207  65.514  1.00  0.00    -0.136 C  
HETATM    5  O   UNL     1      -9.583   4.483  64.595  1.00  0.00    -0.146 OA 
BRANCH   4   6
HETATM    6  C   UNL     1     -10.045   5.535  66.735  1.00  0.00    -0.242 C  
BRANCH   6   7
HETATM    7  C   UNL     1      -9.218   5.338  68.001  1.00  0.00    -0.125 C  
BRANCH   7   8
HETATM    8  C   UNL     1      -9.096   6.624  68.809  1.00  0.00    -0.131 C  
BRANCH   8   9
HETATM    9  C   UNL     1      -9.062   6.303  70.302  1.00  0.00    -0.156 C  
BRANCH   9  10
HETATM   10  C   UNL     1     -10.296   5.518  70.728  1.00  0.00    -0.321 C  
BRANCH  10  11
HETATM   11  C   UNL     1     -11.533   6.413  70.767  1.00  0.00    -0.415 C  
BRANCH  11  12
HETATM   12  C   UNL     1     -11.704   7.018  72.158  1.00  0.00    -0.321 C  
BRANCH  12  13
HETATM   13  C   UNL     1     -11.701   8.548  72.125  1.00  0.00    -0.448 C  
HETATM   14  C   UNL     1     -12.817   9.117  71.222  1.00  0.00    -0.323 C  
HETATM   15  C   UNL     1     -12.667  10.630  71.075  1.00  0.00    -0.512 A  
HETATM   16  C   UNL     1     -14.215   8.699  71.710  1.00  0.00    -0.490 C  
HETATM   17  C   UNL     1     -13.282  11.482  72.016  1.00  0.00    -0.443 A  
HETATM   18  C   UNL     1     -13.214  12.872  71.900  1.00  0.00    -0.521 A  
HETATM   19  C   UNL     1     -12.511  13.449  70.851  1.00  0.00    -0.439 A  
HETATM   20  C   UNL     1     -11.859  12.634  69.931  1.00  0.00    -0.364 A  
HETATM   21  C   UNL     1     -11.927  11.237  70.039  1.00  0.00    -0.368 A  
HETATM   22  I   UNL     1     -10.850  10.161  68.580  1.00  0.00    -0.239 I  
ENDBRANCH  12  13
ENDBRANCH  11  12
ENDBRANCH  10  11
ENDBRANCH   9  10
ENDBRANCH   8   9
ENDBRANCH   7   8
ENDBRANCH   6   7
ENDBRANCH   4   6
ENDBRANCH   3   4
ENDBRANCH   2   3
TORSDOF 10
ENDMDL
MODEL      152
REMARK 921   NORMALIZED FREE ENERGY PREDICTED BY IDOCK:   -3.82 KCAL/MOL
REMARK 922        TOTAL FREE ENERGY PREDICTED BY IDOCK:   -7.45 KCAL/MOL
REMARK 923 INTER-LIGAND FREE ENERGY PREDICTED BY IDOCK:   -6.55 KCAL/MOL
REMARK 924 INTRA-LIGAND FREE ENERGY PREDICTED BY IDOCK:   -0.90 KCAL/MOL
REMARK 927      BINDING AFFINITY PREDICTED BY RF-SCORE:    0.00 PKD
ROOT
HETATM    1  C   UNL     1      -9.916  20.217  66.512  1.00  0.00    -0.586 C  
HETATM    2  C   UNL     1     -10.090  20.040  68.009  1.00  0.00    -0.420 C  
ENDROOT
BRANCH   2   3
HETATM    3  O   UNL     1     -10.191  18.635  68.275  1.00  0.00    -0.367 OA 
BRANCH   3   4
HETATM    4  C   UNL     1      -8.993  17.994  68.392  1.00  0.00    -0.279 C  
HETATM    5  O   UNL     1      -7.996  18.455  68.927  1.00  0.00    -0.282 OA 
BRANCH   4   6
HETATM    6  C   UNL     1      -9.125  16.597  67.844  1.00  0.00    -0.218 C  
BRANCH   6   7
HETATM    7  C   UNL     1     -10.590  16.250  67.609  1.00  0.00    -0.311 C  
BRANCH   7   8
HETATM    8  C   UNL     1     -10.837  14.747  67.664  1.00  0.00    -0.285 C  
BRANCH   8   9
HETATM    9  C   UNL     1      -9.812  14.082  68.580  1.00  0.00    -0.191 C  
BRANCH   9  10
HETATM   10  C   UNL     1      -9.074  12.960  67.863  1.00  0.00    -0.201 C  
BRANCH  10  11
HETATM   11  C   UNL     1      -9.995  12.231  66.885  1.00  0.00    -0.223 C  
BRANCH  11  12
HETATM   12  C   UNL     1      -9.737  10.729  66.935  1.00  0.00    -0.209 C  
BRANCH  12  13
HETATM   13  C   UNL     1     -10.569  10.036  68.017  1.00  0.00    -0.280 C  
HETATM   14  C   UNL     1      -9.699   9.198  68.978  1.00  0.00    -0.166 C  
HETATM   15  C   UNL     1     -10.579   8.386  69.927  1.00  0.00    -0.228 A  
HETATM   16  C   UNL     1      -8.667  10.067  69.719  1.00  0.00    -0.198 C  
HETATM   17  C   UNL     1     -11.001   8.960  71.144  1.00  0.00    -0.356 A  
HETATM   18  C   UNL     1     -11.768   8.244  72.065  1.00  0.00    -0.407 A  
HETATM   19  C   UNL     1     -12.152   6.939  71.785  1.00  0.00    -0.385 A  
HETATM   20  C   UNL     1     -11.785   6.360  70.574  1.00  0.00    -0.385 A  
HETATM   21  C   UNL     1     -11.012   7.073  69.646  1.00  0.00    -0.236 A  
HETATM   22  I   UNL     1     -10.581   6.053  67.852  1.00  0.00    -0.333 I  
ENDBRANCH  12  13
ENDBRANCH  11  12
ENDBRANCH  10  11
ENDBRANCH   9  10
ENDBRANCH   8   9
ENDBRANCH   7   8
ENDBRANCH   6   7
ENDBRANCH   4   6
ENDBRANCH   3   4
ENDBRANCH   2   3
TORSDOF 10
ENDMDL
MODEL      153
REMARK 921   NORMALIZED FREE ENERGY PREDICTED BY IDOCK:   -3.80 KCAL/MOL
REMARK 922        TOTAL FREE ENERGY PREDICTED BY IDOCK:   -7.42 KCAL/MOL
REMARK 923 INTER-LIGAND FREE ENERGY PREDICTED BY IDOCK:   -6.10 KCAL/MOL
REMARK 924 INTRA-LIGAND FREE ENERGY PREDICTED BY IDOCK:   -1.32 KCAL/MOL
REMARK 927      BINDING AFFINITY PREDICTED BY RF-SCORE:    0.00 PKD
ROOT
HETATM    1  C   UNL     1     -12.941  10.202  71.844  1.00  0.00    -0.549 C  
HETATM    2  C   UNL     1     -13.542   8.858  71.476  1.00  0.00    -0.336 C  
ENDROOT
BRANCH   2   3
HETATM    3  O   UNL     1     -12.915   7.861  72.292  1.00  0.00    -0.222 OA 
BRANCH   3   4
HETATM    4  C   UNL     1     -12.160   6.959  71.602  1.00  0.00    -0.353 C  
HETATM    5  O   UNL     1     -12.273   6.710  70.411  1.00  0.00    -0.332 OA 
BRANCH   4   6
HETATM    6  C   UNL     1     -11.107   6.391  72.518  1.00  0.00    -0.298 C  
BRANCH   6   7
HETATM    7  C   UNL     1      -9.714   6.783  72.039  1.00  0.00    -0.159 C  
BRANCH   7   8
HETATM    8  C   UNL     1      -9.344   8.201  72.459  1.00  0.00    -0.329 C  
BRANCH   8   9
HETATM    9  C   UNL     1      -8.618   8.912  71.320  1.00  0.00    -0.259 C  
BRANCH   9  10
HETATM   10  C   UNL     1      -8.961   8.291  69.972  1.00  0.00    -0.142 C  
BRANCH  10  11
HETATM   11  C   UNL     1     -10.133   9.018  69.313  1.00  0.00    -0.197 C  
BRANCH  11  12
HETATM   12  C   UNL     1     -10.036  10.518  69.569  1.00  0.00    -0.208 C  
BRANCH  12  13
HETATM   13  C   UNL     1     -10.578  11.339  68.396  1.00  0.00    -0.226 C  
HETATM   14  C   UNL     1      -9.472  12.147  67.685  1.00  0.00    -0.187 C  
HETATM   15  C   UNL     1     -10.079  13.084  66.642  1.00  0.00    -0.251 A  
HETATM   16  C   UNL     1      -8.381  11.231  67.102  1.00  0.00    -0.151 C  
HETATM   17  C   UNL     1     -10.290  12.616  65.328  1.00  0.00    -0.309 A  
HETATM   18  C   UNL     1     -10.800  13.445  64.327  1.00  0.00    -0.383 A  
HETATM   19  C   UNL     1     -11.131  14.762  64.618  1.00  0.00    -0.337 A  
HETATM   20  C   UNL     1     -10.973  15.240  65.915  1.00  0.00    -0.325 A  
HETATM   21  C   UNL     1     -10.458  14.413  66.924  1.00  0.00    -0.269 A  
HETATM   22  I   UNL     1     -10.321  15.292  68.835  1.00  0.00    -0.278 I  
ENDBRANCH  12  13
ENDBRANCH  11  12
ENDBRANCH  10  11
ENDBRANCH   9  10
ENDBRANCH   8   9
ENDBRANCH   7   8
ENDBRANCH   6   7
ENDBRANCH   4   6
ENDBRANCH   3   4
ENDBRANCH   2   3
TORSDOF 10
ENDMDL
MODEL      154
REMARK 921   NORMALIZED FREE ENERGY PREDICTED BY IDOCK:   -3.80 KCAL/MOL
REMARK 922        TOTAL FREE ENERGY PREDICTED BY IDOCK:   -7.42 KCAL/MOL
REMARK 923 INTER-LIGAND FREE ENERGY PREDICTED BY IDOCK:   -6.49 KCAL/MOL
REMARK 924 INTRA-LIGAND FREE ENERGY PREDICTED BY IDOCK:   -0.92 KCAL/MOL
REMARK 927      BINDING AFFINITY PREDICTED BY RF-SCORE:    0.00 PKD
ROOT
HETATM    1  C   UNL     1      -7.518   8.506  63.134  1.00  0.00    -0.108 C  
HETATM    2  C   UNL     1      -8.776   9.319  63.378  1.00  0.00    -0.177 C  
ENDROOT
BRANCH   2   3
HETATM    3  O   UNL     1      -8.983   9.392  64.794  1.00  0.00    -0.201 OA 
BRANCH   3   4
HETATM    4  C   UNL     1      -9.983  10.236  65.177  1.00  0.00    -0.325 C  
HETATM    5  O   UNL     1     -10.713  10.854  64.417  1.00  0.00    -0.340 OA 
BRANCH   4   6
HETATM    6  C   UNL     1     -10.104  10.210  66.678  1.00  0.00    -0.283 C  
BRANCH   6   7
HETATM    7  C   UNL     1     -11.231  11.128  67.139  1.00  0.00    -0.320 C  
BRANCH   7   8
HETATM    8  C   UNL     1     -11.190  11.370  68.643  1.00  0.00    -0.303 C  
BRANCH   8   9
HETATM    9  C   UNL     1     -11.170  12.870  68.931  1.00  0.00    -0.327 C  
BRANCH   9  10
HETATM   10  C   UNL     1     -11.969  13.644  67.891  1.00  0.00    -0.382 C  
BRANCH  10  11
HETATM   11  C   UNL     1     -11.198  14.871  67.406  1.00  0.00    -0.343 C  
BRANCH  11  12
HETATM   12  C   UNL     1     -10.111  14.457  66.419  1.00  0.00    -0.294 C  
BRANCH  12  13
HETATM   13  C   UNL     1      -9.334  15.660  65.879  1.00  0.00    -0.357 C  
HETATM   14  C   UNL     1      -8.482  16.345  66.968  1.00  0.00    -0.226 C  
HETATM   15  C   UNL     1      -7.868  17.638  66.435  1.00  0.00    -0.318 A  
HETATM   16  C   UNL     1      -7.433  15.386  67.559  1.00  0.00    -0.215 C  
HETATM   17  C   UNL     1      -6.620  17.595  65.780  1.00  0.00    -0.164 A  
HETATM   18  C   UNL     1      -5.995  18.754  65.314  1.00  0.00    -0.297 A  
HETATM   19  C   UNL     1      -6.613  19.988  65.473  1.00  0.00    -0.298 A  
HETATM   20  C   UNL     1      -7.864  20.057  66.078  1.00  0.00    -0.307 A  
HETATM   21  C   UNL     1      -8.494  18.897  66.551  1.00  0.00    -0.304 A  
HETATM   22  I   UNL     1     -10.400  19.185  67.406  1.00  0.00    -0.606 I  
ENDBRANCH  12  13
ENDBRANCH  11  12
ENDBRANCH  10  11
ENDBRANCH   9  10
ENDBRANCH   8   9
ENDBRANCH   7   8
ENDBRANCH   6   7
ENDBRANCH   4   6
ENDBRANCH   3   4
ENDBRANCH   2   3
TORSDOF 10
ENDMDL
MODEL      155
REMARK 921   NORMALIZED FREE ENERGY PREDICTED BY IDOCK:   -3.80 KCAL/MOL
REMARK 922        TOTAL FREE ENERGY PREDICTED BY IDOCK:   -7.41 KCAL/MOL
REMARK 923 INTER-LIGAND FREE ENERGY PREDICTED BY IDOCK:   -6.63 KCAL/MOL
REMARK 924 INTRA-LIGAND FREE ENERGY PREDICTED BY IDOCK:   -0.79 KCAL/MOL
REMARK 927      BINDING AFFINITY PREDICTED BY RF-SCORE:    0.00 PKD
ROOT
HETATM    1  C   UNL     1     -10.453   5.746  73.352  1.00  0.00    -0.264 C  
HETATM    2  C   UNL     1     -10.603   6.248  71.927  1.00  0.00    -0.219 C  
ENDROOT
BRANCH   2   3
HETATM    3  O   UNL     1     -11.819   7.002  71.856  1.00  0.00    -0.281 OA 
BRANCH   3   4
HETATM    4  C   UNL     1     -11.682   8.326  72.150  1.00  0.00    -0.365 C  
HETATM    5  O   UNL     1     -10.618   8.908  72.299  1.00  0.00    -0.320 OA 
BRANCH   4   6
HETATM    6  C   UNL     1     -13.042   8.973  72.166  1.00  0.00    -0.496 C  
BRANCH   6   7
HETATM    7  C   UNL     1     -13.085  10.153  71.201  1.00  0.00    -0.480 C  
BRANCH   7   8
HETATM    8  C   UNL     1     -13.468  11.450  71.903  1.00  0.00    -0.280 C  
BRANCH   8   9
HETATM    9  C   UNL     1     -12.627  12.605  71.363  1.00  0.00    -0.304 C  
BRANCH   9  10
HETATM   10  C   UNL     1     -12.982  13.917  72.049  1.00  0.00    -0.438 C  
BRANCH  10  11
HETATM   11  C   UNL     1     -13.230  15.025  71.025  1.00  0.00    -0.483 C  
BRANCH  11  12
HETATM   12  C   UNL     1     -12.135  16.083  71.115  1.00  0.00    -0.406 C  
BRANCH  12  13
HETATM   13  C   UNL     1     -10.796  15.573  70.575  1.00  0.00    -0.353 C  
HETATM   14  C   UNL     1     -10.614  15.882  69.074  1.00  0.00    -0.247 C  
HETATM   15  C   UNL     1      -9.355  15.204  68.536  1.00  0.00    -0.192 A  
HETATM   16  C   UNL     1     -10.643  17.396  68.795  1.00  0.00    -0.283 C  
HETATM   17  C   UNL     1      -8.118  15.878  68.611  1.00  0.00    -0.162 A  
HETATM   18  C   UNL     1      -6.947  15.321  68.093  1.00  0.00    -0.133 A  
HETATM   19  C   UNL     1      -6.977  14.065  67.503  1.00  0.00    -0.167 A  
HETATM   20  C   UNL     1      -8.175  13.358  67.452  1.00  0.00    -0.188 A  
HETATM   21  C   UNL     1      -9.355  13.914  67.967  1.00  0.00    -0.204 A  
HETATM   22  I   UNL     1     -11.066  12.688  67.837  1.00  0.00    -0.366 I  
ENDBRANCH  12  13
ENDBRANCH  11  12
ENDBRANCH  10  11
ENDBRANCH   9  10
ENDBRANCH   8   9
ENDBRANCH   7   8
ENDBRANCH   6   7
ENDBRANCH   4   6
ENDBRANCH   3   4
ENDBRANCH   2   3
TORSDOF 10
ENDMDL
MODEL      156
REMARK 921   NORMALIZED FREE ENERGY PREDICTED BY IDOCK:   -3.79 KCAL/MOL
REMARK 922        TOTAL FREE ENERGY PREDICTED BY IDOCK:   -7.41 KCAL/MOL
REMARK 923 INTER-LIGAND FREE ENERGY PREDICTED BY IDOCK:   -6.18 KCAL/MOL
REMARK 924 INTRA-LIGAND FREE ENERGY PREDICTED BY IDOCK:   -1.22 KCAL/MOL
REMARK 927      BINDING AFFINITY PREDICTED BY RF-SCORE:    0.00 PKD
ROOT
HETATM    1  C   UNL     1     -11.153  11.922  63.334  1.00  0.00    -0.463 C  
HETATM    2  C   UNL     1     -12.357  12.833  63.490  1.00  0.00    -0.467 C  
ENDROOT
BRANCH   2   3
HETATM    3  O   UNL     1     -12.926  12.588  64.782  1.00  0.00    -0.827 OA 
BRANCH   3   4
HETATM    4  C   UNL     1     -12.422  13.368  65.780  1.00  0.00    -0.439 C  
HETATM    5  O   UNL     1     -12.313  13.034  66.950  1.00  0.00    -0.351 OA 
BRANCH   4   6
HETATM    6  C   UNL     1     -11.933  14.667  65.193  1.00  0.00    -0.334 C  
BRANCH   6   7
HETATM    7  C   UNL     1     -10.537  14.995  65.709  1.00  0.00    -0.351 C  
BRANCH   7   8
HETATM    8  C   UNL     1     -10.427  16.440  66.180  1.00  0.00    -0.321 C  
BRANCH   8   9
HETATM    9  C   UNL     1      -9.724  16.496  67.535  1.00  0.00    -0.242 C  
BRANCH   9  10
HETATM   10  C   UNL     1      -9.542  15.103  68.123  1.00  0.00    -0.205 C  
BRANCH  10  11
HETATM   11  C   UNL     1      -8.068  14.813  68.404  1.00  0.00    -0.144 C  
BRANCH  11  12
HETATM   12  C   UNL     1      -7.607  13.596  67.608  1.00  0.00    -0.186 C  
BRANCH  12  13
HETATM   13  C   UNL     1      -8.582  12.423  67.735  1.00  0.00    -0.172 C  
HETATM   14  C   UNL     1      -7.856  11.081  67.973  1.00  0.00    -0.112 C  
HETATM   15  C   UNL     1      -8.846   9.919  67.913  1.00  0.00    -0.129 A  
HETATM   16  C   UNL     1      -7.035  11.100  69.274  1.00  0.00    -0.118 C  
HETATM   17  C   UNL     1      -9.522   9.523  69.087  1.00  0.00    -0.163 A  
HETATM   18  C   UNL     1     -10.402   8.438  69.095  1.00  0.00    -0.229 A  
HETATM   19  C   UNL     1     -10.646   7.732  67.925  1.00  0.00    -0.221 A  
HETATM   20  C   UNL     1     -10.026   8.125  66.743  1.00  0.00    -0.349 A  
HETATM   21  C   UNL     1      -9.138   9.212  66.729  1.00  0.00    -0.144 A  
HETATM   22  I   UNL     1      -8.320   9.689  64.845  1.00  0.00    -0.213 I  
ENDBRANCH  12  13
ENDBRANCH  11  12
ENDBRANCH  10  11
ENDBRANCH   9  10
ENDBRANCH   8   9
ENDBRANCH   7   8
ENDBRANCH   6   7
ENDBRANCH   4   6
ENDBRANCH   3   4
ENDBRANCH   2   3
TORSDOF 10
ENDMDL
MODEL      157
REMARK 921   NORMALIZED FREE ENERGY PREDICTED BY IDOCK:   -3.79 KCAL/MOL
REMARK 922        TOTAL FREE ENERGY PREDICTED BY IDOCK:   -7.40 KCAL/MOL
REMARK 923 INTER-LIGAND FREE ENERGY PREDICTED BY IDOCK:   -6.28 KCAL/MOL
REMARK 924 INTRA-LIGAND FREE ENERGY PREDICTED BY IDOCK:   -1.13 KCAL/MOL
REMARK 927      BINDING AFFINITY PREDICTED BY RF-SCORE:    0.00 PKD
ROOT
HETATM    1  C   UNL     1     -12.147  13.106  64.207  1.00  0.00    -0.477 C  
HETATM    2  C   UNL     1     -12.574  13.990  65.364  1.00  0.00    -0.505 C  
ENDROOT
BRANCH   2   3
HETATM    3  O   UNL     1     -11.716  13.702  66.475  1.00  0.00    -0.345 OA 
BRANCH   3   4
HETATM    4  C   UNL     1     -11.498  14.757  67.310  1.00  0.00    -0.366 C  
HETATM    5  O   UNL     1     -12.007  14.902  68.412  1.00  0.00    -0.299 OA 
BRANCH   4   6
HETATM    6  C   UNL     1     -10.461  15.665  66.700  1.00  0.00    -0.301 C  
BRANCH   6   7
HETATM    7  C   UNL     1      -9.196  14.882  66.366  1.00  0.00    -0.317 C  
BRANCH   7   8
HETATM    8  C   UNL     1      -8.502  14.360  67.619  1.00  0.00    -0.191 C  
BRANCH   8   9
HETATM    9  C   UNL     1      -8.341  12.843  67.534  1.00  0.00    -0.183 C  
BRANCH   9  10
HETATM   10  C   UNL     1      -6.872  12.442  67.521  1.00  0.00    -0.143 C  
BRANCH  10  11
HETATM   11  C   UNL     1      -6.479  11.746  68.823  1.00  0.00    -0.066 C  
BRANCH  11  12
HETATM   12  C   UNL     1      -6.944  10.293  68.807  1.00  0.00    -0.067 C  
BRANCH  12  13
HETATM   13  C   UNL     1      -7.947   9.997  69.925  1.00  0.00    -0.184 C  
HETATM   14  C   UNL     1      -9.063   9.033  69.470  1.00  0.00    -0.151 C  
HETATM   15  C   UNL     1     -10.135   8.906  70.552  1.00  0.00    -0.248 A  
HETATM   16  C   UNL     1      -8.497   7.672  69.028  1.00  0.00    -0.132 C  
HETATM   17  C   UNL     1      -9.990   7.930  71.561  1.00  0.00    -0.214 A  
HETATM   18  C   UNL     1     -10.963   7.744  72.545  1.00  0.00    -0.395 A  
HETATM   19  C   UNL     1     -12.098   8.543  72.561  1.00  0.00    -0.395 A  
HETATM   20  C   UNL     1     -12.249   9.541  71.603  1.00  0.00    -0.477 A  
HETATM   21  C   UNL     1     -11.277   9.731  70.610  1.00  0.00    -0.334 A  
HETATM   22  I   UNL     1     -11.652  11.313  69.266  1.00  0.00    -0.486 I  
ENDBRANCH  12  13
ENDBRANCH  11  12
ENDBRANCH  10  11
ENDBRANCH   9  10
ENDBRANCH   8   9
ENDBRANCH   7   8
ENDBRANCH   6   7
ENDBRANCH   4   6
ENDBRANCH   3   4
ENDBRANCH   2   3
TORSDOF 10
ENDMDL
MODEL      158
REMARK 921   NORMALIZED FREE ENERGY PREDICTED BY IDOCK:   -3.79 KCAL/MOL
REMARK 922        TOTAL FREE ENERGY PREDICTED BY IDOCK:   -7.40 KCAL/MOL
REMARK 923 INTER-LIGAND FREE ENERGY PREDICTED BY IDOCK:   -6.90 KCAL/MOL
REMARK 924 INTRA-LIGAND FREE ENERGY PREDICTED BY IDOCK:   -0.50 KCAL/MOL
REMARK 927      BINDING AFFINITY PREDICTED BY RF-SCORE:    0.00 PKD
ROOT
HETATM    1  C   UNL     1     -10.441  19.341  66.197  1.00  0.00    -0.577 C  
HETATM    2  C   UNL     1     -10.357  18.966  67.665  1.00  0.00    -0.426 C  
ENDROOT
BRANCH   2   3
HETATM    3  O   UNL     1     -11.102  17.756  67.851  1.00  0.00    -0.206 OA 
BRANCH   3   4
HETATM    4  C   UNL     1     -10.404  16.748  68.446  1.00  0.00    -0.319 C  
HETATM    5  O   UNL     1      -9.242  16.819  68.818  1.00  0.00    -0.250 OA 
BRANCH   4   6
HETATM    6  C   UNL     1     -11.320  15.570  68.659  1.00  0.00    -0.348 C  
BRANCH   6   7
HETATM    7  C   UNL     1     -11.689  15.439  70.132  1.00  0.00    -0.356 C  
BRANCH   7   8
HETATM    8  C   UNL     1     -12.863  14.491  70.343  1.00  0.00    -0.315 C  
BRANCH   8   9
HETATM    9  C   UNL     1     -12.452  13.347  71.268  1.00  0.00    -0.368 C  
BRANCH   9  10
HETATM   10  C   UNL     1     -12.244  12.054  70.491  1.00  0.00    -0.414 C  
BRANCH  10  11
HETATM   11  C   UNL     1     -12.855  10.863  71.229  1.00  0.00    -0.536 C  
BRANCH  11  12
HETATM   12  C   UNL     1     -11.806   9.776  71.438  1.00  0.00    -0.488 C  
BRANCH  12  13
HETATM   13  C   UNL     1     -11.388   9.118  70.121  1.00  0.00    -0.164 C  
HETATM   14  C   UNL     1     -10.860   7.682  70.325  1.00  0.00    -0.253 C  
HETATM   15  C   UNL     1     -10.289   7.130  69.020  1.00  0.00    -0.204 A  
HETATM   16  C   UNL     1     -11.928   6.763  70.945  1.00  0.00    -0.437 C  
HETATM   17  C   UNL     1     -11.144   6.464  68.116  1.00  0.00    -0.358 A  
HETATM   18  C   UNL     1     -10.664   5.902  66.931  1.00  0.00    -0.395 A  
HETATM   19  C   UNL     1      -9.318   6.009  66.607  1.00  0.00    -0.156 A  
HETATM   20  C   UNL     1      -8.458   6.697  67.458  1.00  0.00    -0.121 A  
HETATM   21  C   UNL     1      -8.934   7.260  68.652  1.00  0.00    -0.128 A  
HETATM   22  I   UNL     1      -7.500   8.296  69.800  1.00  0.00    -0.081 I  
ENDBRANCH  12  13
ENDBRANCH  11  12
ENDBRANCH  10  11
ENDBRANCH   9  10
ENDBRANCH   8   9
ENDBRANCH   7   8
ENDBRANCH   6   7
ENDBRANCH   4   6
ENDBRANCH   3   4
ENDBRANCH   2   3
TORSDOF 10
ENDMDL
MODEL      159
REMARK 921   NORMALIZED FREE ENERGY PREDICTED BY IDOCK:   -3.78 KCAL/MOL
REMARK 922        TOTAL FREE ENERGY PREDICTED BY IDOCK:   -7.39 KCAL/MOL
REMARK 923 INTER-LIGAND FREE ENERGY PREDICTED BY IDOCK:   -6.36 KCAL/MOL
REMARK 924 INTRA-LIGAND FREE ENERGY PREDICTED BY IDOCK:   -1.03 KCAL/MOL
REMARK 927      BINDING AFFINITY PREDICTED BY RF-SCORE:    0.00 PKD
ROOT
HETATM    1  C   UNL     1     -14.347   8.615  72.027  1.00  0.00    -0.512 C  
HETATM    2  C   UNL     1     -13.002   9.251  72.326  1.00  0.00    -0.412 C  
ENDROOT
BRANCH   2   3
HETATM    3  O   UNL     1     -12.016   8.583  71.528  1.00  0.00    -0.279 OA 
BRANCH   3   4
HETATM    4  C   UNL     1     -11.243   7.693  72.212  1.00  0.00    -0.293 C  
HETATM    5  O   UNL     1     -10.937   7.785  73.391  1.00  0.00    -0.327 OA 
BRANCH   4   6
HETATM    6  C   UNL     1     -10.908   6.533  71.310  1.00  0.00    -0.294 C  
BRANCH   6   7
HETATM    7  C   UNL     1     -11.135   6.908  69.850  1.00  0.00    -0.333 C  
BRANCH   7   8
HETATM    8  C   UNL     1     -10.030   6.375  68.946  1.00  0.00    -0.168 C  
BRANCH   8   9
HETATM    9  C   UNL     1      -8.702   7.045  69.292  1.00  0.00    -0.136 C  
BRANCH   9  10
HETATM   10  C   UNL     1      -8.564   8.393  68.595  1.00  0.00    -0.132 C  
BRANCH  10  11
HETATM   11  C   UNL     1      -8.507   8.225  67.077  1.00  0.00    -0.122 C  
BRANCH  11  12
HETATM   12  C   UNL     1      -9.908   8.322  66.481  1.00  0.00    -0.323 C  
BRANCH  12  13
HETATM   13  C   UNL     1     -10.539   9.696  66.716  1.00  0.00    -0.209 C  
HETATM   14  C   UNL     1      -9.927  10.785  65.809  1.00  0.00    -0.306 C  
HETATM   15  C   UNL     1     -10.455  12.165  66.198  1.00  0.00    -0.281 A  
HETATM   16  C   UNL     1     -10.131  10.467  64.318  1.00  0.00    -0.380 C  
HETATM   17  C   UNL     1     -11.646  12.643  65.613  1.00  0.00    -0.418 A  
HETATM   18  C   UNL     1     -12.146  13.915  65.900  1.00  0.00    -0.459 A  
HETATM   19  C   UNL     1     -11.478  14.737  66.798  1.00  0.00    -0.343 A  
HETATM   20  C   UNL     1     -10.323  14.278  67.423  1.00  0.00    -0.259 A  
HETATM   21  C   UNL     1      -9.814  13.002  67.136  1.00  0.00    -0.230 A  
HETATM   22  I   UNL     1      -8.078  12.458  68.201  1.00  0.00    -0.146 I  
ENDBRANCH  12  13
ENDBRANCH  11  12
ENDBRANCH  10  11
ENDBRANCH   9  10
ENDBRANCH   8   9
ENDBRANCH   7   8
ENDBRANCH   6   7
ENDBRANCH   4   6
ENDBRANCH   3   4
ENDBRANCH   2   3
TORSDOF 10
ENDMDL
MODEL      160
REMARK 921   NORMALIZED FREE ENERGY PREDICTED BY IDOCK:   -3.78 KCAL/MOL
REMARK 922        TOTAL FREE ENERGY PREDICTED BY IDOCK:   -7.39 KCAL/MOL
REMARK 923 INTER-LIGAND FREE ENERGY PREDICTED BY IDOCK:   -6.40 KCAL/MOL
REMARK 924 INTRA-LIGAND FREE ENERGY PREDICTED BY IDOCK:   -0.99 KCAL/MOL
REMARK 927      BINDING AFFINITY PREDICTED BY RF-SCORE:    0.00 PKD
ROOT
HETATM    1  C   UNL     1     -12.585   7.275  71.574  1.00  0.00    -0.415 C  
HETATM    2  C   UNL     1     -11.621   8.274  72.185  1.00  0.00    -0.364 C  
ENDROOT
BRANCH   2   3
HETATM    3  O   UNL     1     -10.661   7.541  72.957  1.00  0.00    -0.317 OA 
BRANCH   3   4
HETATM    4  C   UNL     1      -9.363   7.879  72.714  1.00  0.00    -0.234 C  
HETATM    5  O   UNL     1      -8.698   8.651  73.389  1.00  0.00    -0.333 OA 
BRANCH   4   6
HETATM    6  C   UNL     1      -8.853   7.078  71.544  1.00  0.00    -0.128 C  
BRANCH   6   7
HETATM    7  C   UNL     1      -8.009   7.953  70.625  1.00  0.00    -0.096 C  
BRANCH   7   8
HETATM    8  C   UNL     1      -8.394   7.779  69.161  1.00  0.00    -0.134 C  
BRANCH   8   9
HETATM    9  C   UNL     1      -9.840   8.222  68.944  1.00  0.00    -0.183 C  
BRANCH   9  10
HETATM   10  C   UNL     1      -9.908   9.647  68.411  1.00  0.00    -0.170 C  
BRANCH  10  11
HETATM   11  C   UNL     1     -11.309  10.233  68.584  1.00  0.00    -0.226 C  
BRANCH  11  12
HETATM   12  C   UNL     1     -11.252  11.497  69.435  1.00  0.00    -0.324 C  
BRANCH  12  13
HETATM   13  C   UNL     1     -10.716  12.697  68.650  1.00  0.00    -0.269 C  
HETATM   14  C   UNL     1     -11.821  13.724  68.323  1.00  0.00    -0.413 C  
HETATM   15  C   UNL     1     -11.285  14.809  67.391  1.00  0.00    -0.346 A  
HETATM   16  C   UNL     1     -12.462  14.298  69.600  1.00  0.00    -0.215 C  
HETATM   17  C   UNL     1     -10.671  15.955  67.940  1.00  0.00    -0.312 A  
HETATM   18  C   UNL     1     -10.206  16.995  67.133  1.00  0.00    -0.306 A  
HETATM   19  C   UNL     1     -10.323  16.909  65.752  1.00  0.00    -0.298 A  
HETATM   20  C   UNL     1     -10.886  15.773  65.179  1.00  0.00    -0.444 A  
HETATM   21  C   UNL     1     -11.359  14.726  65.985  1.00  0.00    -0.332 A  
HETATM   22  I   UNL     1     -12.146  13.068  64.947  1.00  0.00    -0.544 I  
ENDBRANCH  12  13
ENDBRANCH  11  12
ENDBRANCH  10  11
ENDBRANCH   9  10
ENDBRANCH   8   9
ENDBRANCH   7   8
ENDBRANCH   6   7
ENDBRANCH   4   6
ENDBRANCH   3   4
ENDBRANCH   2   3
TORSDOF 10
ENDMDL
MODEL      161
REMARK 921   NORMALIZED FREE ENERGY PREDICTED BY IDOCK:   -3.77 KCAL/MOL
REMARK 922        TOTAL FREE ENERGY PREDICTED BY IDOCK:   -7.37 KCAL/MOL
REMARK 923 INTER-LIGAND FREE ENERGY PREDICTED BY IDOCK:   -6.23 KCAL/MOL
REMARK 924 INTRA-LIGAND FREE ENERGY PREDICTED BY IDOCK:   -1.14 KCAL/MOL
REMARK 927      BINDING AFFINITY PREDICTED BY RF-SCORE:    0.00 PKD
ROOT
HETATM    1  C   UNL     1      -9.165   3.792  69.515  1.00  0.00    -0.226 C  
HETATM    2  C   UNL     1      -9.863   4.907  70.270  1.00  0.00    -0.236 C  
ENDROOT
BRANCH   2   3
HETATM    3  O   UNL     1      -9.985   4.500  71.638  1.00  0.00    -0.183 OA 
BRANCH   3   4
HETATM    4  C   UNL     1     -10.909   5.199  72.356  1.00  0.00    -0.203 C  
HETATM    5  O   UNL     1     -11.610   4.736  73.244  1.00  0.00    -0.333 OA 
BRANCH   4   6
HETATM    6  C   UNL     1     -10.860   6.649  71.948  1.00  0.00    -0.267 C  
BRANCH   6   7
HETATM    7  C   UNL     1     -10.405   7.518  73.116  1.00  0.00    -0.402 C  
BRANCH   7   8
HETATM    8  C   UNL     1      -8.919   7.846  73.038  1.00  0.00    -0.286 C  
BRANCH   8   9
HETATM    9  C   UNL     1      -8.437   7.751  71.591  1.00  0.00    -0.128 C  
BRANCH   9  10
HETATM   10  C   UNL     1      -8.437   9.116  70.917  1.00  0.00    -0.251 C  
BRANCH  10  11
HETATM   11  C   UNL     1      -9.111   9.054  69.547  1.00  0.00    -0.151 C  
BRANCH  11  12
HETATM   12  C   UNL     1     -10.611   9.293  69.683  1.00  0.00    -0.241 C  
BRANCH  12  13
HETATM   13  C   UNL     1     -10.922  10.636  70.349  1.00  0.00    -0.162 C  
HETATM   14  C   UNL     1     -12.374  11.094  70.095  1.00  0.00    -0.373 C  
HETATM   15  C   UNL     1     -12.588  12.512  70.621  1.00  0.00    -0.237 A  
HETATM   16  C   UNL     1     -13.396  10.089  70.655  1.00  0.00    -0.091 C  
HETATM   17  C   UNL     1     -12.984  12.702  71.962  1.00  0.00    -0.379 A  
HETATM   18  C   UNL     1     -13.237  13.975  72.478  1.00  0.00    -0.602 A  
HETATM   19  C   UNL     1     -13.080  15.095  71.673  1.00  0.00    -0.471 A  
HETATM   20  C   UNL     1     -12.651  14.942  70.358  1.00  0.00    -0.394 A  
HETATM   21  C   UNL     1     -12.399  13.666  69.833  1.00  0.00    -0.249 A  
HETATM   22  I   UNL     1     -11.720  13.626  67.837  1.00  0.00    -0.367 I  
ENDBRANCH  12  13
ENDBRANCH  11  12
ENDBRANCH  10  11
ENDBRANCH   9  10
ENDBRANCH   8   9
ENDBRANCH   7   8
ENDBRANCH   6   7
ENDBRANCH   4   6
ENDBRANCH   3   4
ENDBRANCH   2   3
TORSDOF 10
ENDMDL
MODEL      162
REMARK 921   NORMALIZED FREE ENERGY PREDICTED BY IDOCK:   -3.76 KCAL/MOL
REMARK 922        TOTAL FREE ENERGY PREDICTED BY IDOCK:   -7.35 KCAL/MOL
REMARK 923 INTER-LIGAND FREE ENERGY PREDICTED BY IDOCK:   -6.16 KCAL/MOL
REMARK 924 INTRA-LIGAND FREE ENERGY PREDICTED BY IDOCK:   -1.19 KCAL/MOL
REMARK 927      BINDING AFFINITY PREDICTED BY RF-SCORE:    0.00 PKD
ROOT
HETATM    1  C   UNL     1      -8.801   5.604  67.755  1.00  0.00    -0.105 C  
HETATM    2  C   UNL     1      -8.372   6.571  66.666  1.00  0.00    -0.113 C  
ENDROOT
BRANCH   2   3
HETATM    3  O   UNL     1      -8.508   7.900  67.183  1.00  0.00    -0.115 OA 
BRANCH   3   4
HETATM    4  C   UNL     1      -9.524   8.621  66.629  1.00  0.00    -0.207 C  
HETATM    5  O   UNL     1     -10.628   8.782  67.127  1.00  0.00    -0.291 OA 
BRANCH   4   6
HETATM    6  C   UNL     1      -9.038   9.263  65.355  1.00  0.00    -0.277 C  
BRANCH   6   7
HETATM    7  C   UNL     1     -10.117  10.164  64.766  1.00  0.00    -0.250 C  
BRANCH   7   8
HETATM    8  C   UNL     1      -9.564  11.083  63.682  1.00  0.00    -0.324 C  
BRANCH   8   9
HETATM    9  C   UNL     1     -10.632  12.085  63.250  1.00  0.00    -0.399 C  
BRANCH   9  10
HETATM   10  C   UNL     1     -12.013  11.668  63.739  1.00  0.00    -0.357 C  
BRANCH  10  11
HETATM   11  C   UNL     1     -12.762  12.852  64.350  1.00  0.00    -0.322 C  
BRANCH  11  12
HETATM   12  C   UNL     1     -12.354  13.041  65.807  1.00  0.00    -0.477 C  
BRANCH  12  13
HETATM   13  C   UNL     1     -11.914  14.477  66.100  1.00  0.00    -0.323 C  
HETATM   14  C   UNL     1     -10.607  14.534  66.920  1.00  0.00    -0.279 C  
HETATM   15  C   UNL     1     -10.301  15.970  67.342  1.00  0.00    -0.294 A  
HETATM   16  C   UNL     1      -9.436  13.869  66.174  1.00  0.00    -0.194 C  
HETATM   17  C   UNL     1      -9.552  16.801  66.482  1.00  0.00    -0.285 A  
HETATM   18  C   UNL     1      -9.208  18.106  66.841  1.00  0.00    -0.278 A  
HETATM   19  C   UNL     1      -9.620  18.623  68.062  1.00  0.00    -0.348 A  
HETATM   20  C   UNL     1     -10.394  17.841  68.913  1.00  0.00    -0.300 A  
HETATM   21  C   UNL     1     -10.741  16.528  68.560  1.00  0.00    -0.336 A  
HETATM   22  I   UNL     1     -11.948  15.504  69.952  1.00  0.00    -0.282 I  
ENDBRANCH  12  13
ENDBRANCH  11  12
ENDBRANCH  10  11
ENDBRANCH   9  10
ENDBRANCH   8   9
ENDBRANCH   7   8
ENDBRANCH   6   7
ENDBRANCH   4   6
ENDBRANCH   3   4
ENDBRANCH   2   3
TORSDOF 10
ENDMDL
MODEL      163
REMARK 921   NORMALIZED FREE ENERGY PREDICTED BY IDOCK:   -3.75 KCAL/MOL
REMARK 922        TOTAL FREE ENERGY PREDICTED BY IDOCK:   -7.34 KCAL/MOL
REMARK 923 INTER-LIGAND FREE ENERGY PREDICTED BY IDOCK:   -6.44 KCAL/MOL
REMARK 924 INTRA-LIGAND FREE ENERGY PREDICTED BY IDOCK:   -0.91 KCAL/MOL
REMARK 927      BINDING AFFINITY PREDICTED BY RF-SCORE:    0.00 PKD
ROOT
HETATM    1  C   UNL     1     -11.012   4.352  73.480  1.00  0.00    -0.379 C  
HETATM    2  C   UNL     1     -11.629   5.442  72.623  1.00  0.00    -0.203 C  
ENDROOT
BRANCH   2   3
HETATM    3  O   UNL     1     -10.659   5.827  71.641  1.00  0.00    -0.229 OA 
BRANCH   3   4
HETATM    4  C   UNL     1     -11.182   6.138  70.421  1.00  0.00    -0.353 C  
HETATM    5  O   UNL     1     -12.136   6.878  70.231  1.00  0.00    -0.278 OA 
BRANCH   4   6
HETATM    6  C   UNL     1     -10.339   5.504  69.345  1.00  0.00    -0.348 C  
BRANCH   6   7
HETATM    7  C   UNL     1      -8.872   5.485  69.757  1.00  0.00    -0.129 C  
BRANCH   7   8
HETATM    8  C   UNL     1      -8.128   6.727  69.281  1.00  0.00    -0.120 C  
BRANCH   8   9
HETATM    9  C   UNL     1      -8.114   6.775  67.754  1.00  0.00    -0.113 C  
BRANCH   9  10
HETATM   10  C   UNL     1      -8.355   8.188  67.242  1.00  0.00    -0.121 C  
BRANCH  10  11
HETATM   11  C   UNL     1      -9.751   8.324  66.637  1.00  0.00    -0.321 C  
BRANCH  11  12
HETATM   12  C   UNL     1     -10.557   9.375  67.395  1.00  0.00    -0.326 C  
BRANCH  12  13
HETATM   13  C   UNL     1     -10.165  10.800  66.996  1.00  0.00    -0.261 C  
HETATM   14  C   UNL     1     -11.336  11.793  67.146  1.00  0.00    -0.387 C  
HETATM   15  C   UNL     1     -10.958  13.158  66.571  1.00  0.00    -0.303 A  
HETATM   16  C   UNL     1     -11.833  11.875  68.600  1.00  0.00    -0.365 C  
HETATM   17  C   UNL     1     -10.321  14.107  67.398  1.00  0.00    -0.256 A  
HETATM   18  C   UNL     1      -9.997  15.383  66.935  1.00  0.00    -0.247 A  
HETATM   19  C   UNL     1     -10.281  15.739  65.623  1.00  0.00    -0.407 A  
HETATM   20  C   UNL     1     -10.871  14.810  64.771  1.00  0.00    -0.395 A  
HETATM   21  C   UNL     1     -11.203  13.528  65.233  1.00  0.00    -0.292 A  
HETATM   22  I   UNL     1     -12.056  12.240  63.796  1.00  0.00    -0.606 I  
ENDBRANCH  12  13
ENDBRANCH  11  12
ENDBRANCH  10  11
ENDBRANCH   9  10
ENDBRANCH   8   9
ENDBRANCH   7   8
ENDBRANCH   6   7
ENDBRANCH   4   6
ENDBRANCH   3   4
ENDBRANCH   2   3
TORSDOF 10
ENDMDL
MODEL      164
REMARK 921   NORMALIZED FREE ENERGY PREDICTED BY IDOCK:   -3.75 KCAL/MOL
REMARK 922        TOTAL FREE ENERGY PREDICTED BY IDOCK:   -7.34 KCAL/MOL
REMARK 923 INTER-LIGAND FREE ENERGY PREDICTED BY IDOCK:   -6.80 KCAL/MOL
REMARK 924 INTRA-LIGAND FREE ENERGY PREDICTED BY IDOCK:   -0.54 KCAL/MOL
REMARK 927      BINDING AFFINITY PREDICTED BY RF-SCORE:    0.00 PKD
ROOT
HETATM    1  C   UNL     1     -12.843  16.404  73.749  1.00  0.00    -0.442 C  
HETATM    2  C   UNL     1     -11.998  16.009  72.552  1.00  0.00    -0.545 C  
ENDROOT
BRANCH   2   3
HETATM    3  O   UNL     1     -12.887  15.666  71.482  1.00  0.00    -0.425 OA 
BRANCH   3   4
HETATM    4  C   UNL     1     -13.167  14.336  71.384  1.00  0.00    -0.349 C  
HETATM    5  O   UNL     1     -13.875  13.705  72.156  1.00  0.00    -0.481 OA 
BRANCH   4   6
HETATM    6  C   UNL     1     -12.546  13.790  70.124  1.00  0.00    -0.253 C  
BRANCH   6   7
HETATM    7  C   UNL     1     -11.802  12.492  70.415  1.00  0.00    -0.246 C  
BRANCH   7   8
HETATM    8  C   UNL     1     -12.709  11.274  70.290  1.00  0.00    -0.161 C  
BRANCH   8   9
HETATM    9  C   UNL     1     -12.632  10.432  71.562  1.00  0.00    -0.544 C  
BRANCH   9  10
HETATM   10  C   UNL     1     -11.767   9.195  71.356  1.00  0.00    -0.413 C  
BRANCH  10  11
HETATM   11  C   UNL     1     -12.493   7.932  71.816  1.00  0.00    -0.352 C  
BRANCH  11  12
HETATM   12  C   UNL     1     -11.488   6.889  72.296  1.00  0.00    -0.313 C  
BRANCH  12  13
HETATM   13  C   UNL     1     -11.270   5.782  71.262  1.00  0.00    -0.223 C  
HETATM   14  C   UNL     1      -9.838   5.791  70.687  1.00  0.00    -0.240 C  
HETATM   15  C   UNL     1      -9.716   4.793  69.537  1.00  0.00    -0.271 A  
HETATM   16  C   UNL     1      -8.781   5.571  71.783  1.00  0.00    -0.136 C  
HETATM   17  C   UNL     1      -9.372   3.453  69.814  1.00  0.00    -0.238 A  
HETATM   18  C   UNL     1      -9.204   2.513  68.796  1.00  0.00    -0.227 A  
HETATM   19  C   UNL     1      -9.396   2.882  67.471  1.00  0.00    -0.218 A  
HETATM   20  C   UNL     1      -9.777   4.186  67.169  1.00  0.00    -0.224 A  
HETATM   21  C   UNL     1      -9.944   5.136  68.187  1.00  0.00    -0.145 A  
HETATM   22  I   UNL     1     -10.558   7.049  67.550  1.00  0.00    -0.350 I  
ENDBRANCH  12  13
ENDBRANCH  11  12
ENDBRANCH  10  11
ENDBRANCH   9  10
ENDBRANCH   8   9
ENDBRANCH   7   8
ENDBRANCH   6   7
ENDBRANCH   4   6
ENDBRANCH   3   4
ENDBRANCH   2   3
TORSDOF 10
ENDMDL
MODEL      165
REMARK 921   NORMALIZED FREE ENERGY PREDICTED BY IDOCK:   -3.75 KCAL/MOL
REMARK 922        TOTAL FREE ENERGY PREDICTED BY IDOCK:   -7.34 KCAL/MOL
REMARK 923 INTER-LIGAND FREE ENERGY PREDICTED BY IDOCK:   -6.00 KCAL/MOL
REMARK 924 INTRA-LIGAND FREE ENERGY PREDICTED BY IDOCK:   -1.34 KCAL/MOL
REMARK 927      BINDING AFFINITY PREDICTED BY RF-SCORE:    0.00 PKD
ROOT
HETATM    1  C   UNL     1      -7.342  13.229  67.508  1.00  0.00    -0.159 C  
HETATM    2  C   UNL     1      -8.491  12.512  68.194  1.00  0.00    -0.180 C  
ENDROOT
BRANCH   2   3
HETATM    3  O   UNL     1      -8.531  11.171  67.692  1.00  0.00    -0.120 OA 
BRANCH   3   4
HETATM    4  C   UNL     1      -9.680  10.495  67.977  1.00  0.00    -0.147 C  
HETATM    5  O   UNL     1     -10.270  10.526  69.047  1.00  0.00    -0.194 OA 
BRANCH   4   6
HETATM    6  C   UNL     1     -10.156   9.784  66.737  1.00  0.00    -0.295 C  
BRANCH   6   7
HETATM    7  C   UNL     1      -9.199  10.033  65.577  1.00  0.00    -0.247 C  
BRANCH   7   8
HETATM    8  C   UNL     1      -9.680  11.161  64.673  1.00  0.00    -0.308 C  
BRANCH   8   9
HETATM    9  C   UNL     1     -11.194  11.324  64.799  1.00  0.00    -0.128 C  
BRANCH   9  10
HETATM   10  C   UNL     1     -11.564  12.729  65.253  1.00  0.00    -0.379 C  
BRANCH  10  11
HETATM   11  C   UNL     1     -10.740  13.782  64.513  1.00  0.00    -0.405 C  
BRANCH  11  12
HETATM   12  C   UNL     1     -11.107  15.180  65.001  1.00  0.00    -0.428 C  
BRANCH  12  13
HETATM   13  C   UNL     1      -9.948  15.854  65.740  1.00  0.00    -0.391 C  
HETATM   14  C   UNL     1     -10.393  16.487  67.076  1.00  0.00    -0.301 C  
HETATM   15  C   UNL     1      -9.254  17.298  67.690  1.00  0.00    -0.229 A  
HETATM   16  C   UNL     1     -10.966  15.435  68.042  1.00  0.00    -0.307 C  
HETATM   17  C   UNL     1      -8.328  16.660  68.542  1.00  0.00    -0.228 A  
HETATM   18  C   UNL     1      -7.296  17.366  69.164  1.00  0.00    -0.144 A  
HETATM   19  C   UNL     1      -7.149  18.727  68.936  1.00  0.00    -0.333 A  
HETATM   20  C   UNL     1      -8.022  19.377  68.068  1.00  0.00    -0.340 A  
HETATM   21  C   UNL     1      -9.063  18.674  67.443  1.00  0.00    -0.279 A  
HETATM   22  I   UNL     1     -10.265  19.808  66.133  1.00  0.00    -0.459 I  
ENDBRANCH  12  13
ENDBRANCH  11  12
ENDBRANCH  10  11
ENDBRANCH   9  10
ENDBRANCH   8   9
ENDBRANCH   7   8
ENDBRANCH   6   7
ENDBRANCH   4   6
ENDBRANCH   3   4
ENDBRANCH   2   3
TORSDOF 10
ENDMDL
MODEL      166
REMARK 921   NORMALIZED FREE ENERGY PREDICTED BY IDOCK:   -3.74 KCAL/MOL
REMARK 922        TOTAL FREE ENERGY PREDICTED BY IDOCK:   -7.32 KCAL/MOL
REMARK 923 INTER-LIGAND FREE ENERGY PREDICTED BY IDOCK:   -5.99 KCAL/MOL
REMARK 924 INTRA-LIGAND FREE ENERGY PREDICTED BY IDOCK:   -1.33 KCAL/MOL
REMARK 927      BINDING AFFINITY PREDICTED BY RF-SCORE:    0.00 PKD
ROOT
HETATM    1  C   UNL     1     -12.212  13.328  63.729  1.00  0.00    -0.508 C  
HETATM    2  C   UNL     1     -12.196  13.824  65.163  1.00  0.00    -0.431 C  
ENDROOT
BRANCH   2   3
HETATM    3  O   UNL     1     -12.331  12.685  66.022  1.00  0.00    -0.587 OA 
BRANCH   3   4
HETATM    4  C   UNL     1     -11.617  12.762  67.180  1.00  0.00    -0.364 C  
HETATM    5  O   UNL     1     -12.093  12.731  68.306  1.00  0.00    -0.282 OA 
BRANCH   4   6
HETATM    6  C   UNL     1     -10.146  12.795  66.854  1.00  0.00    -0.234 C  
BRANCH   6   7
HETATM    7  C   UNL     1      -9.646  11.398  66.503  1.00  0.00    -0.220 C  
BRANCH   7   8
HETATM    8  C   UNL     1      -8.924  10.740  67.673  1.00  0.00    -0.140 C  
BRANCH   8   9
HETATM    9  C   UNL     1      -9.912   9.930  68.509  1.00  0.00    -0.175 C  
BRANCH   9  10
HETATM   10  C   UNL     1     -10.749   9.006  67.635  1.00  0.00    -0.232 C  
BRANCH  10  11
HETATM   11  C   UNL     1     -10.091   7.634  67.495  1.00  0.00    -0.264 C  
BRANCH  11  12
HETATM   12  C   UNL     1     -11.054   6.537  67.938  1.00  0.00    -0.352 C  
BRANCH  12  13
HETATM   13  C   UNL     1     -10.577   5.832  69.211  1.00  0.00    -0.376 C  
HETATM   14  C   UNL     1     -10.753   6.710  70.468  1.00  0.00    -0.293 C  
HETATM   15  C   UNL     1     -10.105   6.045  71.681  1.00  0.00    -0.227 A  
HETATM   16  C   UNL     1     -12.229   7.076  70.706  1.00  0.00    -0.343 C  
HETATM   17  C   UNL     1     -10.856   5.141  72.461  1.00  0.00    -0.282 A  
HETATM   18  C   UNL     1     -10.324   4.542  73.605  1.00  0.00    -0.244 A  
HETATM   19  C   UNL     1      -9.018   4.814  73.989  1.00  0.00    -0.112 A  
HETATM   20  C   UNL     1      -8.238   5.669  73.215  1.00  0.00    -0.117 A  
HETATM   21  C   UNL     1      -8.768   6.277  72.067  1.00  0.00    -0.134 A  
HETATM   22  I   UNL     1      -7.435   7.512  70.998  1.00  0.00    -0.075 I  
ENDBRANCH  12  13
ENDBRANCH  11  12
ENDBRANCH  10  11
ENDBRANCH   9  10
ENDBRANCH   8   9
ENDBRANCH   7   8
ENDBRANCH   6   7
ENDBRANCH   4   6
ENDBRANCH   3   4
ENDBRANCH   2   3
TORSDOF 10
ENDMDL
MODEL      167
REMARK 921   NORMALIZED FREE ENERGY PREDICTED BY IDOCK:   -3.73 KCAL/MOL
REMARK 922        TOTAL FREE ENERGY PREDICTED BY IDOCK:   -7.31 KCAL/MOL
REMARK 923 INTER-LIGAND FREE ENERGY PREDICTED BY IDOCK:   -6.31 KCAL/MOL
REMARK 924 INTRA-LIGAND FREE ENERGY PREDICTED BY IDOCK:   -1.01 KCAL/MOL
REMARK 927      BINDING AFFINITY PREDICTED BY RF-SCORE:    0.00 PKD
ROOT
HETATM    1  C   UNL     1      -9.646   9.148  66.614  1.00  0.00    -0.263 C  
HETATM    2  C   UNL     1      -8.874   8.693  67.839  1.00  0.00    -0.137 C  
ENDROOT
BRANCH   2   3
HETATM    3  O   UNL     1      -8.522   9.859  68.593  1.00  0.00    -0.108 OA 
BRANCH   3   4
HETATM    4  C   UNL     1      -7.932  10.848  67.864  1.00  0.00    -0.111 C  
HETATM    5  O   UNL     1      -7.157  10.673  66.935  1.00  0.00    -0.097 OA 
BRANCH   4   6
HETATM    6  C   UNL     1      -8.461  12.183  68.320  1.00  0.00    -0.176 C  
BRANCH   6   7
HETATM    7  C   UNL     1      -8.011  13.289  67.373  1.00  0.00    -0.175 C  
BRANCH   7   8
HETATM    8  C   UNL     1      -9.187  14.101  66.844  1.00  0.00    -0.270 C  
BRANCH   8   9
HETATM    9  C   UNL     1      -8.682  15.377  66.172  1.00  0.00    -0.129 C  
BRANCH   9  10
HETATM   10  C   UNL     1      -9.369  16.611  66.740  1.00  0.00    -0.262 C  
BRANCH  10  11
HETATM   11  C   UNL     1      -9.136  16.728  68.246  1.00  0.00    -0.228 C  
BRANCH  11  12
HETATM   12  C   UNL     1     -10.464  16.658  68.994  1.00  0.00    -0.328 C  
BRANCH  12  13
HETATM   13  C   UNL     1     -10.688  15.289  69.641  1.00  0.00    -0.289 C  
HETATM   14  C   UNL     1     -12.063  14.687  69.279  1.00  0.00    -0.307 C  
HETATM   15  C   UNL     1     -12.320  13.414  70.084  1.00  0.00    -0.322 A  
HETATM   16  C   UNL     1     -12.210  14.474  67.762  1.00  0.00    -0.148 C  
HETATM   17  C   UNL     1     -11.877  12.174  69.579  1.00  0.00    -0.386 A  
HETATM   18  C   UNL     1     -12.126  10.977  70.254  1.00  0.00    -0.448 A  
HETATM   19  C   UNL     1     -12.808  10.990  71.463  1.00  0.00    -0.555 A  
HETATM   20  C   UNL     1     -13.221  12.202  72.006  1.00  0.00    -0.496 A  
HETATM   21  C   UNL     1     -12.977  13.408  71.332  1.00  0.00    -0.328 A  
HETATM   22  I   UNL     1     -13.639  15.149  72.318  1.00  0.00    -0.744 I  
ENDBRANCH  12  13
ENDBRANCH  11  12
ENDBRANCH  10  11
ENDBRANCH   9  10
ENDBRANCH   8   9
ENDBRANCH   7   8
ENDBRANCH   6   7
ENDBRANCH   4   6
ENDBRANCH   3   4
ENDBRANCH   2   3
TORSDOF 10
ENDMDL
MODEL      168
REMARK 921   NORMALIZED FREE ENERGY PREDICTED BY IDOCK:   -3.73 KCAL/MOL
REMARK 922        TOTAL FREE ENERGY PREDICTED BY IDOCK:   -7.31 KCAL/MOL
REMARK 923 INTER-LIGAND FREE ENERGY PREDICTED BY IDOCK:   -6.52 KCAL/MOL
REMARK 924 INTRA-LIGAND FREE ENERGY PREDICTED BY IDOCK:   -0.79 KCAL/MOL
REMARK 927      BINDING AFFINITY PREDICTED BY RF-SCORE:    0.00 PKD
ROOT
HETATM    1  C   UNL     1     -10.742  19.469  65.803  1.00  0.00    -0.490 C  
HETATM    2  C   UNL     1     -10.050  18.691  66.907  1.00  0.00    -0.366 C  
ENDROOT
BRANCH   2   3
HETATM    3  O   UNL     1     -10.532  17.343  66.861  1.00  0.00    -0.324 OA 
BRANCH   3   4
HETATM    4  C   UNL     1      -9.801  16.507  66.070  1.00  0.00    -0.322 C  
HETATM    5  O   UNL     1      -8.593  16.578  65.897  1.00  0.00    -0.441 OA 
BRANCH   4   6
HETATM    6  C   UNL     1     -10.700  15.430  65.523  1.00  0.00    -0.397 C  
BRANCH   6   7
HETATM    7  C   UNL     1     -11.674  14.952  66.594  1.00  0.00    -0.225 C  
BRANCH   7   8
HETATM    8  C   UNL     1     -11.407  13.509  67.005  1.00  0.00    -0.348 C  
BRANCH   8   9
HETATM    9  C   UNL     1     -10.025  13.394  67.645  1.00  0.00    -0.229 C  
BRANCH   9  10
HETATM   10  C   UNL     1      -9.226  12.248  67.038  1.00  0.00    -0.205 C  
BRANCH  10  11
HETATM   11  C   UNL     1      -9.956  10.917  67.210  1.00  0.00    -0.216 C  
BRANCH  11  12
HETATM   12  C   UNL     1      -8.980   9.755  67.060  1.00  0.00    -0.152 C  
BRANCH  12  13
HETATM   13  C   UNL     1      -9.110   8.742  68.200  1.00  0.00    -0.142 C  
HETATM   14  C   UNL     1     -10.496   8.063  68.226  1.00  0.00    -0.210 C  
HETATM   15  C   UNL     1     -10.646   7.199  69.477  1.00  0.00    -0.247 A  
HETATM   16  C   UNL     1     -10.775   7.286  66.927  1.00  0.00    -0.346 C  
HETATM   17  C   UNL     1     -10.219   5.855  69.447  1.00  0.00    -0.284 A  
HETATM   18  C   UNL     1     -10.376   5.012  70.549  1.00  0.00    -0.285 A  
HETATM   19  C   UNL     1     -10.946   5.495  71.719  1.00  0.00    -0.249 A  
HETATM   20  C   UNL     1     -11.338   6.828  71.792  1.00  0.00    -0.307 A  
HETATM   21  C   UNL     1     -11.187   7.680  70.688  1.00  0.00    -0.266 A  
HETATM   22  I   UNL     1     -11.801   9.674  70.990  1.00  0.00    -0.470 I  
ENDBRANCH  12  13
ENDBRANCH  11  12
ENDBRANCH  10  11
ENDBRANCH   9  10
ENDBRANCH   8   9
ENDBRANCH   7   8
ENDBRANCH   6   7
ENDBRANCH   4   6
ENDBRANCH   3   4
ENDBRANCH   2   3
TORSDOF 10
ENDMDL
MODEL      169
REMARK 921   NORMALIZED FREE ENERGY PREDICTED BY IDOCK:   -3.72 KCAL/MOL
REMARK 922        TOTAL FREE ENERGY PREDICTED BY IDOCK:   -7.30 KCAL/MOL
REMARK 923 INTER-LIGAND FREE ENERGY PREDICTED BY IDOCK:   -6.34 KCAL/MOL
REMARK 924 INTRA-LIGAND FREE ENERGY PREDICTED BY IDOCK:   -0.96 KCAL/MOL
REMARK 927      BINDING AFFINITY PREDICTED BY RF-SCORE:    0.00 PKD
ROOT
HETATM    1  C   UNL     1      -9.791  10.862  63.547  1.00  0.00    -0.407 C  
HETATM    2  C   UNL     1     -10.385  12.242  63.331  1.00  0.00    -0.357 C  
ENDROOT
BRANCH   2   3
HETATM    3  O   UNL     1     -11.729  12.222  63.828  1.00  0.00    -0.395 OA 
BRANCH   3   4
HETATM    4  C   UNL     1     -12.268  13.454  64.050  1.00  0.00    -0.405 C  
HETATM    5  O   UNL     1     -12.521  14.279  63.184  1.00  0.00    -0.612 OA 
BRANCH   4   6
HETATM    6  C   UNL     1     -12.591  13.598  65.515  1.00  0.00    -0.541 C  
BRANCH   6   7
HETATM    7  C   UNL     1     -11.736  14.691  66.145  1.00  0.00    -0.316 C  
BRANCH   7   8
HETATM    8  C   UNL     1     -10.383  14.163  66.605  1.00  0.00    -0.277 C  
BRANCH   8   9
HETATM    9  C   UNL     1     -10.201  14.420  68.100  1.00  0.00    -0.232 C  
BRANCH   9  10
HETATM   10  C   UNL     1     -10.370  13.140  68.907  1.00  0.00    -0.068 C  
BRANCH  10  11
HETATM   11  C   UNL     1     -11.847  12.824  69.138  1.00  0.00    -0.352 C  
BRANCH  11  12
HETATM   12  C   UNL     1     -11.996  11.494  69.870  1.00  0.00    -0.426 C  
BRANCH  12  13
HETATM   13  C   UNL     1     -10.735  10.633  69.762  1.00  0.00    -0.283 C  
HETATM   14  C   UNL     1     -10.820   9.613  68.607  1.00  0.00    -0.203 C  
HETATM   15  C   UNL     1      -9.627   8.659  68.645  1.00  0.00    -0.159 A  
HETATM   16  C   UNL     1     -10.985  10.307  67.243  1.00  0.00    -0.277 C  
HETATM   17  C   UNL     1      -8.437   9.008  67.972  1.00  0.00    -0.125 A  
HETATM   18  C   UNL     1      -7.335   8.152  67.939  1.00  0.00    -0.096 A  
HETATM   19  C   UNL     1      -7.384   6.930  68.596  1.00  0.00    -0.094 A  
HETATM   20  C   UNL     1      -8.529   6.576  69.304  1.00  0.00    -0.127 A  
HETATM   21  C   UNL     1      -9.641   7.431  69.338  1.00  0.00    -0.155 A  
HETATM   22  I   UNL     1     -11.273   6.750  70.487  1.00  0.00    -0.433 I  
ENDBRANCH  12  13
ENDBRANCH  11  12
ENDBRANCH  10  11
ENDBRANCH   9  10
ENDBRANCH   8   9
ENDBRANCH   7   8
ENDBRANCH   6   7
ENDBRANCH   4   6
ENDBRANCH   3   4
ENDBRANCH   2   3
TORSDOF 10
ENDMDL
MODEL      170
REMARK 921   NORMALIZED FREE ENERGY PREDICTED BY IDOCK:   -3.72 KCAL/MOL
REMARK 922        TOTAL FREE ENERGY PREDICTED BY IDOCK:   -7.29 KCAL/MOL
REMARK 923 INTER-LIGAND FREE ENERGY PREDICTED BY IDOCK:   -6.68 KCAL/MOL
REMARK 924 INTRA-LIGAND FREE ENERGY PREDICTED BY IDOCK:   -0.61 KCAL/MOL
REMARK 927      BINDING AFFINITY PREDICTED BY RF-SCORE:    0.00 PKD
ROOT
HETATM    1  C   UNL     1      -7.782  19.575  67.928  1.00  0.00    -0.324 C  
HETATM    2  C   UNL     1      -7.486  18.500  66.898  1.00  0.00    -0.218 C  
ENDROOT
BRANCH   2   3
HETATM    3  O   UNL     1      -8.605  18.429  66.006  1.00  0.00    -0.501 OA 
BRANCH   3   4
HETATM    4  C   UNL     1      -9.806  18.229  66.620  1.00  0.00    -0.352 C  
HETATM    5  O   UNL     1     -10.756  18.997  66.577  1.00  0.00    -0.398 OA 
BRANCH   4   6
HETATM    6  C   UNL     1      -9.807  16.873  67.277  1.00  0.00    -0.265 C  
BRANCH   6   7
HETATM    7  C   UNL     1     -10.800  16.840  68.432  1.00  0.00    -0.355 C  
BRANCH   7   8
HETATM    8  C   UNL     1     -10.436  15.780  69.466  1.00  0.00    -0.270 C  
BRANCH   8   9
HETATM    9  C   UNL     1     -11.702  15.239  70.128  1.00  0.00    -0.342 C  
BRANCH   9  10
HETATM   10  C   UNL     1     -12.255  14.041  69.368  1.00  0.00    -0.336 C  
BRANCH  10  11
HETATM   11  C   UNL     1     -11.386  12.803  69.582  1.00  0.00    -0.170 C  
BRANCH  11  12
HETATM   12  C   UNL     1     -12.142  11.760  70.400  1.00  0.00    -0.440 C  
BRANCH  12  13
HETATM   13  C   UNL     1     -12.119  10.381  69.737  1.00  0.00    -0.208 C  
HETATM   14  C   UNL     1     -10.714   9.743  69.760  1.00  0.00    -0.283 C  
HETATM   15  C   UNL     1     -10.696   8.457  68.935  1.00  0.00    -0.095 A  
HETATM   16  C   UNL     1     -10.204   9.538  71.197  1.00  0.00    -0.300 C  
HETATM   17  C   UNL     1     -11.033   7.233  69.551  1.00  0.00    -0.182 A  
HETATM   18  C   UNL     1     -10.988   6.024  68.854  1.00  0.00    -0.395 A  
HETATM   19  C   UNL     1     -10.623   6.008  67.514  1.00  0.00    -0.345 A  
HETATM   20  C   UNL     1     -10.326   7.204  66.868  1.00  0.00    -0.349 A  
HETATM   21  C   UNL     1     -10.366   8.421  67.565  1.00  0.00    -0.265 A  
HETATM   22  I   UNL     1      -9.921  10.136  66.420  1.00  0.00    -0.288 I  
ENDBRANCH  12  13
ENDBRANCH  11  12
ENDBRANCH  10  11
ENDBRANCH   9  10
ENDBRANCH   8   9
ENDBRANCH   7   8
ENDBRANCH   6   7
ENDBRANCH   4   6
ENDBRANCH   3   4
ENDBRANCH   2   3
TORSDOF 10
ENDMDL
MODEL      171
REMARK 921   NORMALIZED FREE ENERGY PREDICTED BY IDOCK:   -3.71 KCAL/MOL
REMARK 922        TOTAL FREE ENERGY PREDICTED BY IDOCK:   -7.28 KCAL/MOL
REMARK 923 INTER-LIGAND FREE ENERGY PREDICTED BY IDOCK:   -6.41 KCAL/MOL
REMARK 924 INTRA-LIGAND FREE ENERGY PREDICTED BY IDOCK:   -0.87 KCAL/MOL
REMARK 927      BINDING AFFINITY PREDICTED BY RF-SCORE:    0.00 PKD
ROOT
HETATM    1  C   UNL     1      -5.157  16.377  67.554  1.00  0.00    -0.149 C  
HETATM    2  C   UNL     1      -5.714  17.641  66.926  1.00  0.00    -0.152 C  
ENDROOT
BRANCH   2   3
HETATM    3  O   UNL     1      -5.531  18.712  67.861  1.00  0.00    -0.173 OA 
BRANCH   3   4
HETATM    4  C   UNL     1      -6.688  19.243  68.347  1.00  0.00    -0.263 C  
HETATM    5  O   UNL     1      -7.289  18.842  69.333  1.00  0.00    -0.166 OA 
BRANCH   4   6
HETATM    6  C   UNL     1      -7.054  20.459  67.535  1.00  0.00    -0.349 C  
BRANCH   6   7
HETATM    7  C   UNL     1      -8.286  20.180  66.682  1.00  0.00    -0.338 C  
BRANCH   7   8
HETATM    8  C   UNL     1      -9.554  20.749  67.308  1.00  0.00    -0.494 C  
BRANCH   8   9
HETATM    9  C   UNL     1     -10.578  19.635  67.520  1.00  0.00    -0.577 C  
BRANCH   9  10
HETATM   10  C   UNL     1     -10.423  18.535  66.478  1.00  0.00    -0.435 C  
BRANCH  10  11
HETATM   11  C   UNL     1     -10.479  17.152  67.126  1.00  0.00    -0.291 C  
BRANCH  11  12
HETATM   12  C   UNL     1     -10.378  16.065  66.061  1.00  0.00    -0.366 C  
BRANCH  12  13
HETATM   13  C   UNL     1     -10.752  14.685  66.609  1.00  0.00    -0.305 C  
HETATM   14  C   UNL     1      -9.551  13.715  66.621  1.00  0.00    -0.289 C  
HETATM   15  C   UNL     1     -10.004  12.307  67.003  1.00  0.00    -0.220 A  
HETATM   16  C   UNL     1      -8.406  14.236  67.509  1.00  0.00    -0.198 C  
HETATM   17  C   UNL     1     -10.049  11.938  68.364  1.00  0.00    -0.206 A  
HETATM   18  C   UNL     1     -10.412  10.650  68.763  1.00  0.00    -0.215 A  
HETATM   19  C   UNL     1     -10.760   9.700  67.812  1.00  0.00    -0.316 A  
HETATM   20  C   UNL     1     -10.765  10.047  66.464  1.00  0.00    -0.094 A  
HETATM   21  C   UNL     1     -10.398  11.338  66.057  1.00  0.00    -0.252 A  
HETATM   22  I   UNL     1     -10.498  11.697  63.982  1.00  0.00    -0.559 I  
ENDBRANCH  12  13
ENDBRANCH  11  12
ENDBRANCH  10  11
ENDBRANCH   9  10
ENDBRANCH   8   9
ENDBRANCH   7   8
ENDBRANCH   6   7
ENDBRANCH   4   6
ENDBRANCH   3   4
ENDBRANCH   2   3
TORSDOF 10
ENDMDL
MODEL      172
REMARK 921   NORMALIZED FREE ENERGY PREDICTED BY IDOCK:   -3.71 KCAL/MOL
REMARK 922        TOTAL FREE ENERGY PREDICTED BY IDOCK:   -7.28 KCAL/MOL
REMARK 923 INTER-LIGAND FREE ENERGY PREDICTED BY IDOCK:   -6.04 KCAL/MOL
REMARK 924 INTRA-LIGAND FREE ENERGY PREDICTED BY IDOCK:   -1.23 KCAL/MOL
REMARK 927      BINDING AFFINITY PREDICTED BY RF-SCORE:    0.00 PKD
ROOT
HETATM    1  C   UNL     1     -12.364  12.274  63.465  1.00  0.00    -0.670 C  
HETATM    2  C   UNL     1     -12.041  13.054  64.727  1.00  0.00    -0.415 C  
ENDROOT
BRANCH   2   3
HETATM    3  O   UNL     1     -12.173  12.159  65.839  1.00  0.00    -0.604 OA 
BRANCH   3   4
HETATM    4  C   UNL     1     -11.930  12.728  67.054  1.00  0.00    -0.295 C  
HETATM    5  O   UNL     1     -12.160  13.893  67.346  1.00  0.00    -0.392 OA 
BRANCH   4   6
HETATM    6  C   UNL     1     -11.426  11.672  68.003  1.00  0.00    -0.385 C  
BRANCH   6   7
HETATM    7  C   UNL     1     -11.112  10.384  67.251  1.00  0.00    -0.251 C  
BRANCH   7   8
HETATM    8  C   UNL     1     -10.041   9.559  67.956  1.00  0.00    -0.226 C  
BRANCH   8   9
HETATM    9  C   UNL     1      -9.493  10.329  69.156  1.00  0.00    -0.225 C  
BRANCH   9  10
HETATM   10  C   UNL     1      -9.517   9.477  70.418  1.00  0.00    -0.317 C  
BRANCH  10  11
HETATM   11  C   UNL     1     -10.866   9.583  71.129  1.00  0.00    -0.425 C  
BRANCH  11  12
HETATM   12  C   UNL     1     -11.637   8.274  70.998  1.00  0.00    -0.301 C  
BRANCH  12  13
HETATM   13  C   UNL     1     -10.709   7.079  70.764  1.00  0.00    -0.252 C  
HETATM   14  C   UNL     1     -10.496   6.243  72.044  1.00  0.00    -0.239 C  
HETATM   15  C   UNL     1      -9.430   5.174  71.814  1.00  0.00    -0.188 A  
HETATM   16  C   UNL     1     -11.819   5.663  72.574  1.00  0.00    -0.194 C  
HETATM   17  C   UNL     1      -9.809   3.914  71.305  1.00  0.00    -0.227 A  
HETATM   18  C   UNL     1      -8.880   2.888  71.119  1.00  0.00    -0.141 A  
HETATM   19  C   UNL     1      -7.541   3.100  71.419  1.00  0.00    -0.044 A  
HETATM   20  C   UNL     1      -7.130   4.346  71.883  1.00  0.00    -0.055 A  
HETATM   21  C   UNL     1      -8.059   5.379  72.075  1.00  0.00    -0.114 A  
HETATM   22  I   UNL     1      -7.254   7.208  72.748  1.00  0.00    -0.084 I  
ENDBRANCH  12  13
ENDBRANCH  11  12
ENDBRANCH  10  11
ENDBRANCH   9  10
ENDBRANCH   8   9
ENDBRANCH   7   8
ENDBRANCH   6   7
ENDBRANCH   4   6
ENDBRANCH   3   4
ENDBRANCH   2   3
TORSDOF 10
ENDMDL
MODEL      173
REMARK 921   NORMALIZED FREE ENERGY PREDICTED BY IDOCK:   -3.71 KCAL/MOL
REMARK 922        TOTAL FREE ENERGY PREDICTED BY IDOCK:   -7.28 KCAL/MOL
REMARK 923 INTER-LIGAND FREE ENERGY PREDICTED BY IDOCK:   -6.27 KCAL/MOL
REMARK 924 INTRA-LIGAND FREE ENERGY PREDICTED BY IDOCK:   -1.01 KCAL/MOL
REMARK 927      BINDING AFFINITY PREDICTED BY RF-SCORE:    0.00 PKD
ROOT
HETATM    1  C   UNL     1      -7.709   9.621  64.283  1.00  0.00    -0.129 C  
HETATM    2  C   UNL     1      -8.724  10.600  64.844  1.00  0.00    -0.168 C  
ENDROOT
BRANCH   2   3
HETATM    3  O   UNL     1      -9.632   9.863  65.671  1.00  0.00    -0.215 OA 
BRANCH   3   4
HETATM    4  C   UNL     1      -9.654  10.255  66.977  1.00  0.00    -0.171 C  
HETATM    5  O   UNL     1      -8.686  10.277  67.723  1.00  0.00    -0.121 OA 
BRANCH   4   6
HETATM    6  C   UNL     1     -11.036  10.745  67.323  1.00  0.00    -0.339 C  
BRANCH   6   7
HETATM    7  C   UNL     1     -10.974  11.760  68.459  1.00  0.00    -0.270 C  
BRANCH   7   8
HETATM    8  C   UNL     1     -11.082  11.093  69.826  1.00  0.00    -0.271 C  
BRANCH   8   9
HETATM    9  C   UNL     1     -12.156  11.786  70.662  1.00  0.00    -0.407 C  
BRANCH   9  10
HETATM   10  C   UNL     1     -12.947  10.781  71.489  1.00  0.00    -0.562 C  
BRANCH  10  11
HETATM   11  C   UNL     1     -12.650   9.349  71.048  1.00  0.00    -0.291 C  
BRANCH  11  12
HETATM   12  C   UNL     1     -13.201   8.357  72.068  1.00  0.00    -0.372 C  
BRANCH  12  13
HETATM   13  C   UNL     1     -12.647   6.945  71.855  1.00  0.00    -0.336 C  
HETATM   14  C   UNL     1     -11.104   6.911  71.877  1.00  0.00    -0.278 C  
HETATM   15  C   UNL     1     -10.594   5.526  71.484  1.00  0.00    -0.302 A  
HETATM   16  C   UNL     1     -10.542   7.395  73.225  1.00  0.00    -0.442 C  
HETATM   17  C   UNL     1     -10.422   4.542  72.480  1.00  0.00    -0.251 A  
HETATM   18  C   UNL     1      -9.915   3.276  72.180  1.00  0.00    -0.231 A  
HETATM   19  C   UNL     1      -9.585   2.951  70.871  1.00  0.00    -0.208 A  
HETATM   20  C   UNL     1      -9.783   3.887  69.860  1.00  0.00    -0.235 A  
HETATM   21  C   UNL     1     -10.288   5.162  70.156  1.00  0.00    -0.270 A  
HETATM   22  I   UNL     1     -10.557   6.437  68.498  1.00  0.00    -0.404 I  
ENDBRANCH  12  13
ENDBRANCH  11  12
ENDBRANCH  10  11
ENDBRANCH   9  10
ENDBRANCH   8   9
ENDBRANCH   7   8
ENDBRANCH   6   7
ENDBRANCH   4   6
ENDBRANCH   3   4
ENDBRANCH   2   3
TORSDOF 10
ENDMDL
MODEL      174
REMARK 921   NORMALIZED FREE ENERGY PREDICTED BY IDOCK:   -3.71 KCAL/MOL
REMARK 922        TOTAL FREE ENERGY PREDICTED BY IDOCK:   -7.27 KCAL/MOL
REMARK 923 INTER-LIGAND FREE ENERGY PREDICTED BY IDOCK:   -4.99 KCAL/MOL
REMARK 924 INTRA-LIGAND FREE ENERGY PREDICTED BY IDOCK:   -2.28 KCAL/MOL
REMARK 927      BINDING AFFINITY PREDICTED BY RF-SCORE:    0.00 PKD
ROOT
HETATM    1  C   UNL     1      -9.433   3.743  70.145  1.00  0.00    -0.259 C  
HETATM    2  C   UNL     1      -9.436   4.818  71.216  1.00  0.00    -0.156 C  
ENDROOT
BRANCH   2   3
HETATM    3  O   UNL     1     -10.685   5.516  71.131  1.00  0.00    -0.247 OA 
BRANCH   3   4
HETATM    4  C   UNL     1     -11.254   5.805  72.335  1.00  0.00    -0.290 C  
HETATM    5  O   UNL     1     -11.524   4.987  73.202  1.00  0.00    -0.327 OA 
BRANCH   4   6
HETATM    6  C   UNL     1     -11.408   7.299  72.464  1.00  0.00    -0.338 C  
BRANCH   6   7
HETATM    7  C   UNL     1     -12.447   7.816  71.475  1.00  0.00    -0.348 C  
BRANCH   7   8
HETATM    8  C   UNL     1     -12.748   9.295  71.686  1.00  0.00    -0.442 C  
BRANCH   8   9
HETATM    9  C   UNL     1     -11.642  10.148  71.066  1.00  0.00    -0.462 C  
BRANCH   9  10
HETATM   10  C   UNL     1     -12.068  10.712  69.718  1.00  0.00    -0.343 C  
BRANCH  10  11
HETATM   11  C   UNL     1     -10.859  10.956  68.816  1.00  0.00    -0.251 C  
BRANCH  11  12
HETATM   12  C   UNL     1     -10.894  10.011  67.618  1.00  0.00    -0.336 C  
BRANCH  12  13
HETATM   13  C   UNL     1      -9.662   9.104  67.564  1.00  0.00    -0.204 C  
HETATM   14  C   UNL     1      -9.834   7.830  68.418  1.00  0.00    -0.180 C  
HETATM   15  C   UNL     1      -8.525   7.046  68.480  1.00  0.00    -0.121 A  
HETATM   16  C   UNL     1     -11.020   6.975  67.934  1.00  0.00    -0.202 C  
HETATM   17  C   UNL     1      -8.241   6.088  67.484  1.00  0.00    -0.106 A  
HETATM   18  C   UNL     1      -7.080   5.314  67.520  1.00  0.00    -0.067 A  
HETATM   19  C   UNL     1      -6.159   5.490  68.544  1.00  0.00    -0.022 A  
HETATM   20  C   UNL     1      -6.391   6.456  69.519  1.00  0.00    -0.035 A  
HETATM   21  C   UNL     1      -7.558   7.235  69.489  1.00  0.00    -0.100 A  
HETATM   22  I   UNL     1      -7.726   8.673  71.022  1.00  0.00    -0.156 I  
ENDBRANCH  12  13
ENDBRANCH  11  12
ENDBRANCH  10  11
ENDBRANCH   9  10
ENDBRANCH   8   9
ENDBRANCH   7   8
ENDBRANCH   6   7
ENDBRANCH   4   6
ENDBRANCH   3   4
ENDBRANCH   2   3
TORSDOF 10
ENDMDL
MODEL      175
REMARK 921   NORMALIZED FREE ENERGY PREDICTED BY IDOCK:   -3.70 KCAL/MOL
REMARK 922        TOTAL FREE ENERGY PREDICTED BY IDOCK:   -7.27 KCAL/MOL
REMARK 923 INTER-LIGAND FREE ENERGY PREDICTED BY IDOCK:   -6.44 KCAL/MOL
REMARK 924 INTRA-LIGAND FREE ENERGY PREDICTED BY IDOCK:   -0.83 KCAL/MOL
REMARK 927      BINDING AFFINITY PREDICTED BY RF-SCORE:    0.00 PKD
ROOT
HETATM    1  C   UNL     1     -10.342  19.660  66.507  1.00  0.00    -0.601 C  
HETATM    2  C   UNL     1     -10.739  18.298  67.044  1.00  0.00    -0.276 C  
ENDROOT
BRANCH   2   3
HETATM    3  O   UNL     1     -10.304  18.221  68.407  1.00  0.00    -0.372 OA 
BRANCH   3   4
HETATM    4  C   UNL     1      -9.180  17.475  68.601  1.00  0.00    -0.267 C  
HETATM    5  O   UNL     1      -8.047  17.921  68.712  1.00  0.00    -0.292 OA 
BRANCH   4   6
HETATM    6  C   UNL     1      -9.567  16.026  68.750  1.00  0.00    -0.221 C  
BRANCH   6   7
HETATM    7  C   UNL     1     -10.642  15.868  69.819  1.00  0.00    -0.322 C  
BRANCH   7   8
HETATM    8  C   UNL     1     -11.873  15.144  69.286  1.00  0.00    -0.347 C  
BRANCH   8   9
HETATM    9  C   UNL     1     -11.452  13.903  68.502  1.00  0.00    -0.346 C  
BRANCH   9  10
HETATM   10  C   UNL     1     -11.896  12.627  69.203  1.00  0.00    -0.349 C  
BRANCH  10  11
HETATM   11  C   UNL     1     -11.571  11.394  68.361  1.00  0.00    -0.385 C  
BRANCH  11  12
HETATM   12  C   UNL     1     -10.111  10.994  68.551  1.00  0.00    -0.198 C  
BRANCH  12  13
HETATM   13  C   UNL     1      -9.957   9.813  69.512  1.00  0.00    -0.230 C  
HETATM   14  C   UNL     1     -10.802   8.595  69.083  1.00  0.00    -0.060 C  
HETATM   15  C   UNL     1     -10.762   7.509  70.157  1.00  0.00    -0.248 A  
HETATM   16  C   UNL     1     -10.391   8.076  67.694  1.00  0.00    -0.312 C  
HETATM   17  C   UNL     1      -9.734   6.543  70.129  1.00  0.00    -0.180 A  
HETATM   18  C   UNL     1      -9.678   5.504  71.060  1.00  0.00    -0.229 A  
HETATM   19  C   UNL     1     -10.637   5.415  72.060  1.00  0.00    -0.284 A  
HETATM   20  C   UNL     1     -11.639   6.377  72.139  1.00  0.00    -0.357 A  
HETATM   21  C   UNL     1     -11.703   7.421  71.204  1.00  0.00    -0.294 A  
HETATM   22  I   UNL     1     -13.264   8.807  71.498  1.00  0.00    -0.271 I  
ENDBRANCH  12  13
ENDBRANCH  11  12
ENDBRANCH  10  11
ENDBRANCH   9  10
ENDBRANCH   8   9
ENDBRANCH   7   8
ENDBRANCH   6   7
ENDBRANCH   4   6
ENDBRANCH   3   4
ENDBRANCH   2   3
TORSDOF 10
ENDMDL
MODEL      176
REMARK 921   NORMALIZED FREE ENERGY PREDICTED BY IDOCK:   -3.70 KCAL/MOL
REMARK 922        TOTAL FREE ENERGY PREDICTED BY IDOCK:   -7.26 KCAL/MOL
REMARK 923 INTER-LIGAND FREE ENERGY PREDICTED BY IDOCK:   -6.28 KCAL/MOL
REMARK 924 INTRA-LIGAND FREE ENERGY PREDICTED BY IDOCK:   -0.98 KCAL/MOL
REMARK 927      BINDING AFFINITY PREDICTED BY RF-SCORE:    0.00 PKD
ROOT
HETATM    1  C   UNL     1      -7.363   8.762  62.754  1.00  0.00    -0.098 C  
HETATM    2  C   UNL     1      -7.836   9.490  63.998  1.00  0.00    -0.130 C  
ENDROOT
BRANCH   2   3
HETATM    3  O   UNL     1      -8.569   8.554  64.800  1.00  0.00    -0.159 OA 
BRANCH   3   4
HETATM    4  C   UNL     1      -9.536   9.114  65.581  1.00  0.00    -0.240 C  
HETATM    5  O   UNL     1     -10.173   8.528  66.443  1.00  0.00    -0.273 OA 
BRANCH   4   6
HETATM    6  C   UNL     1      -9.626  10.587  65.277  1.00  0.00    -0.303 C  
BRANCH   6   7
HETATM    7  C   UNL     1      -9.867  11.382  66.555  1.00  0.00    -0.237 C  
BRANCH   7   8
HETATM    8  C   UNL     1     -11.337  11.749  66.730  1.00  0.00    -0.385 C  
BRANCH   8   9
HETATM    9  C   UNL     1     -11.836  11.274  68.093  1.00  0.00    -0.276 C  
BRANCH   9  10
HETATM   10  C   UNL     1     -11.339  12.181  69.211  1.00  0.00    -0.327 C  
BRANCH  10  11
HETATM   11  C   UNL     1     -11.540  13.654  68.855  1.00  0.00    -0.362 C  
BRANCH  11  12
HETATM   12  C   UNL     1     -10.193  14.365  68.768  1.00  0.00    -0.239 C  
BRANCH  12  13
HETATM   13  C   UNL     1     -10.342  15.833  68.360  1.00  0.00    -0.233 C  
HETATM   14  C   UNL     1      -9.526  16.176  67.096  1.00  0.00    -0.231 C  
HETATM   15  C   UNL     1      -9.558  17.680  66.829  1.00  0.00    -0.297 A  
HETATM   16  C   UNL     1      -9.977  15.344  65.882  1.00  0.00    -0.374 C  
HETATM   17  C   UNL     1     -10.600  18.224  66.049  1.00  0.00    -0.318 A  
HETATM   18  C   UNL     1     -10.650  19.584  65.738  1.00  0.00    -0.522 A  
HETATM   19  C   UNL     1      -9.670  20.443  66.216  1.00  0.00    -0.356 A  
HETATM   20  C   UNL     1      -8.652  19.942  67.022  1.00  0.00    -0.389 A  
HETATM   21  C   UNL     1      -8.594  18.576  67.335  1.00  0.00    -0.258 A  
HETATM   22  I   UNL     1      -7.006  18.001  68.597  1.00  0.00    -0.269 I  
ENDBRANCH  12  13
ENDBRANCH  11  12
ENDBRANCH  10  11
ENDBRANCH   9  10
ENDBRANCH   8   9
ENDBRANCH   7   8
ENDBRANCH   6   7
ENDBRANCH   4   6
ENDBRANCH   3   4
ENDBRANCH   2   3
TORSDOF 10
ENDMDL
MODEL      177
REMARK 921   NORMALIZED FREE ENERGY PREDICTED BY IDOCK:   -3.69 KCAL/MOL
REMARK 922        TOTAL FREE ENERGY PREDICTED BY IDOCK:   -7.24 KCAL/MOL
REMARK 923 INTER-LIGAND FREE ENERGY PREDICTED BY IDOCK:   -5.99 KCAL/MOL
REMARK 924 INTRA-LIGAND FREE ENERGY PREDICTED BY IDOCK:   -1.25 KCAL/MOL
REMARK 927      BINDING AFFINITY PREDICTED BY RF-SCORE:    0.00 PKD
ROOT
HETATM    1  C   UNL     1      -8.131  14.605  67.558  1.00  0.00    -0.200 C  
HETATM    2  C   UNL     1      -9.459  13.976  67.178  1.00  0.00    -0.241 C  
ENDROOT
BRANCH   2   3
HETATM    3  O   UNL     1      -9.968  13.297  68.333  1.00  0.00    -0.235 OA 
BRANCH   3   4
HETATM    4  C   UNL     1     -11.324  13.338  68.460  1.00  0.00    -0.284 C  
HETATM    5  O   UNL     1     -12.034  14.282  68.148  1.00  0.00    -0.339 OA 
BRANCH   4   6
HETATM    6  C   UNL     1     -11.815  12.002  68.957  1.00  0.00    -0.372 C  
BRANCH   6   7
HETATM    7  C   UNL     1     -11.952  12.014  70.475  1.00  0.00    -0.338 C  
BRANCH   7   8
HETATM    8  C   UNL     1     -11.951  10.606  71.058  1.00  0.00    -0.442 C  
BRANCH   8   9
HETATM    9  C   UNL     1     -11.253   9.643  70.099  1.00  0.00    -0.302 C  
BRANCH   9  10
HETATM   10  C   UNL     1     -10.060   8.968  70.763  1.00  0.00    -0.303 C  
BRANCH  10  11
HETATM   11  C   UNL     1      -8.743   9.538  70.238  1.00  0.00    -0.270 C  
BRANCH  11  12
HETATM   12  C   UNL     1      -8.300   8.783  68.988  1.00  0.00    -0.129 C  
BRANCH  12  13
HETATM   13  C   UNL     1      -8.476   9.619  67.718  1.00  0.00    -0.125 C  
HETATM   14  C   UNL     1      -9.233   8.853  66.612  1.00  0.00    -0.215 C  
HETATM   15  C   UNL     1      -9.228   9.650  65.309  1.00  0.00    -0.295 A  
HETATM   16  C   UNL     1     -10.649   8.452  67.063  1.00  0.00    -0.316 C  
HETATM   17  C   UNL     1     -10.252  10.590  65.068  1.00  0.00    -0.365 A  
HETATM   18  C   UNL     1     -10.319  11.311  63.874  1.00  0.00    -0.439 A  
HETATM   19  C   UNL     1      -9.351  11.126  62.895  1.00  0.00    -0.385 A  
HETATM   20  C   UNL     1      -8.306  10.236  63.122  1.00  0.00    -0.167 A  
HETATM   21  C   UNL     1      -8.236   9.506  64.318  1.00  0.00    -0.157 A  
HETATM   22  I   UNL     1      -6.566   8.232  64.505  1.00  0.00    -0.066 I  
ENDBRANCH  12  13
ENDBRANCH  11  12
ENDBRANCH  10  11
ENDBRANCH   9  10
ENDBRANCH   8   9
ENDBRANCH   7   8
ENDBRANCH   6   7
ENDBRANCH   4   6
ENDBRANCH   3   4
ENDBRANCH   2   3
TORSDOF 10
ENDMDL
MODEL      178
REMARK 921   NORMALIZED FREE ENERGY PREDICTED BY IDOCK:   -3.68 KCAL/MOL
REMARK 922        TOTAL FREE ENERGY PREDICTED BY IDOCK:   -7.23 KCAL/MOL
REMARK 923 INTER-LIGAND FREE ENERGY PREDICTED BY IDOCK:   -6.56 KCAL/MOL
REMARK 924 INTRA-LIGAND FREE ENERGY PREDICTED BY IDOCK:   -0.67 KCAL/MOL
REMARK 927      BINDING AFFINITY PREDICTED BY RF-SCORE:    0.00 PKD
ROOT
HETATM    1  C   UNL     1      -7.002  16.963  66.550  1.00  0.00    -0.262 C  
HETATM    2  C   UNL     1      -8.495  17.121  66.331  1.00  0.00    -0.272 C  
ENDROOT
BRANCH   2   3
HETATM    3  O   UNL     1      -9.024  15.836  65.980  1.00  0.00    -0.333 OA 
BRANCH   3   4
HETATM    4  C   UNL     1     -10.354  15.682  66.238  1.00  0.00    -0.306 C  
HETATM    5  O   UNL     1     -10.934  16.106  67.227  1.00  0.00    -0.283 OA 
BRANCH   4   6
HETATM    6  C   UNL     1     -11.009  14.992  65.069  1.00  0.00    -0.436 C  
BRANCH   6   7
HETATM    7  C   UNL     1     -10.435  13.592  64.885  1.00  0.00    -0.426 C  
BRANCH   7   8
HETATM    8  C   UNL     1     -11.415  12.663  64.178  1.00  0.00    -0.447 C  
BRANCH   8   9
HETATM    9  C   UNL     1     -10.697  11.395  63.721  1.00  0.00    -0.470 C  
BRANCH   9  10
HETATM   10  C   UNL     1      -9.628  10.974  64.720  1.00  0.00    -0.292 C  
BRANCH  10  11
HETATM   11  C   UNL     1     -10.140   9.868  65.642  1.00  0.00    -0.307 C  
BRANCH  11  12
HETATM   12  C   UNL     1      -9.972  10.276  67.102  1.00  0.00    -0.243 C  
BRANCH  12  13
HETATM   13  C   UNL     1     -10.532   9.224  68.063  1.00  0.00    -0.275 C  
HETATM   14  C   UNL     1     -10.396   9.648  69.541  1.00  0.00    -0.235 C  
HETATM   15  C   UNL     1     -10.799   8.502  70.466  1.00  0.00    -0.252 A  
HETATM   16  C   UNL     1     -11.162  10.950  69.833  1.00  0.00    -0.355 C  
HETATM   17  C   UNL     1     -12.150   8.361  70.848  1.00  0.00    -0.152 A  
HETATM   18  C   UNL     1     -12.562   7.358  71.728  1.00  0.00    -0.367 A  
HETATM   19  C   UNL     1     -11.638   6.455  72.235  1.00  0.00    -0.341 A  
HETATM   20  C   UNL     1     -10.305   6.543  71.843  1.00  0.00    -0.223 A  
HETATM   21  C   UNL     1      -9.884   7.550  70.963  1.00  0.00    -0.179 A  
HETATM   22  I   UNL     1      -7.839   7.510  70.451  1.00  0.00    -0.099 I  
ENDBRANCH  12  13
ENDBRANCH  11  12
ENDBRANCH  10  11
ENDBRANCH   9  10
ENDBRANCH   8   9
ENDBRANCH   7   8
ENDBRANCH   6   7
ENDBRANCH   4   6
ENDBRANCH   3   4
ENDBRANCH   2   3
TORSDOF 10
ENDMDL
MODEL      179
REMARK 921   NORMALIZED FREE ENERGY PREDICTED BY IDOCK:   -3.68 KCAL/MOL
REMARK 922        TOTAL FREE ENERGY PREDICTED BY IDOCK:   -7.23 KCAL/MOL
REMARK 923 INTER-LIGAND FREE ENERGY PREDICTED BY IDOCK:   -5.36 KCAL/MOL
REMARK 924 INTRA-LIGAND FREE ENERGY PREDICTED BY IDOCK:   -1.87 KCAL/MOL
REMARK 927      BINDING AFFINITY PREDICTED BY RF-SCORE:    0.00 PKD
ROOT
HETATM    1  C   UNL     1      -8.732   5.256  65.145  1.00  0.00    -0.146 C  
HETATM    2  C   UNL     1      -7.734   5.351  66.284  1.00  0.00    -0.099 C  
ENDROOT
BRANCH   2   3
HETATM    3  O   UNL     1      -8.474   5.409  67.510  1.00  0.00    -0.107 OA 
BRANCH   3   4
HETATM    4  C   UNL     1      -7.938   6.232  68.456  1.00  0.00    -0.105 C  
HETATM    5  O   UNL     1      -6.775   6.607  68.487  1.00  0.00    -0.059 OA 
BRANCH   4   6
HETATM    6  C   UNL     1      -9.026   6.680  69.397  1.00  0.00    -0.133 C  
BRANCH   6   7
HETATM    7  C   UNL     1     -10.399   6.354  68.819  1.00  0.00    -0.232 C  
BRANCH   7   8
HETATM    8  C   UNL     1     -11.449   6.177  69.910  1.00  0.00    -0.371 C  
BRANCH   8   9
HETATM    9  C   UNL     1     -10.953   6.791  71.218  1.00  0.00    -0.288 C  
BRANCH   9  10
HETATM   10  C   UNL     1     -11.754   8.034  71.584  1.00  0.00    -0.325 C  
BRANCH  10  11
HETATM   11  C   UNL     1     -10.884   9.288  71.521  1.00  0.00    -0.442 C  
BRANCH  11  12
HETATM   12  C   UNL     1     -11.501  10.313  70.573  1.00  0.00    -0.427 C  
BRANCH  12  13
HETATM   13  C   UNL     1     -11.235   9.972  69.105  1.00  0.00    -0.197 C  
HETATM   14  C   UNL     1      -9.971  10.671  68.561  1.00  0.00    -0.176 C  
HETATM   15  C   UNL     1      -9.843  10.451  67.054  1.00  0.00    -0.234 A  
HETATM   16  C   UNL     1      -8.709  10.252  69.335  1.00  0.00    -0.168 C  
HETATM   17  C   UNL     1      -9.165   9.310  66.576  1.00  0.00    -0.206 A  
HETATM   18  C   UNL     1      -8.981   9.086  65.210  1.00  0.00    -0.233 A  
HETATM   19  C   UNL     1      -9.489   9.986  64.283  1.00  0.00    -0.336 A  
HETATM   20  C   UNL     1     -10.199  11.099  64.724  1.00  0.00    -0.365 A  
HETATM   21  C   UNL     1     -10.384  11.331  66.095  1.00  0.00    -0.251 A  
HETATM   22  I   UNL     1     -11.515  13.044  66.579  1.00  0.00    -0.460 I  
ENDBRANCH  12  13
ENDBRANCH  11  12
ENDBRANCH  10  11
ENDBRANCH   9  10
ENDBRANCH   8   9
ENDBRANCH   7   8
ENDBRANCH   6   7
ENDBRANCH   4   6
ENDBRANCH   3   4
ENDBRANCH   2   3
TORSDOF 10
ENDMDL
MODEL      180
REMARK 921   NORMALIZED FREE ENERGY PREDICTED BY IDOCK:   -3.68 KCAL/MOL
REMARK 922        TOTAL FREE ENERGY PREDICTED BY IDOCK:   -7.22 KCAL/MOL
REMARK 923 INTER-LIGAND FREE ENERGY PREDICTED BY IDOCK:   -4.96 KCAL/MOL
REMARK 924 INTRA-LIGAND FREE ENERGY PREDICTED BY IDOCK:   -2.27 KCAL/MOL
REMARK 927      BINDING AFFINITY PREDICTED BY RF-SCORE:    0.00 PKD
ROOT
HETATM    1  C   UNL     1     -10.092  11.934  66.769  1.00  0.00    -0.225 C  
HETATM    2  C   UNL     1     -10.267  12.709  68.063  1.00  0.00    -0.230 C  
ENDROOT
BRANCH   2   3
HETATM    3  O   UNL     1     -11.643  12.609  68.450  1.00  0.00    -0.283 OA 
BRANCH   3   4
HETATM    4  C   UNL     1     -11.845  12.096  69.696  1.00  0.00    -0.322 C  
HETATM    5  O   UNL     1     -12.133  12.747  70.689  1.00  0.00    -0.353 OA 
BRANCH   4   6
HETATM    6  C   UNL     1     -11.751  10.593  69.634  1.00  0.00    -0.368 C  
BRANCH   6   7
HETATM    7  C   UNL     1     -11.546  10.012  71.028  1.00  0.00    -0.476 C  
BRANCH   7   8
HETATM    8  C   UNL     1     -12.044   8.575  71.126  1.00  0.00    -0.283 C  
BRANCH   8   9
HETATM    9  C   UNL     1     -11.423   7.888  72.341  1.00  0.00    -0.433 C  
BRANCH   9  10
HETATM   10  C   UNL     1      -9.917   8.106  72.391  1.00  0.00    -0.345 C  
BRANCH  10  11
HETATM   11  C   UNL     1      -9.183   7.081  71.526  1.00  0.00    -0.153 C  
BRANCH  11  12
HETATM   12  C   UNL     1      -7.750   7.536  71.269  1.00  0.00    -0.085 C  
BRANCH  12  13
HETATM   13  C   UNL     1      -7.466   7.732  69.778  1.00  0.00    -0.089 C  
HETATM   14  C   UNL     1      -8.288   8.889  69.172  1.00  0.00    -0.124 C  
HETATM   15  C   UNL     1      -8.112   8.934  67.655  1.00  0.00    -0.106 A  
HETATM   16  C   UNL     1      -7.968  10.233  69.850  1.00  0.00    -0.092 C  
HETATM   17  C   UNL     1      -7.048   9.677  67.102  1.00  0.00    -0.086 A  
HETATM   18  C   UNL     1      -6.871   9.788  65.721  1.00  0.00    -0.098 A  
HETATM   19  C   UNL     1      -7.741   9.140  64.855  1.00  0.00    -0.110 A  
HETATM   20  C   UNL     1      -8.775   8.366  65.371  1.00  0.00    -0.175 A  
HETATM   21  C   UNL     1      -8.961   8.254  66.757  1.00  0.00    -0.147 A  
HETATM   22  I   UNL     1     -10.554   7.011  67.361  1.00  0.00    -0.371 I  
ENDBRANCH  12  13
ENDBRANCH  11  12
ENDBRANCH  10  11
ENDBRANCH   9  10
ENDBRANCH   8   9
ENDBRANCH   7   8
ENDBRANCH   6   7
ENDBRANCH   4   6
ENDBRANCH   3   4
ENDBRANCH   2   3
TORSDOF 10
ENDMDL
MODEL      181
REMARK 921   NORMALIZED FREE ENERGY PREDICTED BY IDOCK:   -3.67 KCAL/MOL
REMARK 922        TOTAL FREE ENERGY PREDICTED BY IDOCK:   -7.21 KCAL/MOL
REMARK 923 INTER-LIGAND FREE ENERGY PREDICTED BY IDOCK:   -6.23 KCAL/MOL
REMARK 924 INTRA-LIGAND FREE ENERGY PREDICTED BY IDOCK:   -0.99 KCAL/MOL
REMARK 927      BINDING AFFINITY PREDICTED BY RF-SCORE:    0.00 PKD
ROOT
HETATM    1  C   UNL     1      -9.300   7.795  73.210  1.00  0.00    -0.331 C  
HETATM    2  C   UNL     1     -10.416   7.050  73.918  1.00  0.00    -0.294 C  
ENDROOT
BRANCH   2   3
HETATM    3  O   UNL     1     -10.524   5.752  73.321  1.00  0.00    -0.203 OA 
BRANCH   3   4
HETATM    4  C   UNL     1     -11.157   5.736  72.113  1.00  0.00    -0.271 C  
HETATM    5  O   UNL     1     -12.228   6.272  71.872  1.00  0.00    -0.329 OA 
BRANCH   4   6
HETATM    6  C   UNL     1     -10.282   5.038  71.105  1.00  0.00    -0.281 C  
BRANCH   6   7
HETATM    7  C   UNL     1     -10.318   5.769  69.768  1.00  0.00    -0.332 C  
BRANCH   7   8
HETATM    8  C   UNL     1      -9.402   6.988  69.761  1.00  0.00    -0.146 C  
BRANCH   8   9
HETATM    9  C   UNL     1     -10.231   8.265  69.639  1.00  0.00    -0.209 C  
BRANCH   9  10
HETATM   10  C   UNL     1      -9.344   9.483  69.420  1.00  0.00    -0.185 C  
BRANCH  10  11
HETATM   11  C   UNL     1      -9.390   9.942  67.963  1.00  0.00    -0.140 C  
BRANCH  11  12
HETATM   12  C   UNL     1     -10.835  10.067  67.493  1.00  0.00    -0.326 C  
BRANCH  12  13
HETATM   13  C   UNL     1     -11.160  11.477  66.994  1.00  0.00    -0.365 C  
HETATM   14  C   UNL     1     -10.226  11.923  65.849  1.00  0.00    -0.270 C  
HETATM   15  C   UNL     1     -10.464  13.392  65.505  1.00  0.00    -0.297 A  
HETATM   16  C   UNL     1     -10.341  10.997  64.625  1.00  0.00    -0.410 C  
HETATM   17  C   UNL     1     -11.449  13.731  64.554  1.00  0.00    -0.401 A  
HETATM   18  C   UNL     1     -11.674  15.055  64.171  1.00  0.00    -0.125 A  
HETATM   19  C   UNL     1     -10.933  16.080  64.745  1.00  0.00    -0.373 A  
HETATM   20  C   UNL     1      -9.984  15.780  65.717  1.00  0.00    -0.389 A  
HETATM   21  C   UNL     1      -9.750  14.452  66.103  1.00  0.00    -0.312 A  
HETATM   22  I   UNL     1      -8.303  14.188  67.613  1.00  0.00    -0.238 I  
ENDBRANCH  12  13
ENDBRANCH  11  12
ENDBRANCH  10  11
ENDBRANCH   9  10
ENDBRANCH   8   9
ENDBRANCH   7   8
ENDBRANCH   6   7
ENDBRANCH   4   6
ENDBRANCH   3   4
ENDBRANCH   2   3
TORSDOF 10
ENDMDL
MODEL      182
REMARK 921   NORMALIZED FREE ENERGY PREDICTED BY IDOCK:   -3.67 KCAL/MOL
REMARK 922        TOTAL FREE ENERGY PREDICTED BY IDOCK:   -7.21 KCAL/MOL
REMARK 923 INTER-LIGAND FREE ENERGY PREDICTED BY IDOCK:   -6.07 KCAL/MOL
REMARK 924 INTRA-LIGAND FREE ENERGY PREDICTED BY IDOCK:   -1.14 KCAL/MOL
REMARK 927      BINDING AFFINITY PREDICTED BY RF-SCORE:    0.00 PKD
ROOT
HETATM    1  C   UNL     1      -7.540  14.303  67.408  1.00  0.00    -0.185 C  
HETATM    2  C   UNL     1      -7.260  14.663  68.856  1.00  0.00    -0.124 C  
ENDROOT
BRANCH   2   3
HETATM    3  O   UNL     1      -5.964  15.272  68.912  1.00  0.00    -0.092 OA 
BRANCH   3   4
HETATM    4  C   UNL     1      -5.904  16.522  68.372  1.00  0.00    -0.120 C  
HETATM    5  O   UNL     1      -5.285  16.825  67.362  1.00  0.00    -0.118 OA 
BRANCH   4   6
HETATM    6  C   UNL     1      -6.796  17.446  69.160  1.00  0.00    -0.228 C  
BRANCH   6   7
HETATM    7  C   UNL     1      -7.386  18.521  68.254  1.00  0.00    -0.294 C  
BRANCH   7   8
HETATM    8  C   UNL     1      -8.864  18.279  67.970  1.00  0.00    -0.290 C  
BRANCH   8   9
HETATM    9  C   UNL     1      -9.029  17.577  66.624  1.00  0.00    -0.283 C  
BRANCH   9  10
HETATM   10  C   UNL     1     -10.480  17.183  66.379  1.00  0.00    -0.255 C  
BRANCH  10  11
HETATM   11  C   UNL     1     -10.585  16.112  65.294  1.00  0.00    -0.390 C  
BRANCH  11  12
HETATM   12  C   UNL     1     -11.472  14.965  65.766  1.00  0.00    -0.281 C  
BRANCH  12  13
HETATM   13  C   UNL     1     -10.692  13.657  65.916  1.00  0.00    -0.281 C  
HETATM   14  C   UNL     1     -11.601  12.416  65.798  1.00  0.00    -0.449 C  
HETATM   15  C   UNL     1     -10.819  11.146  66.131  1.00  0.00    -0.247 A  
HETATM   16  C   UNL     1     -12.297  12.346  64.427  1.00  0.00    -0.532 C  
HETATM   17  C   UNL     1     -10.120  10.473  65.106  1.00  0.00    -0.383 A  
HETATM   18  C   UNL     1      -9.428   9.285  65.349  1.00  0.00    -0.281 A  
HETATM   19  C   UNL     1      -9.399   8.746  66.628  1.00  0.00    -0.242 A  
HETATM   20  C   UNL     1     -10.045   9.409  67.668  1.00  0.00    -0.262 A  
HETATM   21  C   UNL     1     -10.744  10.601  67.430  1.00  0.00    -0.276 A  
HETATM   22  I   UNL     1     -11.630  11.487  69.126  1.00  0.00    -0.457 I  
ENDBRANCH  12  13
ENDBRANCH  11  12
ENDBRANCH  10  11
ENDBRANCH   9  10
ENDBRANCH   8   9
ENDBRANCH   7   8
ENDBRANCH   6   7
ENDBRANCH   4   6
ENDBRANCH   3   4
ENDBRANCH   2   3
TORSDOF 10
ENDMDL
MODEL      183
REMARK 921   NORMALIZED FREE ENERGY PREDICTED BY IDOCK:   -3.66 KCAL/MOL
REMARK 922        TOTAL FREE ENERGY PREDICTED BY IDOCK:   -7.20 KCAL/MOL
REMARK 923 INTER-LIGAND FREE ENERGY PREDICTED BY IDOCK:   -6.29 KCAL/MOL
REMARK 924 INTRA-LIGAND FREE ENERGY PREDICTED BY IDOCK:   -0.91 KCAL/MOL
REMARK 927      BINDING AFFINITY PREDICTED BY RF-SCORE:    0.00 PKD
ROOT
HETATM    1  C   UNL     1     -11.662   8.029  72.273  1.00  0.00    -0.428 C  
HETATM    2  C   UNL     1     -11.503   9.446  71.752  1.00  0.00    -0.343 C  
ENDROOT
BRANCH   2   3
HETATM    3  O   UNL     1     -12.779  10.091  71.843  1.00  0.00    -0.395 OA 
BRANCH   3   4
HETATM    4  C   UNL     1     -12.781  11.398  71.456  1.00  0.00    -0.357 C  
HETATM    5  O   UNL     1     -13.394  12.297  72.012  1.00  0.00    -0.506 OA 
BRANCH   4   6
HETATM    6  C   UNL     1     -11.834  11.573  70.296  1.00  0.00    -0.431 C  
BRANCH   6   7
HETATM    7  C   UNL     1     -12.285  10.731  69.108  1.00  0.00    -0.122 C  
BRANCH   7   8
HETATM    8  C   UNL     1     -11.342  10.874  67.918  1.00  0.00    -0.380 C  
BRANCH   8   9
HETATM    9  C   UNL     1     -10.535   9.590  67.734  1.00  0.00    -0.309 C  
BRANCH   9  10
HETATM   10  C   UNL     1      -9.477   9.752  66.651  1.00  0.00    -0.220 C  
BRANCH  10  11
HETATM   11  C   UNL     1      -8.127  10.142  67.252  1.00  0.00    -0.114 C  
BRANCH  11  12
HETATM   12  C   UNL     1      -7.744  11.554  66.820  1.00  0.00    -0.136 C  
BRANCH  12  13
HETATM   13  C   UNL     1      -8.474  12.624  67.636  1.00  0.00    -0.173 C  
HETATM   14  C   UNL     1      -9.056  13.743  66.746  1.00  0.00    -0.235 C  
HETATM   15  C   UNL     1      -9.616  14.874  67.606  1.00  0.00    -0.200 A  
HETATM   16  C   UNL     1     -10.083  13.194  65.739  1.00  0.00    -0.290 C  
HETATM   17  C   UNL     1     -10.955  14.814  68.046  1.00  0.00    -0.276 A  
HETATM   18  C   UNL     1     -11.528  15.844  68.796  1.00  0.00    -0.393 A  
HETATM   19  C   UNL     1     -10.770  16.954  69.144  1.00  0.00    -0.298 A  
HETATM   20  C   UNL     1      -9.435  17.023  68.759  1.00  0.00    -0.263 A  
HETATM   21  C   UNL     1      -8.855  15.993  68.003  1.00  0.00    -0.175 A  
HETATM   22  I   UNL     1      -6.813  16.247  67.542  1.00  0.00    -0.243 I  
ENDBRANCH  12  13
ENDBRANCH  11  12
ENDBRANCH  10  11
ENDBRANCH   9  10
ENDBRANCH   8   9
ENDBRANCH   7   8
ENDBRANCH   6   7
ENDBRANCH   4   6
ENDBRANCH   3   4
ENDBRANCH   2   3
TORSDOF 10
ENDMDL
MODEL      184
REMARK 921   NORMALIZED FREE ENERGY PREDICTED BY IDOCK:   -3.66 KCAL/MOL
REMARK 922        TOTAL FREE ENERGY PREDICTED BY IDOCK:   -7.19 KCAL/MOL
REMARK 923 INTER-LIGAND FREE ENERGY PREDICTED BY IDOCK:   -6.20 KCAL/MOL
REMARK 924 INTRA-LIGAND FREE ENERGY PREDICTED BY IDOCK:   -0.99 KCAL/MOL
REMARK 927      BINDING AFFINITY PREDICTED BY RF-SCORE:    0.00 PKD
ROOT
HETATM    1  C   UNL     1     -13.246   7.357  71.606  1.00  0.00    -0.416 C  
HETATM    2  C   UNL     1     -11.862   7.093  71.041  1.00  0.00    -0.333 C  
ENDROOT
BRANCH   2   3
HETATM    3  O   UNL     1     -12.024   6.541  69.729  1.00  0.00    -0.277 OA 
BRANCH   3   4
HETATM    4  C   UNL     1     -10.917   5.914  69.239  1.00  0.00    -0.327 C  
HETATM    5  O   UNL     1     -10.288   5.040  69.817  1.00  0.00    -0.277 OA 
BRANCH   4   6
HETATM    6  C   UNL     1     -10.652   6.400  67.837  1.00  0.00    -0.321 C  
BRANCH   6   7
HETATM    7  C   UNL     1     -10.413   5.222  66.900  1.00  0.00    -0.313 C  
BRANCH   7   8
HETATM    8  C   UNL     1      -8.927   4.971  66.667  1.00  0.00    -0.114 C  
BRANCH   8   9
HETATM    9  C   UNL     1      -8.635   4.910  65.169  1.00  0.00    -0.144 C  
BRANCH   9  10
HETATM   10  C   UNL     1      -7.497   5.848  64.789  1.00  0.00    -0.078 C  
BRANCH  10  11
HETATM   11  C   UNL     1      -8.026   7.106  64.101  1.00  0.00    -0.085 C  
BRANCH  11  12
HETATM   12  C   UNL     1      -7.952   8.298  65.050  1.00  0.00    -0.141 C  
BRANCH  12  13
HETATM   13  C   UNL     1      -9.243   9.121  65.042  1.00  0.00    -0.180 C  
HETATM   14  C   UNL     1      -9.021  10.553  64.512  1.00  0.00    -0.231 C  
HETATM   15  C   UNL     1     -10.286  11.392  64.689  1.00  0.00    -0.362 A  
HETATM   16  C   UNL     1      -8.504  10.552  63.063  1.00  0.00    -0.178 C  
HETATM   17  C   UNL     1     -11.266  11.391  63.674  1.00  0.00    -0.366 A  
HETATM   18  C   UNL     1     -12.418  12.175  63.766  1.00  0.00    -0.620 A  
HETATM   19  C   UNL     1     -12.632  12.966  64.887  1.00  0.00    -0.525 A  
HETATM   20  C   UNL     1     -11.704  12.955  65.923  1.00  0.00    -0.449 A  
HETATM   21  C   UNL     1     -10.543  12.173  65.835  1.00  0.00    -0.258 A  
HETATM   22  I   UNL     1      -9.267  12.250  67.512  1.00  0.00    -0.208 I  
ENDBRANCH  12  13
ENDBRANCH  11  12
ENDBRANCH  10  11
ENDBRANCH   9  10
ENDBRANCH   8   9
ENDBRANCH   7   8
ENDBRANCH   6   7
ENDBRANCH   4   6
ENDBRANCH   3   4
ENDBRANCH   2   3
TORSDOF 10
ENDMDL
MODEL      185
REMARK 921   NORMALIZED FREE ENERGY PREDICTED BY IDOCK:   -3.65 KCAL/MOL
REMARK 922        TOTAL FREE ENERGY PREDICTED BY IDOCK:   -7.19 KCAL/MOL
REMARK 923 INTER-LIGAND FREE ENERGY PREDICTED BY IDOCK:   -6.29 KCAL/MOL
REMARK 924 INTRA-LIGAND FREE ENERGY PREDICTED BY IDOCK:   -0.89 KCAL/MOL
REMARK 927      BINDING AFFINITY PREDICTED BY RF-SCORE:    0.00 PKD
ROOT
HETATM    1  C   UNL     1      -6.023   6.940  72.951  1.00  0.00    -0.042 C  
HETATM    2  C   UNL     1      -6.877   6.730  71.713  1.00  0.00    -0.069 C  
ENDROOT
BRANCH   2   3
HETATM    3  O   UNL     1      -8.225   6.509  72.144  1.00  0.00    -0.107 OA 
BRANCH   3   4
HETATM    4  C   UNL     1      -8.894   7.638  72.514  1.00  0.00    -0.137 C  
HETATM    5  O   UNL     1      -9.057   8.015  73.665  1.00  0.00    -0.271 OA 
BRANCH   4   6
HETATM    6  C   UNL     1      -9.313   8.392  71.279  1.00  0.00    -0.239 C  
BRANCH   6   7
HETATM    7  C   UNL     1     -10.621   7.832  70.730  1.00  0.00    -0.220 C  
BRANCH   7   8
HETATM    8  C   UNL     1     -11.772   8.004  71.714  1.00  0.00    -0.335 C  
BRANCH   8   9
HETATM    9  C   UNL     1     -12.042   9.489  71.949  1.00  0.00    -0.409 C  
BRANCH   9  10
HETATM   10  C   UNL     1     -12.789  10.109  70.777  1.00  0.00    -0.388 C  
BRANCH  10  11
HETATM   11  C   UNL     1     -12.062  11.346  70.252  1.00  0.00    -0.459 C  
BRANCH  11  12
HETATM   12  C   UNL     1     -11.848  11.236  68.746  1.00  0.00    -0.396 C  
BRANCH  12  13
HETATM   13  C   UNL     1     -11.755  12.608  68.075  1.00  0.00    -0.402 C  
HETATM   14  C   UNL     1     -10.406  13.306  68.353  1.00  0.00    -0.254 C  
HETATM   15  C   UNL     1     -10.424  14.738  67.820  1.00  0.00    -0.254 A  
HETATM   16  C   UNL     1      -9.219  12.485  67.820  1.00  0.00    -0.198 C  
HETATM   17  C   UNL     1     -10.040  14.986  66.485  1.00  0.00    -0.286 A  
HETATM   18  C   UNL     1      -9.995  16.280  65.964  1.00  0.00    -0.370 A  
HETATM   19  C   UNL     1     -10.354  17.362  66.757  1.00  0.00    -0.305 A  
HETATM   20  C   UNL     1     -10.777  17.145  68.065  1.00  0.00    -0.372 A  
HETATM   21  C   UNL     1     -10.821  15.847  68.595  1.00  0.00    -0.291 A  
HETATM   22  I   UNL     1     -11.522  15.702  70.579  1.00  0.00    -0.491 I  
ENDBRANCH  12  13
ENDBRANCH  11  12
ENDBRANCH  10  11
ENDBRANCH   9  10
ENDBRANCH   8   9
ENDBRANCH   7   8
ENDBRANCH   6   7
ENDBRANCH   4   6
ENDBRANCH   3   4
ENDBRANCH   2   3
TORSDOF 10
ENDMDL
MODEL      186
REMARK 921   NORMALIZED FREE ENERGY PREDICTED BY IDOCK:   -3.65 KCAL/MOL
REMARK 922        TOTAL FREE ENERGY PREDICTED BY IDOCK:   -7.19 KCAL/MOL
REMARK 923 INTER-LIGAND FREE ENERGY PREDICTED BY IDOCK:   -6.02 KCAL/MOL
REMARK 924 INTRA-LIGAND FREE ENERGY PREDICTED BY IDOCK:   -1.17 KCAL/MOL
REMARK 927      BINDING AFFINITY PREDICTED BY RF-SCORE:    0.00 PKD
ROOT
HETATM    1  C   UNL     1     -13.363  15.752  73.354  1.00  0.00    -0.585 C  
HETATM    2  C   UNL     1     -13.430  14.494  72.508  1.00  0.00    -0.483 C  
ENDROOT
BRANCH   2   3
HETATM    3  O   UNL     1     -12.145  14.304  71.904  1.00  0.00    -0.253 OA 
BRANCH   3   4
HETATM    4  C   UNL     1     -12.076  14.667  70.592  1.00  0.00    -0.317 C  
HETATM    5  O   UNL     1     -12.216  15.805  70.167  1.00  0.00    -0.374 OA 
BRANCH   4   6
HETATM    6  C   UNL     1     -11.707  13.464  69.764  1.00  0.00    -0.355 C  
BRANCH   6   7
HETATM    7  C   UNL     1     -10.851  13.877  68.573  1.00  0.00    -0.274 C  
BRANCH   7   8
HETATM    8  C   UNL     1      -9.737  12.874  68.295  1.00  0.00    -0.217 C  
BRANCH   8   9
HETATM    9  C   UNL     1     -10.015  12.133  66.989  1.00  0.00    -0.213 C  
BRANCH   9  10
HETATM   10  C   UNL     1      -8.783  11.380  66.506  1.00  0.00    -0.181 C  
BRANCH  10  11
HETATM   11  C   UNL     1      -8.899   9.885  66.800  1.00  0.00    -0.147 C  
BRANCH  11  12
HETATM   12  C   UNL     1     -10.362   9.495  66.985  1.00  0.00    -0.319 C  
BRANCH  12  13
HETATM   13  C   UNL     1     -10.531   8.348  67.984  1.00  0.00    -0.242 C  
HETATM   14  C   UNL     1     -10.247   8.790  69.436  1.00  0.00    -0.210 C  
HETATM   15  C   UNL     1     -10.250   7.583  70.373  1.00  0.00    -0.202 A  
HETATM   16  C   UNL     1     -11.207   9.903  69.892  1.00  0.00    -0.298 C  
HETATM   17  C   UNL     1     -11.463   7.163  70.959  1.00  0.00    -0.331 A  
HETATM   18  C   UNL     1     -11.512   6.095  71.857  1.00  0.00    -0.355 A  
HETATM   19  C   UNL     1     -10.352   5.404  72.179  1.00  0.00    -0.265 A  
HETATM   20  C   UNL     1      -9.148   5.768  71.584  1.00  0.00    -0.152 A  
HETATM   21  C   UNL     1      -9.091   6.842  70.684  1.00  0.00    -0.155 A  
HETATM   22  I   UNL     1      -7.192   7.230  69.853  1.00  0.00    -0.086 I  
ENDBRANCH  12  13
ENDBRANCH  11  12
ENDBRANCH  10  11
ENDBRANCH   9  10
ENDBRANCH   8   9
ENDBRANCH   7   8
ENDBRANCH   6   7
ENDBRANCH   4   6
ENDBRANCH   3   4
ENDBRANCH   2   3
TORSDOF 10
ENDMDL
MODEL      187
REMARK 921   NORMALIZED FREE ENERGY PREDICTED BY IDOCK:   -3.65 KCAL/MOL
REMARK 922        TOTAL FREE ENERGY PREDICTED BY IDOCK:   -7.18 KCAL/MOL
REMARK 923 INTER-LIGAND FREE ENERGY PREDICTED BY IDOCK:   -6.27 KCAL/MOL
REMARK 924 INTRA-LIGAND FREE ENERGY PREDICTED BY IDOCK:   -0.92 KCAL/MOL
REMARK 927      BINDING AFFINITY PREDICTED BY RF-SCORE:    0.00 PKD
ROOT
HETATM    1  C   UNL     1     -11.433  13.554  65.958  1.00  0.00    -0.345 C  
HETATM    2  C   UNL     1     -10.202  14.121  66.641  1.00  0.00    -0.270 C  
ENDROOT
BRANCH   2   3
HETATM    3  O   UNL     1     -10.268  13.766  68.028  1.00  0.00    -0.235 OA 
BRANCH   3   4
HETATM    4  C   UNL     1     -11.024  14.604  68.791  1.00  0.00    -0.258 C  
HETATM    5  O   UNL     1     -11.041  15.823  68.695  1.00  0.00    -0.287 OA 
BRANCH   4   6
HETATM    6  C   UNL     1     -11.903  13.787  69.702  1.00  0.00    -0.393 C  
BRANCH   6   7
HETATM    7  C   UNL     1     -11.948  12.335  69.240  1.00  0.00    -0.308 C  
BRANCH   7   8
HETATM    8  C   UNL     1     -12.134  11.371  70.407  1.00  0.00    -0.473 C  
BRANCH   8   9
HETATM    9  C   UNL     1     -11.110  10.241  70.320  1.00  0.00    -0.388 C  
BRANCH   9  10
HETATM   10  C   UNL     1     -11.147   9.365  71.565  1.00  0.00    -0.446 C  
BRANCH  10  11
HETATM   11  C   UNL     1     -12.152   8.225  71.406  1.00  0.00    -0.331 C  
BRANCH  11  12
HETATM   12  C   UNL     1     -11.509   6.896  71.791  1.00  0.00    -0.310 C  
BRANCH  12  13
HETATM   13  C   UNL     1     -11.300   5.985  70.578  1.00  0.00    -0.310 C  
HETATM   14  C   UNL     1      -9.836   5.984  70.092  1.00  0.00    -0.217 C  
HETATM   15  C   UNL     1      -9.707   5.210  68.781  1.00  0.00    -0.215 A  
HETATM   16  C   UNL     1      -8.873   5.479  71.181  1.00  0.00    -0.142 C  
HETATM   17  C   UNL     1      -9.477   3.818  68.817  1.00  0.00    -0.220 A  
HETATM   18  C   UNL     1      -9.307   3.073  67.649  1.00  0.00    -0.242 A  
HETATM   19  C   UNL     1      -9.383   3.695  66.410  1.00  0.00    -0.194 A  
HETATM   20  C   UNL     1      -9.650   5.059  66.341  1.00  0.00    -0.171 A  
HETATM   21  C   UNL     1      -9.818   5.814  67.512  1.00  0.00    -0.130 A  
HETATM   22  I   UNL     1     -10.253   7.856  67.218  1.00  0.00    -0.380 I  
ENDBRANCH  12  13
ENDBRANCH  11  12
ENDBRANCH  10  11
ENDBRANCH   9  10
ENDBRANCH   8   9
ENDBRANCH   7   8
ENDBRANCH   6   7
ENDBRANCH   4   6
ENDBRANCH   3   4
ENDBRANCH   2   3
TORSDOF 10
ENDMDL
MODEL      188
REMARK 921   NORMALIZED FREE ENERGY PREDICTED BY IDOCK:   -3.65 KCAL/MOL
REMARK 922        TOTAL FREE ENERGY PREDICTED BY IDOCK:   -7.18 KCAL/MOL
REMARK 923 INTER-LIGAND FREE ENERGY PREDICTED BY IDOCK:   -5.83 KCAL/MOL
REMARK 924 INTRA-LIGAND FREE ENERGY PREDICTED BY IDOCK:   -1.35 KCAL/MOL
REMARK 927      BINDING AFFINITY PREDICTED BY RF-SCORE:    0.00 PKD
ROOT
HETATM    1  C   UNL     1     -12.234  13.084  63.596  1.00  0.00    -0.568 C  
HETATM    2  C   UNL     1     -12.522  13.416  65.048  1.00  0.00    -0.428 C  
ENDROOT
BRANCH   2   3
HETATM    3  O   UNL     1     -12.226  12.252  65.830  1.00  0.00    -0.634 OA 
BRANCH   3   4
HETATM    4  C   UNL     1     -11.503  12.498  66.959  1.00  0.00    -0.356 C  
HETATM    5  O   UNL     1     -11.821  13.280  67.844  1.00  0.00    -0.337 OA 
BRANCH   4   6
HETATM    6  C   UNL     1     -10.305  11.585  66.988  1.00  0.00    -0.254 C  
BRANCH   6   7
HETATM    7  C   UNL     1     -10.279  10.698  65.749  1.00  0.00    -0.317 C  
BRANCH   7   8
HETATM    8  C   UNL     1      -9.112   9.717  65.774  1.00  0.00    -0.221 C  
BRANCH   8   9
HETATM    9  C   UNL     1      -7.921  10.340  66.500  1.00  0.00    -0.118 C  
BRANCH   9  10
HETATM   10  C   UNL     1      -7.438   9.449  67.637  1.00  0.00    -0.087 C  
BRANCH  10  11
HETATM   11  C   UNL     1      -7.469  10.194  68.971  1.00  0.00    -0.091 C  
BRANCH  11  12
HETATM   12  C   UNL     1      -8.620   9.687  69.834  1.00  0.00    -0.218 C  
BRANCH  12  13
HETATM   13  C   UNL     1      -8.520   8.183  70.101  1.00  0.00    -0.127 C  
HETATM   14  C   UNL     1      -9.885   7.474  69.974  1.00  0.00    -0.180 C  
HETATM   15  C   UNL     1      -9.775   6.017  70.421  1.00  0.00    -0.206 A  
HETATM   16  C   UNL     1     -10.476   7.622  68.560  1.00  0.00    -0.206 C  
HETATM   17  C   UNL     1      -9.409   5.029  69.482  1.00  0.00    -0.184 A  
HETATM   18  C   UNL     1      -9.339   3.678  69.829  1.00  0.00    -0.243 A  
HETATM   19  C   UNL     1      -9.613   3.280  71.130  1.00  0.00    -0.230 A  
HETATM   20  C   UNL     1      -9.936   4.236  72.088  1.00  0.00    -0.246 A  
HETATM   21  C   UNL     1     -10.012   5.594  71.745  1.00  0.00    -0.176 A  
HETATM   22  I   UNL     1     -10.477   6.905  73.330  1.00  0.00    -0.401 I  
ENDBRANCH  12  13
ENDBRANCH  11  12
ENDBRANCH  10  11
ENDBRANCH   9  10
ENDBRANCH   8   9
ENDBRANCH   7   8
ENDBRANCH   6   7
ENDBRANCH   4   6
ENDBRANCH   3   4
ENDBRANCH   2   3
TORSDOF 10
ENDMDL
MODEL      189
REMARK 921   NORMALIZED FREE ENERGY PREDICTED BY IDOCK:   -3.65 KCAL/MOL
REMARK 922        TOTAL FREE ENERGY PREDICTED BY IDOCK:   -7.18 KCAL/MOL
REMARK 923 INTER-LIGAND FREE ENERGY PREDICTED BY IDOCK:   -6.70 KCAL/MOL
REMARK 924 INTRA-LIGAND FREE ENERGY PREDICTED BY IDOCK:   -0.48 KCAL/MOL
REMARK 927      BINDING AFFINITY PREDICTED BY RF-SCORE:    0.00 PKD
ROOT
HETATM    1  C   UNL     1      -9.585   1.836  71.771  1.00  0.00    -0.192 C  
HETATM    2  C   UNL     1     -10.107   2.901  72.717  1.00  0.00    -0.152 C  
ENDROOT
BRANCH   2   3
HETATM    3  O   UNL     1      -9.542   4.156  72.319  1.00  0.00    -0.130 OA 
BRANCH   3   4
HETATM    4  C   UNL     1      -9.948   5.222  73.066  1.00  0.00    -0.164 C  
HETATM    5  O   UNL     1      -9.260   5.813  73.884  1.00  0.00    -0.126 OA 
BRANCH   4   6
HETATM    6  C   UNL     1     -11.344   5.612  72.653  1.00  0.00    -0.356 C  
BRANCH   6   7
HETATM    7  C   UNL     1     -11.306   6.807  71.706  1.00  0.00    -0.307 C  
BRANCH   7   8
HETATM    8  C   UNL     1     -12.066   8.003  72.267  1.00  0.00    -0.392 C  
BRANCH   8   9
HETATM    9  C   UNL     1     -11.499   9.300  71.693  1.00  0.00    -0.468 C  
BRANCH   9  10
HETATM   10  C   UNL     1     -12.609  10.266  71.304  1.00  0.00    -0.522 C  
BRANCH  10  11
HETATM   11  C   UNL     1     -12.042  11.516  70.633  1.00  0.00    -0.450 C  
BRANCH  11  12
HETATM   12  C   UNL     1     -11.426  11.158  69.284  1.00  0.00    -0.363 C  
BRANCH  12  13
HETATM   13  C   UNL     1     -11.852  12.130  68.181  1.00  0.00    -0.362 C  
HETATM   14  C   UNL     1     -10.830  12.191  67.026  1.00  0.00    -0.289 C  
HETATM   15  C   UNL     1     -11.201  13.297  66.039  1.00  0.00    -0.316 A  
HETATM   16  C   UNL     1     -10.653  10.821  66.348  1.00  0.00    -0.266 C  
HETATM   17  C   UNL     1     -12.076  13.009  64.971  1.00  0.00    -0.470 A  
HETATM   18  C   UNL     1     -12.410  13.972  64.017  1.00  0.00    -0.341 A  
HETATM   19  C   UNL     1     -11.894  15.257  64.117  1.00  0.00    -0.138 A  
HETATM   20  C   UNL     1     -11.061  15.583  65.183  1.00  0.00    -0.382 A  
HETATM   21  C   UNL     1     -10.719  14.618  66.142  1.00  0.00    -0.314 A  
HETATM   22  I   UNL     1      -9.478  15.297  67.706  1.00  0.00    -0.200 I  
ENDBRANCH  12  13
ENDBRANCH  11  12
ENDBRANCH  10  11
ENDBRANCH   9  10
ENDBRANCH   8   9
ENDBRANCH   7   8
ENDBRANCH   6   7
ENDBRANCH   4   6
ENDBRANCH   3   4
ENDBRANCH   2   3
TORSDOF 10
ENDMDL
MODEL      190
REMARK 921   NORMALIZED FREE ENERGY PREDICTED BY IDOCK:   -3.64 KCAL/MOL
REMARK 922        TOTAL FREE ENERGY PREDICTED BY IDOCK:   -7.17 KCAL/MOL
REMARK 923 INTER-LIGAND FREE ENERGY PREDICTED BY IDOCK:   -5.99 KCAL/MOL
REMARK 924 INTRA-LIGAND FREE ENERGY PREDICTED BY IDOCK:   -1.18 KCAL/MOL
REMARK 927      BINDING AFFINITY PREDICTED BY RF-SCORE:    0.00 PKD
ROOT
HETATM    1  C   UNL     1     -12.408  12.568  64.042  1.00  0.00    -0.557 C  
HETATM    2  C   UNL     1     -11.630  13.456  64.996  1.00  0.00    -0.317 C  
ENDROOT
BRANCH   2   3
HETATM    3  O   UNL     1     -11.016  14.495  64.224  1.00  0.00    -0.200 OA 
BRANCH   3   4
HETATM    4  C   UNL     1     -11.121  15.741  64.767  1.00  0.00    -0.400 C  
HETATM    5  O   UNL     1     -11.376  16.762  64.146  1.00  0.00    -1.194 OA 
BRANCH   4   6
HETATM    6  C   UNL     1     -10.968  15.643  66.263  1.00  0.00    -0.201 C  
BRANCH   6   7
HETATM    7  C   UNL     1     -10.291  16.893  66.814  1.00  0.00    -0.298 C  
BRANCH   7   8
HETATM    8  C   UNL     1      -8.844  17.009  66.349  1.00  0.00    -0.313 C  
BRANCH   8   9
HETATM    9  C   UNL     1      -7.921  17.193  67.553  1.00  0.00    -0.190 C  
BRANCH   9  10
HETATM   10  C   UNL     1      -8.302  16.255  68.690  1.00  0.00    -0.220 C  
BRANCH  10  11
HETATM   11  C   UNL     1      -7.351  15.060  68.760  1.00  0.00    -0.125 C  
BRANCH  11  12
HETATM   12  C   UNL     1      -7.770  13.991  67.756  1.00  0.00    -0.178 C  
BRANCH  12  13
HETATM   13  C   UNL     1      -8.163  12.680  68.441  1.00  0.00    -0.129 C  
HETATM   14  C   UNL     1      -9.275  11.930  67.677  1.00  0.00    -0.183 C  
HETATM   15  C   UNL     1      -9.761  10.726  68.483  1.00  0.00    -0.184 A  
HETATM   16  C   UNL     1      -8.834  11.555  66.251  1.00  0.00    -0.186 C  
HETATM   17  C   UNL     1      -9.109   9.484  68.336  1.00  0.00    -0.127 A  
HETATM   18  C   UNL     1      -9.543   8.343  69.015  1.00  0.00    -0.160 A  
HETATM   19  C   UNL     1     -10.628   8.419  69.877  1.00  0.00    -0.228 A  
HETATM   20  C   UNL     1     -11.265   9.640  70.075  1.00  0.00    -0.271 A  
HETATM   21  C   UNL     1     -10.837  10.788  69.393  1.00  0.00    -0.244 A  
HETATM   22  I   UNL     1     -11.894  12.557  69.842  1.00  0.00    -0.085 I  
ENDBRANCH  12  13
ENDBRANCH  11  12
ENDBRANCH  10  11
ENDBRANCH   9  10
ENDBRANCH   8   9
ENDBRANCH   7   8
ENDBRANCH   6   7
ENDBRANCH   4   6
ENDBRANCH   3   4
ENDBRANCH   2   3
TORSDOF 10
ENDMDL
MODEL      191
REMARK 921   NORMALIZED FREE ENERGY PREDICTED BY IDOCK:   -3.63 KCAL/MOL
REMARK 922        TOTAL FREE ENERGY PREDICTED BY IDOCK:   -7.15 KCAL/MOL
REMARK 923 INTER-LIGAND FREE ENERGY PREDICTED BY IDOCK:   -6.58 KCAL/MOL
REMARK 924 INTRA-LIGAND FREE ENERGY PREDICTED BY IDOCK:   -0.57 KCAL/MOL
REMARK 927      BINDING AFFINITY PREDICTED BY RF-SCORE:    0.00 PKD
ROOT
HETATM    1  C   UNL     1      -7.871  12.685  68.271  1.00  0.00    -0.144 C  
HETATM    2  C   UNL     1      -9.089  12.037  67.638  1.00  0.00    -0.179 C  
ENDROOT
BRANCH   2   3
HETATM    3  O   UNL     1     -10.225  12.858  67.934  1.00  0.00    -0.221 OA 
BRANCH   3   4
HETATM    4  C   UNL     1     -11.429  12.265  67.696  1.00  0.00    -0.336 C  
HETATM    5  O   UNL     1     -12.052  12.329  66.646  1.00  0.00    -0.612 OA 
BRANCH   4   6
HETATM    6  C   UNL     1     -11.822  11.443  68.897  1.00  0.00    -0.413 C  
BRANCH   6   7
HETATM    7  C   UNL     1     -11.855  12.310  70.150  1.00  0.00    -0.352 C  
BRANCH   7   8
HETATM    8  C   UNL     1     -12.848  11.785  71.180  1.00  0.00    -0.365 C  
BRANCH   8   9
HETATM    9  C   UNL     1     -13.014  10.275  71.025  1.00  0.00    -0.488 C  
BRANCH   9  10
HETATM   10  C   UNL     1     -12.345   9.524  72.168  1.00  0.00    -0.332 C  
BRANCH  10  11
HETATM   11  C   UNL     1     -10.924   9.104  71.795  1.00  0.00    -0.429 C  
BRANCH  11  12
HETATM   12  C   UNL     1     -10.472   7.935  72.665  1.00  0.00    -0.384 C  
BRANCH  12  13
HETATM   13  C   UNL     1      -9.766   6.849  71.849  1.00  0.00    -0.166 C  
HETATM   14  C   UNL     1     -10.755   5.819  71.263  1.00  0.00    -0.323 C  
HETATM   15  C   UNL     1     -10.000   4.661  70.613  1.00  0.00    -0.293 A  
HETATM   16  C   UNL     1     -11.770   6.480  70.314  1.00  0.00    -0.430 C  
HETATM   17  C   UNL     1      -9.620   4.756  69.257  1.00  0.00    -0.243 A  
HETATM   18  C   UNL     1      -8.970   3.707  68.604  1.00  0.00    -0.180 A  
HETATM   19  C   UNL     1      -8.662   2.543  69.294  1.00  0.00    -0.133 A  
HETATM   20  C   UNL     1      -8.987   2.437  70.643  1.00  0.00    -0.160 A  
HETATM   21  C   UNL     1      -9.644   3.485  71.304  1.00  0.00    -0.172 A  
HETATM   22  I   UNL     1     -10.025   3.167  73.353  1.00  0.00    -0.228 I  
ENDBRANCH  12  13
ENDBRANCH  11  12
ENDBRANCH  10  11
ENDBRANCH   9  10
ENDBRANCH   8   9
ENDBRANCH   7   8
ENDBRANCH   6   7
ENDBRANCH   4   6
ENDBRANCH   3   4
ENDBRANCH   2   3
TORSDOF 10
ENDMDL
MODEL      192
REMARK 921   NORMALIZED FREE ENERGY PREDICTED BY IDOCK:   -3.63 KCAL/MOL
REMARK 922        TOTAL FREE ENERGY PREDICTED BY IDOCK:   -7.15 KCAL/MOL
REMARK 923 INTER-LIGAND FREE ENERGY PREDICTED BY IDOCK:   -5.97 KCAL/MOL
REMARK 924 INTRA-LIGAND FREE ENERGY PREDICTED BY IDOCK:   -1.18 KCAL/MOL
REMARK 927      BINDING AFFINITY PREDICTED BY RF-SCORE:    0.00 PKD
ROOT
HETATM    1  C   UNL     1     -12.138  13.038  63.640  1.00  0.00    -0.604 C  
HETATM    2  C   UNL     1     -12.403  13.511  65.057  1.00  0.00    -0.428 C  
ENDROOT
BRANCH   2   3
HETATM    3  O   UNL     1     -12.349  12.366  65.918  1.00  0.00    -0.638 OA 
BRANCH   3   4
HETATM    4  C   UNL     1     -11.659  12.562  67.077  1.00  0.00    -0.368 C  
HETATM    5  O   UNL     1     -11.838  13.486  67.857  1.00  0.00    -0.339 OA 
BRANCH   4   6
HETATM    6  C   UNL     1     -10.710  11.411  67.289  1.00  0.00    -0.283 C  
BRANCH   6   7
HETATM    7  C   UNL     1     -10.877  10.371  66.188  1.00  0.00     0.011 C  
BRANCH   7   8
HETATM    8  C   UNL     1     -10.123   9.084  66.499  1.00  0.00    -0.354 C  
BRANCH   8   9
HETATM    9  C   UNL     1      -8.876   9.395  67.324  1.00  0.00    -0.136 C  
BRANCH   9  10
HETATM   10  C   UNL     1      -8.797   8.513  68.563  1.00  0.00    -0.139 C  
BRANCH  10  11
HETATM   11  C   UNL     1      -8.677   9.355  69.833  1.00  0.00    -0.209 C  
BRANCH  11  12
HETATM   12  C   UNL     1      -9.976   9.297  70.630  1.00  0.00    -0.336 C  
BRANCH  12  13
HETATM   13  C   UNL     1     -10.375   7.861  70.978  1.00  0.00    -0.221 C  
HETATM   14  C   UNL     1      -9.505   7.269  72.107  1.00  0.00    -0.157 C  
HETATM   15  C   UNL     1      -9.814   5.785  72.299  1.00  0.00    -0.185 A  
HETATM   16  C   UNL     1      -9.632   8.079  73.410  1.00  0.00    -0.277 C  
HETATM   17  C   UNL     1     -10.848   5.400  73.178  1.00  0.00    -0.333 A  
HETATM   18  C   UNL     1     -11.140   4.056  73.423  1.00  0.00    -0.341 A  
HETATM   19  C   UNL     1     -10.418   3.060  72.779  1.00  0.00    -0.212 A  
HETATM   20  C   UNL     1      -9.420   3.410  71.875  1.00  0.00    -0.208 A  
HETATM   21  C   UNL     1      -9.120   4.757  71.628  1.00  0.00    -0.136 A  
HETATM   22  I   UNL     1      -7.604   5.102  70.202  1.00  0.00    -0.073 I  
ENDBRANCH  12  13
ENDBRANCH  11  12
ENDBRANCH  10  11
ENDBRANCH   9  10
ENDBRANCH   8   9
ENDBRANCH   7   8
ENDBRANCH   6   7
ENDBRANCH   4   6
ENDBRANCH   3   4
ENDBRANCH   2   3
TORSDOF 10
ENDMDL
MODEL      193
REMARK 921   NORMALIZED FREE ENERGY PREDICTED BY IDOCK:   -3.62 KCAL/MOL
REMARK 922        TOTAL FREE ENERGY PREDICTED BY IDOCK:   -7.14 KCAL/MOL
REMARK 923 INTER-LIGAND FREE ENERGY PREDICTED BY IDOCK:   -6.29 KCAL/MOL
REMARK 924 INTRA-LIGAND FREE ENERGY PREDICTED BY IDOCK:   -0.85 KCAL/MOL
REMARK 927      BINDING AFFINITY PREDICTED BY RF-SCORE:    0.00 PKD
ROOT
HETATM    1  C   UNL     1     -10.980  14.836  64.898  1.00  0.00    -0.425 C  
HETATM    2  C   UNL     1      -9.803  15.087  65.823  1.00  0.00    -0.353 C  
ENDROOT
BRANCH   2   3
HETATM    3  O   UNL     1     -10.235  14.820  67.163  1.00  0.00    -0.243 OA 
BRANCH   3   4
HETATM    4  C   UNL     1     -10.745  15.902  67.819  1.00  0.00    -0.320 C  
HETATM    5  O   UNL     1     -10.439  17.065  67.603  1.00  0.00    -0.325 OA 
BRANCH   4   6
HETATM    6  C   UNL     1     -11.810  15.441  68.780  1.00  0.00    -0.339 C  
BRANCH   6   7
HETATM    7  C   UNL     1     -12.094  13.955  68.591  1.00  0.00    -0.337 C  
BRANCH   7   8
HETATM    8  C   UNL     1     -12.277  13.236  69.922  1.00  0.00    -0.313 C  
BRANCH   8   9
HETATM    9  C   UNL     1     -12.423  11.734  69.690  1.00  0.00    -0.017 C  
BRANCH   9  10
HETATM   10  C   UNL     1     -11.881  10.935  70.868  1.00  0.00    -0.363 C  
BRANCH  10  11
HETATM   11  C   UNL     1     -13.015  10.304  71.674  1.00  0.00    -0.570 C  
BRANCH  11  12
HETATM   12  C   UNL     1     -12.634   8.891  72.105  1.00  0.00    -0.467 C  
BRANCH  12  13
HETATM   13  C   UNL     1     -11.948   8.111  70.981  1.00  0.00    -0.257 C  
HETATM   14  C   UNL     1     -10.806   7.213  71.503  1.00  0.00    -0.250 C  
HETATM   15  C   UNL     1     -10.036   6.594  70.338  1.00  0.00    -0.193 A  
HETATM   16  C   UNL     1     -11.319   6.163  72.505  1.00  0.00    -0.328 C  
HETATM   17  C   UNL     1     -10.470   5.368  69.792  1.00  0.00    -0.378 A  
HETATM   18  C   UNL     1      -9.775   4.739  68.758  1.00  0.00    -0.235 A  
HETATM   19  C   UNL     1      -8.637   5.329  68.226  1.00  0.00    -0.099 A  
HETATM   20  C   UNL     1      -8.208   6.559  68.715  1.00  0.00    -0.119 A  
HETATM   21  C   UNL     1      -8.900   7.194  69.757  1.00  0.00    -0.142 A  
HETATM   22  I   UNL     1      -8.130   9.067  70.346  1.00  0.00    -0.221 I  
ENDBRANCH  12  13
ENDBRANCH  11  12
ENDBRANCH  10  11
ENDBRANCH   9  10
ENDBRANCH   8   9
ENDBRANCH   7   8
ENDBRANCH   6   7
ENDBRANCH   4   6
ENDBRANCH   3   4
ENDBRANCH   2   3
TORSDOF 10
ENDMDL
MODEL      194
REMARK 921   NORMALIZED FREE ENERGY PREDICTED BY IDOCK:   -3.60 KCAL/MOL
REMARK 922        TOTAL FREE ENERGY PREDICTED BY IDOCK:   -7.10 KCAL/MOL
REMARK 923 INTER-LIGAND FREE ENERGY PREDICTED BY IDOCK:   -5.92 KCAL/MOL
REMARK 924 INTRA-LIGAND FREE ENERGY PREDICTED BY IDOCK:   -1.18 KCAL/MOL
REMARK 927      BINDING AFFINITY PREDICTED BY RF-SCORE:    0.00 PKD
ROOT
HETATM    1  C   UNL     1     -13.152   7.113  71.505  1.00  0.00    -0.427 C  
HETATM    2  C   UNL     1     -11.727   6.923  71.018  1.00  0.00    -0.345 C  
ENDROOT
BRANCH   2   3
HETATM    3  O   UNL     1     -11.783   6.239  69.759  1.00  0.00    -0.403 OA 
BRANCH   3   4
HETATM    4  C   UNL     1     -10.624   5.618  69.402  1.00  0.00    -0.304 C  
HETATM    5  O   UNL     1     -10.165   4.619  69.936  1.00  0.00    -0.237 OA 
BRANCH   4   6
HETATM    6  C   UNL     1     -10.051   6.299  68.186  1.00  0.00    -0.173 C  
BRANCH   6   7
HETATM    7  C   UNL     1      -9.715   5.275  67.108  1.00  0.00    -0.165 C  
BRANCH   7   8
HETATM    8  C   UNL     1      -8.347   5.529  66.487  1.00  0.00    -0.109 C  
BRANCH   8   9
HETATM    9  C   UNL     1      -8.509   6.119  65.087  1.00  0.00    -0.101 C  
BRANCH   9  10
HETATM   10  C   UNL     1      -7.880   7.502  64.992  1.00  0.00    -0.127 C  
BRANCH  10  11
HETATM   11  C   UNL     1      -8.860   8.585  65.442  1.00  0.00    -0.173 C  
BRANCH  11  12
HETATM   12  C   UNL     1      -8.327   9.301  66.679  1.00  0.00    -0.122 C  
BRANCH  12  13
HETATM   13  C   UNL     1      -8.965  10.679  66.867  1.00  0.00    -0.147 C  
HETATM   14  C   UNL     1     -10.507  10.613  66.885  1.00  0.00    -0.304 C  
HETATM   15  C   UNL     1     -11.104  12.020  66.894  1.00  0.00    -0.352 A  
HETATM   16  C   UNL     1     -11.027   9.737  68.039  1.00  0.00    -0.236 C  
HETATM   17  C   UNL     1     -11.325  12.672  68.125  1.00  0.00    -0.334 A  
HETATM   18  C   UNL     1     -11.909  13.938  68.190  1.00  0.00    -0.407 A  
HETATM   19  C   UNL     1     -12.270  14.597  67.022  1.00  0.00    -0.104 A  
HETATM   20  C   UNL     1     -12.025  13.997  65.791  1.00  0.00    -0.417 A  
HETATM   21  C   UNL     1     -11.442  12.723  65.720  1.00  0.00    -0.348 A  
HETATM   22  I   UNL     1     -11.112  11.984  63.772  1.00  0.00    -0.579 I  
ENDBRANCH  12  13
ENDBRANCH  11  12
ENDBRANCH  10  11
ENDBRANCH   9  10
ENDBRANCH   8   9
ENDBRANCH   7   8
ENDBRANCH   6   7
ENDBRANCH   4   6
ENDBRANCH   3   4
ENDBRANCH   2   3
TORSDOF 10
ENDMDL
MODEL      195
REMARK 921   NORMALIZED FREE ENERGY PREDICTED BY IDOCK:   -3.59 KCAL/MOL
REMARK 922        TOTAL FREE ENERGY PREDICTED BY IDOCK:   -7.09 KCAL/MOL
REMARK 923 INTER-LIGAND FREE ENERGY PREDICTED BY IDOCK:   -6.02 KCAL/MOL
REMARK 924 INTRA-LIGAND FREE ENERGY PREDICTED BY IDOCK:   -1.07 KCAL/MOL
REMARK 927      BINDING AFFINITY PREDICTED BY RF-SCORE:    0.00 PKD
ROOT
HETATM    1  C   UNL     1     -12.187  13.198  63.631  1.00  0.00    -0.553 C  
HETATM    2  C   UNL     1     -12.627  13.415  65.067  1.00  0.00    -0.403 C  
ENDROOT
BRANCH   2   3
HETATM    3  O   UNL     1     -12.241  12.261  65.823  1.00  0.00    -0.622 OA 
BRANCH   3   4
HETATM    4  C   UNL     1     -10.961  12.293  66.291  1.00  0.00    -0.291 C  
HETATM    5  O   UNL     1     -10.422  13.262  66.803  1.00  0.00    -0.266 OA 
BRANCH   4   6
HETATM    6  C   UNL     1     -10.353  10.920  66.163  1.00  0.00    -0.305 C  
BRANCH   6   7
HETATM    7  C   UNL     1     -10.011  10.621  64.708  1.00  0.00    -0.391 C  
BRANCH   7   8
HETATM    8  C   UNL     1      -8.541  10.259  64.530  1.00  0.00    -0.195 C  
BRANCH   8   9
HETATM    9  C   UNL     1      -7.819  10.330  65.875  1.00  0.00    -0.139 C  
BRANCH   9  10
HETATM   10  C   UNL     1      -7.011   9.066  66.136  1.00  0.00    -0.085 C  
BRANCH  10  11
HETATM   11  C   UNL     1      -6.352   9.108  67.514  1.00  0.00    -0.063 C  
BRANCH  11  12
HETATM   12  C   UNL     1      -6.853   7.953  68.376  1.00  0.00    -0.071 C  
BRANCH  12  13
HETATM   13  C   UNL     1      -8.309   8.146  68.806  1.00  0.00    -0.126 C  
HETATM   14  C   UNL     1      -8.481   8.076  70.339  1.00  0.00    -0.130 C  
HETATM   15  C   UNL     1      -9.962   8.093  70.713  1.00  0.00    -0.209 A  
HETATM   16  C   UNL     1      -7.672   9.172  71.055  1.00  0.00    -0.132 C  
HETATM   17  C   UNL     1     -10.615   9.328  70.906  1.00  0.00    -0.366 A  
HETATM   18  C   UNL     1     -11.955   9.397  71.293  1.00  0.00    -0.430 A  
HETATM   19  C   UNL     1     -12.686   8.231  71.478  1.00  0.00    -0.326 A  
HETATM   20  C   UNL     1     -12.081   6.998  71.254  1.00  0.00    -0.403 A  
HETATM   21  C   UNL     1     -10.734   6.922  70.869  1.00  0.00    -0.230 A  
HETATM   22  I   UNL     1      -9.994   4.976  70.540  1.00  0.00    -0.286 I  
ENDBRANCH  12  13
ENDBRANCH  11  12
ENDBRANCH  10  11
ENDBRANCH   9  10
ENDBRANCH   8   9
ENDBRANCH   7   8
ENDBRANCH   6   7
ENDBRANCH   4   6
ENDBRANCH   3   4
ENDBRANCH   2   3
TORSDOF 10
ENDMDL
MODEL      196
REMARK 921   NORMALIZED FREE ENERGY PREDICTED BY IDOCK:   -3.59 KCAL/MOL
REMARK 922        TOTAL FREE ENERGY PREDICTED BY IDOCK:   -7.08 KCAL/MOL
REMARK 923 INTER-LIGAND FREE ENERGY PREDICTED BY IDOCK:   -5.82 KCAL/MOL
REMARK 924 INTRA-LIGAND FREE ENERGY PREDICTED BY IDOCK:   -1.26 KCAL/MOL
REMARK 927      BINDING AFFINITY PREDICTED BY RF-SCORE:    0.00 PKD
ROOT
HETATM    1  C   UNL     1      -8.003  16.313  66.488  1.00  0.00    -0.326 C  
HETATM    2  C   UNL     1      -9.490  16.264  66.189  1.00  0.00    -0.339 C  
ENDROOT
BRANCH   2   3
HETATM    3  O   UNL     1      -9.747  15.070  65.440  1.00  0.00    -0.316 OA 
BRANCH   3   4
HETATM    4  C   UNL     1     -11.009  14.574  65.582  1.00  0.00    -0.323 C  
HETATM    5  O   UNL     1     -11.764  14.822  66.510  1.00  0.00    -0.350 OA 
BRANCH   4   6
HETATM    6  C   UNL     1     -11.356  13.751  64.369  1.00  0.00    -0.375 C  
BRANCH   6   7
HETATM    7  C   UNL     1     -10.325  12.649  64.157  1.00  0.00    -0.412 C  
BRANCH   7   8
HETATM    8  C   UNL     1     -10.956  11.376  63.606  1.00  0.00    -0.443 C  
BRANCH   8   9
HETATM    9  C   UNL     1      -9.935  10.607  62.768  1.00  0.00    -0.118 C  
BRANCH   9  10
HETATM   10  C   UNL     1      -8.531  10.749  63.339  1.00  0.00    -0.042 C  
BRANCH  10  11
HETATM   11  C   UNL     1      -8.190   9.578  64.261  1.00  0.00    -0.157 C  
BRANCH  11  12
HETATM   12  C   UNL     1      -7.853  10.087  65.659  1.00  0.00    -0.138 C  
BRANCH  12  13
HETATM   13  C   UNL     1      -9.108  10.439  66.461  1.00  0.00    -0.175 C  
HETATM   14  C   UNL     1      -8.777  10.899  67.897  1.00  0.00    -0.131 C  
HETATM   15  C   UNL     1     -10.056  11.067  68.715  1.00  0.00    -0.214 A  
HETATM   16  C   UNL     1      -7.894  12.160  67.902  1.00  0.00    -0.147 C  
HETATM   17  C   UNL     1     -10.732  12.305  68.698  1.00  0.00    -0.261 A  
HETATM   18  C   UNL     1     -11.880  12.523  69.463  1.00  0.00    -0.375 A  
HETATM   19  C   UNL     1     -12.395  11.503  70.251  1.00  0.00    -0.355 A  
HETATM   20  C   UNL     1     -11.773  10.258  70.256  1.00  0.00    -0.388 A  
HETATM   21  C   UNL     1     -10.618  10.033  69.492  1.00  0.00    -0.244 A  
HETATM   22  I   UNL     1      -9.832   8.079  69.591  1.00  0.00    -0.194 I  
ENDBRANCH  12  13
ENDBRANCH  11  12
ENDBRANCH  10  11
ENDBRANCH   9  10
ENDBRANCH   8   9
ENDBRANCH   7   8
ENDBRANCH   6   7
ENDBRANCH   4   6
ENDBRANCH   3   4
ENDBRANCH   2   3
TORSDOF 10
ENDMDL
MODEL      197
REMARK 921   NORMALIZED FREE ENERGY PREDICTED BY IDOCK:   -3.57 KCAL/MOL
REMARK 922        TOTAL FREE ENERGY PREDICTED BY IDOCK:   -7.05 KCAL/MOL
REMARK 923 INTER-LIGAND FREE ENERGY PREDICTED BY IDOCK:   -6.18 KCAL/MOL
REMARK 924 INTRA-LIGAND FREE ENERGY PREDICTED BY IDOCK:   -0.87 KCAL/MOL
REMARK 927      BINDING AFFINITY PREDICTED BY RF-SCORE:    0.00 PKD
ROOT
HETATM    1  C   UNL     1      -6.018   8.932  71.401  1.00  0.00    -0.057 C  
HETATM    2  C   UNL     1      -6.417   9.076  69.944  1.00  0.00    -0.038 C  
ENDROOT
BRANCH   2   3
HETATM    3  O   UNL     1      -7.717   8.493  69.787  1.00  0.00    -0.087 OA 
BRANCH   3   4
HETATM    4  C   UNL     1      -8.750   9.316  70.122  1.00  0.00    -0.204 C  
HETATM    5  O   UNL     1      -9.487   9.167  71.086  1.00  0.00    -0.261 OA 
BRANCH   4   6
HETATM    6  C   UNL     1      -8.778  10.488  69.175  1.00  0.00    -0.155 C  
BRANCH   6   7
HETATM    7  C   UNL     1      -9.243  10.046  67.792  1.00  0.00    -0.143 C  
BRANCH   7   8
HETATM    8  C   UNL     1     -10.752   9.835  67.739  1.00  0.00    -0.329 C  
BRANCH   8   9
HETATM    9  C   UNL     1     -11.474  11.133  68.091  1.00  0.00    -0.373 C  
BRANCH   9  10
HETATM   10  C   UNL     1     -11.738  11.975  66.849  1.00  0.00    -0.342 C  
BRANCH  10  11
HETATM   11  C   UNL     1     -11.717  13.467  67.180  1.00  0.00    -0.424 C  
BRANCH  11  12
HETATM   12  C   UNL     1     -10.280  13.974  67.245  1.00  0.00    -0.260 C  
BRANCH  12  13
HETATM   13  C   UNL     1     -10.212  15.484  67.484  1.00  0.00    -0.254 C  
HETATM   14  C   UNL     1      -9.739  16.255  66.234  1.00  0.00    -0.329 C  
HETATM   15  C   UNL     1      -9.514  17.729  66.566  1.00  0.00    -0.300 A  
HETATM   16  C   UNL     1     -10.691  16.050  65.042  1.00  0.00    -0.400 C  
HETATM   17  C   UNL     1     -10.589  18.636  66.461  1.00  0.00    -0.409 A  
HETATM   18  C   UNL     1     -10.425  20.000  66.709  1.00  0.00    -0.520 A  
HETATM   19  C   UNL     1      -9.184  20.492  67.091  1.00  0.00    -0.485 A  
HETATM   20  C   UNL     1      -8.114  19.616  67.243  1.00  0.00    -0.317 A  
HETATM   21  C   UNL     1      -8.272  18.245  66.991  1.00  0.00    -0.239 A  
HETATM   22  I   UNL     1      -6.556  17.062  67.309  1.00  0.00    -0.254 I  
ENDBRANCH  12  13
ENDBRANCH  11  12
ENDBRANCH  10  11
ENDBRANCH   9  10
ENDBRANCH   8   9
ENDBRANCH   7   8
ENDBRANCH   6   7
ENDBRANCH   4   6
ENDBRANCH   3   4
ENDBRANCH   2   3
TORSDOF 10
ENDMDL
MODEL      198
REMARK 921   NORMALIZED FREE ENERGY PREDICTED BY IDOCK:   -3.56 KCAL/MOL
REMARK 922        TOTAL FREE ENERGY PREDICTED BY IDOCK:   -7.04 KCAL/MOL
REMARK 923 INTER-LIGAND FREE ENERGY PREDICTED BY IDOCK:   -6.40 KCAL/MOL
REMARK 924 INTRA-LIGAND FREE ENERGY PREDICTED BY IDOCK:   -0.64 KCAL/MOL
REMARK 927      BINDING AFFINITY PREDICTED BY RF-SCORE:    0.00 PKD
ROOT
HETATM    1  C   UNL     1     -10.554   4.924  66.096  1.00  0.00    -0.322 C  
HETATM    2  C   UNL     1     -10.375   5.895  67.249  1.00  0.00    -0.226 C  
ENDROOT
BRANCH   2   3
HETATM    3  O   UNL     1     -10.791   7.190  66.799  1.00  0.00    -0.320 OA 
BRANCH   3   4
HETATM    4  C   UNL     1     -10.363   8.224  67.578  1.00  0.00    -0.265 C  
HETATM    5  O   UNL     1     -10.322   8.216  68.799  1.00  0.00    -0.205 OA 
BRANCH   4   6
HETATM    6  C   UNL     1      -9.862   9.335  66.693  1.00  0.00    -0.311 C  
BRANCH   6   7
HETATM    7  C   UNL     1     -10.023  10.684  67.386  1.00  0.00    -0.213 C  
BRANCH   7   8
HETATM    8  C   UNL     1     -11.347  11.352  67.033  1.00  0.00    -0.309 C  
BRANCH   8   9
HETATM    9  C   UNL     1     -11.777  12.288  68.160  1.00  0.00    -0.408 C  
BRANCH   9  10
HETATM   10  C   UNL     1     -11.443  13.738  67.833  1.00  0.00    -0.347 C  
BRANCH  10  11
HETATM   11  C   UNL     1     -11.429  14.598  69.096  1.00  0.00    -0.320 C  
BRANCH  11  12
HETATM   12  C   UNL     1     -11.520  16.076  68.731  1.00  0.00    -0.375 C  
BRANCH  12  13
HETATM   13  C   UNL     1     -10.246  16.840  69.098  1.00  0.00    -0.306 C  
HETATM   14  C   UNL     1      -9.437  17.263  67.853  1.00  0.00    -0.266 C  
HETATM   15  C   UNL     1      -8.093  17.860  68.266  1.00  0.00    -0.294 A  
HETATM   16  C   UNL     1     -10.248  18.195  66.936  1.00  0.00    -0.380 C  
HETATM   17  C   UNL     1      -8.001  19.242  68.537  1.00  0.00    -0.396 A  
HETATM   18  C   UNL     1      -6.787  19.844  68.873  1.00  0.00    -0.359 A  
HETATM   19  C   UNL     1      -5.633  19.077  68.968  1.00  0.00    -0.214 A  
HETATM   20  C   UNL     1      -5.700  17.705  68.746  1.00  0.00    -0.167 A  
HETATM   21  C   UNL     1      -6.916  17.095  68.404  1.00  0.00    -0.195 A  
HETATM   22  I   UNL     1      -6.839  15.004  68.142  1.00  0.00    -0.198 I  
ENDBRANCH  12  13
ENDBRANCH  11  12
ENDBRANCH  10  11
ENDBRANCH   9  10
ENDBRANCH   8   9
ENDBRANCH   7   8
ENDBRANCH   6   7
ENDBRANCH   4   6
ENDBRANCH   3   4
ENDBRANCH   2   3
TORSDOF 10
ENDMDL
MODEL      199
REMARK 921   NORMALIZED FREE ENERGY PREDICTED BY IDOCK:   -3.55 KCAL/MOL
REMARK 922        TOTAL FREE ENERGY PREDICTED BY IDOCK:   -7.03 KCAL/MOL
REMARK 923 INTER-LIGAND FREE ENERGY PREDICTED BY IDOCK:   -6.07 KCAL/MOL
REMARK 924 INTRA-LIGAND FREE ENERGY PREDICTED BY IDOCK:   -0.95 KCAL/MOL
REMARK 927      BINDING AFFINITY PREDICTED BY RF-SCORE:    0.00 PKD
ROOT
HETATM    1  C   UNL     1     -10.863  11.439  63.488  1.00  0.00    -0.430 C  
HETATM    2  C   UNL     1     -12.305  11.906  63.565  1.00  0.00    -0.490 C  
ENDROOT
BRANCH   2   3
HETATM    3  O   UNL     1     -12.316  13.326  63.372  1.00  0.00    -0.726 OA 
BRANCH   3   4
HETATM    4  C   UNL     1     -12.271  14.054  64.523  1.00  0.00    -0.434 C  
HETATM    5  O   UNL     1     -13.159  14.102  65.362  1.00  0.00    -0.743 OA 
BRANCH   4   6
HETATM    6  C   UNL     1     -10.920  14.709  64.642  1.00  0.00    -0.340 C  
BRANCH   6   7
HETATM    7  C   UNL     1     -10.746  15.329  66.024  1.00  0.00    -0.324 C  
BRANCH   7   8
HETATM    8  C   UNL     1      -9.856  14.478  66.922  1.00  0.00    -0.265 C  
BRANCH   8   9
HETATM    9  C   UNL     1     -10.693  13.420  67.637  1.00  0.00    -0.257 C  
BRANCH   9  10
HETATM   10  C   UNL     1     -10.229  12.014  67.281  1.00  0.00    -0.221 C  
BRANCH  10  11
HETATM   11  C   UNL     1     -11.403  11.036  67.257  1.00  0.00    -0.265 C  
BRANCH  11  12
HETATM   12  C   UNL     1     -11.074   9.795  68.081  1.00  0.00    -0.169 C  
BRANCH  12  13
HETATM   13  C   UNL     1      -9.846   9.055  67.544  1.00  0.00    -0.230 C  
HETATM   14  C   UNL     1      -9.921   7.534  67.796  1.00  0.00    -0.214 C  
HETATM   15  C   UNL     1      -8.605   6.862  67.409  1.00  0.00    -0.121 A  
HETATM   16  C   UNL     1     -11.142   6.901  67.105  1.00  0.00    -0.362 C  
HETATM   17  C   UNL     1      -8.415   6.421  66.082  1.00  0.00    -0.140 A  
HETATM   18  C   UNL     1      -7.250   5.761  65.688  1.00  0.00    -0.075 A  
HETATM   19  C   UNL     1      -6.232   5.540  66.607  1.00  0.00    -0.034 A  
HETATM   20  C   UNL     1      -6.373   6.000  67.913  1.00  0.00    -0.037 A  
HETATM   21  C   UNL     1      -7.543   6.661  68.315  1.00  0.00    -0.104 A  
HETATM   22  I   UNL     1      -7.569   7.320  70.318  1.00  0.00    -0.092 I  
ENDBRANCH  12  13
ENDBRANCH  11  12
ENDBRANCH  10  11
ENDBRANCH   9  10
ENDBRANCH   8   9
ENDBRANCH   7   8
ENDBRANCH   6   7
ENDBRANCH   4   6
ENDBRANCH   3   4
ENDBRANCH   2   3
TORSDOF 10
ENDMDL
MODEL      200
REMARK 921   NORMALIZED FREE ENERGY PREDICTED BY IDOCK:   -3.54 KCAL/MOL
REMARK 922        TOTAL FREE ENERGY PREDICTED BY IDOCK:   -7.01 KCAL/MOL
REMARK 923 INTER-LIGAND FREE ENERGY PREDICTED BY IDOCK:   -5.80 KCAL/MOL
REMARK 924 INTRA-LIGAND FREE ENERGY PREDICTED BY IDOCK:   -1.21 KCAL/MOL
REMARK 927      BINDING AFFINITY PREDICTED BY RF-SCORE:    0.00 PKD
ROOT
HETATM    1  C   UNL     1     -10.319   8.035  72.753  1.00  0.00    -0.408 C  
HETATM    2  C   UNL     1     -10.694   6.615  73.138  1.00  0.00    -0.278 C  
ENDROOT
BRANCH   2   3
HETATM    3  O   UNL     1      -9.540   5.789  72.940  1.00  0.00    -0.155 OA 
BRANCH   3   4
HETATM    4  C   UNL     1      -9.393   5.318  71.669  1.00  0.00    -0.147 C  
HETATM    5  O   UNL     1     -10.303   4.927  70.953  1.00  0.00    -0.217 OA 
BRANCH   4   6
HETATM    6  C   UNL     1      -7.949   5.445  71.258  1.00  0.00    -0.110 C  
BRANCH   6   7
HETATM    7  C   UNL     1      -7.843   6.036  69.857  1.00  0.00    -0.104 C  
BRANCH   7   8
HETATM    8  C   UNL     1      -7.307   7.463  69.879  1.00  0.00    -0.083 C  
BRANCH   8   9
HETATM    9  C   UNL     1      -8.406   8.440  69.465  1.00  0.00    -0.120 C  
BRANCH   9  10
HETATM   10  C   UNL     1      -8.271   9.767  70.199  1.00  0.00    -0.202 C  
BRANCH  10  11
HETATM   11  C   UNL     1      -7.780  10.869  69.261  1.00  0.00    -0.100 C  
BRANCH  11  12
HETATM   12  C   UNL     1      -8.012  10.468  67.808  1.00  0.00    -0.106 C  
BRANCH  12  13
HETATM   13  C   UNL     1      -8.863  11.495  67.056  1.00  0.00    -0.173 C  
HETATM   14  C   UNL     1     -10.193  10.897  66.550  1.00  0.00    -0.282 C  
HETATM   15  C   UNL     1     -10.925  11.896  65.657  1.00  0.00    -0.353 A  
HETATM   16  C   UNL     1     -11.064  10.382  67.710  1.00  0.00    -0.365 C  
HETATM   17  C   UNL     1     -11.808  12.830  66.239  1.00  0.00    -0.485 A  
HETATM   18  C   UNL     1     -12.535  13.735  65.463  1.00  0.00    -0.548 A  
HETATM   19  C   UNL     1     -12.384  13.744  64.083  1.00  0.00    -0.382 A  
HETATM   20  C   UNL     1     -11.489  12.863  63.483  1.00  0.00    -0.470 A  
HETATM   21  C   UNL     1     -10.759  11.950  64.257  1.00  0.00    -0.338 A  
HETATM   22  I   UNL     1      -9.424  10.717  63.186  1.00  0.00    -0.372 I  
ENDBRANCH  12  13
ENDBRANCH  11  12
ENDBRANCH  10  11
ENDBRANCH   9  10
ENDBRANCH   8   9
ENDBRANCH   7   8
ENDBRANCH   6   7
ENDBRANCH   4   6
ENDBRANCH   3   4
ENDBRANCH   2   3
TORSDOF 10
ENDMDL
MODEL      201
REMARK 921   NORMALIZED FREE ENERGY PREDICTED BY IDOCK:   -3.51 KCAL/MOL
REMARK 922        TOTAL FREE ENERGY PREDICTED BY IDOCK:   -6.97 KCAL/MOL
REMARK 923 INTER-LIGAND FREE ENERGY PREDICTED BY IDOCK:   -6.18 KCAL/MOL
REMARK 924 INTRA-LIGAND FREE ENERGY PREDICTED BY IDOCK:   -0.79 KCAL/MOL
REMARK 927      BINDING AFFINITY PREDICTED BY RF-SCORE:    0.00 PKD
ROOT
HETATM    1  C   UNL     1      -9.364   9.292  65.681  1.00  0.00    -0.308 C  
HETATM    2  C   UNL     1      -9.046  10.772  65.789  1.00  0.00    -0.188 C  
ENDROOT
BRANCH   2   3
HETATM    3  O   UNL     1     -10.118  11.399  66.504  1.00  0.00    -0.205 OA 
BRANCH   3   4
HETATM    4  C   UNL     1     -10.526  12.590  65.981  1.00  0.00    -0.258 C  
HETATM    5  O   UNL     1     -10.359  12.946  64.824  1.00  0.00    -0.313 OA 
BRANCH   4   6
HETATM    6  C   UNL     1     -11.296  13.352  67.029  1.00  0.00    -0.346 C  
BRANCH   6   7
HETATM    7  C   UNL     1     -11.797  12.409  68.116  1.00  0.00    -0.372 C  
BRANCH   7   8
HETATM    8  C   UNL     1     -11.858  13.090  69.478  1.00  0.00    -0.385 C  
BRANCH   8   9
HETATM    9  C   UNL     1     -12.245  12.076  70.553  1.00  0.00    -0.414 C  
BRANCH   9  10
HETATM   10  C   UNL     1     -11.828  10.665  70.159  1.00  0.00    -0.421 C  
BRANCH  10  11
HETATM   11  C   UNL     1     -12.492   9.623  71.058  1.00  0.00    -0.382 C  
BRANCH  11  12
HETATM   12  C   UNL     1     -11.460   8.987  71.984  1.00  0.00    -0.408 C  
BRANCH  12  13
HETATM   13  C   UNL     1     -11.366   7.472  71.787  1.00  0.00    -0.289 C  
HETATM   14  C   UNL     1      -9.919   6.952  71.929  1.00  0.00    -0.183 C  
HETATM   15  C   UNL     1      -9.842   5.474  71.550  1.00  0.00    -0.221 A  
HETATM   16  C   UNL     1      -9.343   7.241  73.326  1.00  0.00    -0.226 C  
HETATM   17  C   UNL     1     -10.070   4.492  72.536  1.00  0.00    -0.233 A  
HETATM   18  C   UNL     1      -9.967   3.129  72.252  1.00  0.00    -0.236 A  
HETATM   19  C   UNL     1      -9.652   2.709  70.967  1.00  0.00    -0.210 A  
HETATM   20  C   UNL     1      -9.463   3.653  69.962  1.00  0.00    -0.260 A  
HETATM   21  C   UNL     1      -9.562   5.024  70.243  1.00  0.00    -0.187 A  
HETATM   22  I   UNL     1      -9.280   6.309  68.594  1.00  0.00    -0.129 I  
ENDBRANCH  12  13
ENDBRANCH  11  12
ENDBRANCH  10  11
ENDBRANCH   9  10
ENDBRANCH   8   9
ENDBRANCH   7   8
ENDBRANCH   6   7
ENDBRANCH   4   6
ENDBRANCH   3   4
ENDBRANCH   2   3
TORSDOF 10
ENDMDL
MODEL      202
REMARK 921   NORMALIZED FREE ENERGY PREDICTED BY IDOCK:   -3.51 KCAL/MOL
REMARK 922        TOTAL FREE ENERGY PREDICTED BY IDOCK:   -6.96 KCAL/MOL
REMARK 923 INTER-LIGAND FREE ENERGY PREDICTED BY IDOCK:   -5.91 KCAL/MOL
REMARK 924 INTRA-LIGAND FREE ENERGY PREDICTED BY IDOCK:   -1.05 KCAL/MOL
REMARK 927      BINDING AFFINITY PREDICTED BY RF-SCORE:    0.00 PKD
ROOT
HETATM    1  C   UNL     1      -6.834   9.049  62.863  1.00  0.00    -0.093 C  
HETATM    2  C   UNL     1      -8.250   8.711  63.294  1.00  0.00    -0.162 C  
ENDROOT
BRANCH   2   3
HETATM    3  O   UNL     1      -8.239   8.510  64.713  1.00  0.00    -0.150 OA 
BRANCH   3   4
HETATM    4  C   UNL     1      -9.236   9.154  65.383  1.00  0.00    -0.202 C  
HETATM    5  O   UNL     1      -9.957  10.022  64.911  1.00  0.00    -0.325 OA 
BRANCH   4   6
HETATM    6  C   UNL     1      -9.370   8.560  66.761  1.00  0.00    -0.232 C  
BRANCH   6   7
HETATM    7  C   UNL     1     -10.625   9.085  67.449  1.00  0.00    -0.309 C  
BRANCH   7   8
HETATM    8  C   UNL     1     -10.305   9.776  68.769  1.00  0.00    -0.227 C  
BRANCH   8   9
HETATM    9  C   UNL     1     -11.286  10.921  69.012  1.00  0.00    -0.348 C  
BRANCH   9  10
HETATM   10  C   UNL     1     -11.435  11.795  67.774  1.00  0.00    -0.381 C  
BRANCH  10  11
HETATM   11  C   UNL     1     -10.134  12.535  67.462  1.00  0.00    -0.207 C  
BRANCH  11  12
HETATM   12  C   UNL     1      -9.685  13.348  68.673  1.00  0.00    -0.084 C  
BRANCH  12  13
HETATM   13  C   UNL     1      -9.476  14.825  68.329  1.00  0.00    -0.207 C  
HETATM   14  C   UNL     1     -10.806  15.607  68.271  1.00  0.00    -0.298 C  
HETATM   15  C   UNL     1     -10.571  17.024  67.752  1.00  0.00    -0.350 A  
HETATM   16  C   UNL     1     -11.543  15.579  69.621  1.00  0.00    -0.359 C  
HETATM   17  C   UNL     1     -10.247  18.052  68.664  1.00  0.00    -0.385 A  
HETATM   18  C   UNL     1     -10.068  19.372  68.246  1.00  0.00    -0.531 A  
HETATM   19  C   UNL     1     -10.187  19.699  66.902  1.00  0.00    -0.560 A  
HETATM   20  C   UNL     1     -10.464  18.699  65.974  1.00  0.00    -0.456 A  
HETATM   21  C   UNL     1     -10.649  17.372  66.388  1.00  0.00    -0.192 A  
HETATM   22  I   UNL     1     -11.024  15.985  64.844  1.00  0.00     0.151 I  
ENDBRANCH  12  13
ENDBRANCH  11  12
ENDBRANCH  10  11
ENDBRANCH   9  10
ENDBRANCH   8   9
ENDBRANCH   7   8
ENDBRANCH   6   7
ENDBRANCH   4   6
ENDBRANCH   3   4
ENDBRANCH   2   3
TORSDOF 10
ENDMDL
MODEL      203
REMARK 921   NORMALIZED FREE ENERGY PREDICTED BY IDOCK:   -3.51 KCAL/MOL
REMARK 922        TOTAL FREE ENERGY PREDICTED BY IDOCK:   -6.95 KCAL/MOL
REMARK 923 INTER-LIGAND FREE ENERGY PREDICTED BY IDOCK:   -5.54 KCAL/MOL
REMARK 924 INTRA-LIGAND FREE ENERGY PREDICTED BY IDOCK:   -1.41 KCAL/MOL
REMARK 927      BINDING AFFINITY PREDICTED BY RF-SCORE:    0.00 PKD
ROOT
HETATM    1  C   UNL     1      -9.408   2.663  67.895  1.00  0.00    -0.244 C  
HETATM    2  C   UNL     1      -9.419   4.176  67.781  1.00  0.00    -0.175 C  
ENDROOT
BRANCH   2   3
HETATM    3  O   UNL     1      -9.335   4.715  69.106  1.00  0.00    -0.118 OA 
BRANCH   3   4
HETATM    4  C   UNL     1     -10.372   5.529  69.452  1.00  0.00    -0.278 C  
HETATM    5  O   UNL     1     -10.943   5.523  70.533  1.00  0.00    -0.244 OA 
BRANCH   4   6
HETATM    6  C   UNL     1     -10.636   6.499  68.329  1.00  0.00    -0.302 C  
BRANCH   6   7
HETATM    7  C   UNL     1     -10.441   7.934  68.805  1.00  0.00    -0.198 C  
BRANCH   7   8
HETATM    8  C   UNL     1      -8.981   8.235  69.123  1.00  0.00    -0.147 C  
BRANCH   8   9
HETATM    9  C   UNL     1      -8.108   7.929  67.908  1.00  0.00    -0.129 C  
BRANCH   9  10
HETATM   10  C   UNL     1      -7.669   9.207  67.204  1.00  0.00    -0.098 C  
BRANCH  10  11
HETATM   11  C   UNL     1      -7.684   9.033  65.686  1.00  0.00    -0.091 C  
BRANCH  11  12
HETATM   12  C   UNL     1      -9.119   8.941  65.178  1.00  0.00    -0.157 C  
BRANCH  12  13
HETATM   13  C   UNL     1     -10.010  10.036  65.768  1.00  0.00    -0.346 C  
HETATM   14  C   UNL     1      -9.803  11.398  65.072  1.00  0.00    -0.304 C  
HETATM   15  C   UNL     1     -10.573  12.497  65.804  1.00  0.00    -0.299 A  
HETATM   16  C   UNL     1     -10.141  11.330  63.572  1.00  0.00    -0.443 C  
HETATM   17  C   UNL     1     -11.914  12.756  65.451  1.00  0.00    -0.482 A  
HETATM   18  C   UNL     1     -12.647  13.778  66.057  1.00  0.00    -0.458 A  
HETATM   19  C   UNL     1     -12.065  14.557  67.049  1.00  0.00    -0.303 A  
HETATM   20  C   UNL     1     -10.757  14.297  67.447  1.00  0.00    -0.282 A  
HETATM   21  C   UNL     1     -10.015  13.274  66.839  1.00  0.00    -0.250 A  
HETATM   22  I   UNL     1      -8.065  12.999  67.593  1.00  0.00    -0.195 I  
ENDBRANCH  12  13
ENDBRANCH  11  12
ENDBRANCH  10  11
ENDBRANCH   9  10
ENDBRANCH   8   9
ENDBRANCH   7   8
ENDBRANCH   6   7
ENDBRANCH   4   6
ENDBRANCH   3   4
ENDBRANCH   2   3
TORSDOF 10
ENDMDL
MODEL      204
REMARK 921   NORMALIZED FREE ENERGY PREDICTED BY IDOCK:   -3.48 KCAL/MOL
REMARK 922        TOTAL FREE ENERGY PREDICTED BY IDOCK:   -6.92 KCAL/MOL
REMARK 923 INTER-LIGAND FREE ENERGY PREDICTED BY IDOCK:   -6.16 KCAL/MOL
REMARK 924 INTRA-LIGAND FREE ENERGY PREDICTED BY IDOCK:   -0.76 KCAL/MOL
REMARK 927      BINDING AFFINITY PREDICTED BY RF-SCORE:    0.00 PKD
ROOT
HETATM    1  C   UNL     1     -10.501  19.584  67.653  1.00  0.00    -0.593 C  
HETATM    2  C   UNL     1     -10.108  18.121  67.747  1.00  0.00    -0.362 C  
ENDROOT
BRANCH   2   3
HETATM    3  O   UNL     1      -8.677  18.052  67.748  1.00  0.00    -0.245 OA 
BRANCH   3   4
HETATM    4  C   UNL     1      -8.125  17.736  66.542  1.00  0.00    -0.272 C  
HETATM    5  O   UNL     1      -8.248  18.390  65.517  1.00  0.00    -0.229 OA 
BRANCH   4   6
HETATM    6  C   UNL     1      -7.265  16.508  66.698  1.00  0.00    -0.246 C  
BRANCH   6   7
HETATM    7  C   UNL     1      -8.118  15.303  67.078  1.00  0.00    -0.253 C  
BRANCH   7   8
HETATM    8  C   UNL     1      -9.208  15.029  66.049  1.00  0.00    -0.245 C  
BRANCH   8   9
HETATM    9  C   UNL     1     -10.431  14.419  66.732  1.00  0.00    -0.273 C  
BRANCH   9  10
HETATM   10  C   UNL     1     -10.109  13.056  67.329  1.00  0.00    -0.235 C  
BRANCH  10  11
HETATM   11  C   UNL     1     -10.683  12.923  68.739  1.00  0.00    -0.249 C  
BRANCH  11  12
HETATM   12  C   UNL     1     -11.970  12.104  68.711  1.00  0.00    -0.292 C  
BRANCH  12  13
HETATM   13  C   UNL     1     -11.727  10.638  69.077  1.00  0.00    -0.305 C  
HETATM   14  C   UNL     1     -11.311  10.463  70.553  1.00  0.00    -0.424 C  
HETATM   15  C   UNL     1     -10.907   9.016  70.829  1.00  0.00    -0.310 A  
HETATM   16  C   UNL     1     -12.398  10.973  71.517  1.00  0.00    -0.299 C  
HETATM   17  C   UNL     1     -11.892   8.082  71.213  1.00  0.00    -0.321 A  
HETATM   18  C   UNL     1     -11.567   6.759  71.520  1.00  0.00    -0.344 A  
HETATM   19  C   UNL     1     -10.250   6.327  71.430  1.00  0.00    -0.237 A  
HETATM   20  C   UNL     1      -9.263   7.215  71.013  1.00  0.00    -0.158 A  
HETATM   21  C   UNL     1      -9.582   8.547  70.707  1.00  0.00    -0.180 A  
HETATM   22  I   UNL     1      -7.969   9.739  70.058  1.00  0.00    -0.087 I  
ENDBRANCH  12  13
ENDBRANCH  11  12
ENDBRANCH  10  11
ENDBRANCH   9  10
ENDBRANCH   8   9
ENDBRANCH   7   8
ENDBRANCH   6   7
ENDBRANCH   4   6
ENDBRANCH   3   4
ENDBRANCH   2   3
TORSDOF 10
ENDMDL
MODEL      205
REMARK 921   NORMALIZED FREE ENERGY PREDICTED BY IDOCK:   -3.48 KCAL/MOL
REMARK 922        TOTAL FREE ENERGY PREDICTED BY IDOCK:   -6.91 KCAL/MOL
REMARK 923 INTER-LIGAND FREE ENERGY PREDICTED BY IDOCK:   -5.80 KCAL/MOL
REMARK 924 INTRA-LIGAND FREE ENERGY PREDICTED BY IDOCK:   -1.11 KCAL/MOL
REMARK 927      BINDING AFFINITY PREDICTED BY RF-SCORE:    0.00 PKD
ROOT
HETATM    1  C   UNL     1      -5.936   9.964  66.810  1.00  0.00    -0.055 C  
HETATM    2  C   UNL     1      -7.415  10.280  66.929  1.00  0.00    -0.101 C  
ENDROOT
BRANCH   2   3
HETATM    3  O   UNL     1      -7.913  10.546  65.612  1.00  0.00    -0.157 OA 
BRANCH   3   4
HETATM    4  C   UNL     1      -9.091   9.925  65.317  1.00  0.00    -0.211 C  
HETATM    5  O   UNL     1      -9.411   8.806  65.690  1.00  0.00    -0.214 OA 
BRANCH   4   6
HETATM    6  C   UNL     1      -9.969  10.872  64.540  1.00  0.00    -0.376 C  
BRANCH   6   7
HETATM    7  C   UNL     1     -10.222  12.144  65.342  1.00  0.00    -0.299 C  
BRANCH   7   8
HETATM    8  C   UNL     1     -11.046  11.873  66.595  1.00  0.00    -0.360 C  
BRANCH   8   9
HETATM    9  C   UNL     1     -11.249  13.169  67.377  1.00  0.00    -0.319 C  
BRANCH   9  10
HETATM   10  C   UNL     1     -11.887  12.903  68.734  1.00  0.00    -0.353 C  
BRANCH  10  11
HETATM   11  C   UNL     1     -11.612  14.049  69.707  1.00  0.00    -0.344 C  
BRANCH  11  12
HETATM   12  C   UNL     1     -11.753  15.392  68.996  1.00  0.00    -0.380 C  
BRANCH  12  13
HETATM   13  C   UNL     1     -10.595  16.339  69.320  1.00  0.00    -0.293 C  
HETATM   14  C   UNL     1      -9.579  16.439  68.162  1.00  0.00    -0.227 C  
HETATM   15  C   UNL     1      -8.356  17.248  68.592  1.00  0.00    -0.255 A  
HETATM   16  C   UNL     1     -10.231  16.979  66.877  1.00  0.00    -0.305 C  
HETATM   17  C   UNL     1      -8.360  18.650  68.433  1.00  0.00    -0.362 A  
HETATM   18  C   UNL     1      -7.251  19.429  68.767  1.00  0.00    -0.390 A  
HETATM   19  C   UNL     1      -6.113  18.829  69.290  1.00  0.00    -0.268 A  
HETATM   20  C   UNL     1      -6.094  17.453  69.497  1.00  0.00    -0.252 A  
HETATM   21  C   UNL     1      -7.204  16.665  69.160  1.00  0.00    -0.220 A  
HETATM   22  I   UNL     1      -7.014  14.607  69.576  1.00  0.00    -0.060 I  
ENDBRANCH  12  13
ENDBRANCH  11  12
ENDBRANCH  10  11
ENDBRANCH   9  10
ENDBRANCH   8   9
ENDBRANCH   7   8
ENDBRANCH   6   7
ENDBRANCH   4   6
ENDBRANCH   3   4
ENDBRANCH   2   3
TORSDOF 10
ENDMDL
MODEL      206
REMARK 921   NORMALIZED FREE ENERGY PREDICTED BY IDOCK:   -3.47 KCAL/MOL
REMARK 922        TOTAL FREE ENERGY PREDICTED BY IDOCK:   -6.90 KCAL/MOL
REMARK 923 INTER-LIGAND FREE ENERGY PREDICTED BY IDOCK:   -5.67 KCAL/MOL
REMARK 924 INTRA-LIGAND FREE ENERGY PREDICTED BY IDOCK:   -1.23 KCAL/MOL
REMARK 927      BINDING AFFINITY PREDICTED BY RF-SCORE:    0.00 PKD
ROOT
HETATM    1  C   UNL     1     -14.050  14.843  72.093  1.00  0.00    -0.616 C  
HETATM    2  C   UNL     1     -13.238  15.457  70.967  1.00  0.00    -0.496 C  
ENDROOT
BRANCH   2   3
HETATM    3  O   UNL     1     -11.926  14.883  71.010  1.00  0.00    -0.283 OA 
BRANCH   3   4
HETATM    4  C   UNL     1     -11.157  15.148  69.916  1.00  0.00    -0.284 C  
HETATM    5  O   UNL     1      -9.953  15.356  69.935  1.00  0.00    -0.277 OA 
BRANCH   4   6
HETATM    6  C   UNL     1     -12.008  15.049  68.677  1.00  0.00    -0.278 C  
BRANCH   6   7
HETATM    7  C   UNL     1     -11.139  14.782  67.453  1.00  0.00    -0.327 C  
BRANCH   7   8
HETATM    8  C   UNL     1     -11.723  13.688  66.567  1.00  0.00    -0.414 C  
BRANCH   8   9
HETATM    9  C   UNL     1     -10.705  13.274  65.507  1.00  0.00    -0.299 C  
BRANCH   9  10
HETATM   10  C   UNL     1     -11.126  11.989  64.806  1.00  0.00    -0.369 C  
BRANCH  10  11
HETATM   11  C   UNL     1     -10.113  10.871  65.047  1.00  0.00    -0.362 C  
BRANCH  11  12
HETATM   12  C   UNL     1      -9.016  11.347  65.995  1.00  0.00    -0.203 C  
BRANCH  12  13
HETATM   13  C   UNL     1      -8.710  10.316  67.084  1.00  0.00    -0.131 C  
HETATM   14  C   UNL     1      -9.007  10.854  68.500  1.00  0.00    -0.157 C  
HETATM   15  C   UNL     1      -8.521   9.867  69.560  1.00  0.00    -0.184 A  
HETATM   16  C   UNL     1     -10.490  11.229  68.668  1.00  0.00    -0.226 C  
HETATM   17  C   UNL     1      -9.382   8.838  69.997  1.00  0.00    -0.175 A  
HETATM   18  C   UNL     1      -9.003   7.939  70.995  1.00  0.00    -0.152 A  
HETATM   19  C   UNL     1      -7.743   8.032  71.572  1.00  0.00    -0.098 A  
HETATM   20  C   UNL     1      -6.857   9.010  71.133  1.00  0.00    -0.092 A  
HETATM   21  C   UNL     1      -7.233   9.919  70.132  1.00  0.00    -0.155 A  
HETATM   22  I   UNL     1      -5.752  11.309  69.566  1.00  0.00    -0.094 I  
ENDBRANCH  12  13
ENDBRANCH  11  12
ENDBRANCH  10  11
ENDBRANCH   9  10
ENDBRANCH   8   9
ENDBRANCH   7   8
ENDBRANCH   6   7
ENDBRANCH   4   6
ENDBRANCH   3   4
ENDBRANCH   2   3
TORSDOF 10
ENDMDL
MODEL      207
REMARK 921   NORMALIZED FREE ENERGY PREDICTED BY IDOCK:   -3.47 KCAL/MOL
REMARK 922        TOTAL FREE ENERGY PREDICTED BY IDOCK:   -6.89 KCAL/MOL
REMARK 923 INTER-LIGAND FREE ENERGY PREDICTED BY IDOCK:   -5.78 KCAL/MOL
REMARK 924 INTRA-LIGAND FREE ENERGY PREDICTED BY IDOCK:   -1.12 KCAL/MOL
REMARK 927      BINDING AFFINITY PREDICTED BY RF-SCORE:    0.00 PKD
ROOT
HETATM    1  C   UNL     1     -10.585  16.830  67.627  1.00  0.00    -0.325 C  
HETATM    2  C   UNL     1     -10.703  15.759  66.558  1.00  0.00    -0.283 C  
ENDROOT
BRANCH   2   3
HETATM    3  O   UNL     1     -11.238  14.582  67.177  1.00  0.00    -0.310 OA 
BRANCH   3   4
HETATM    4  C   UNL     1     -11.579  13.590  66.305  1.00  0.00    -0.345 C  
HETATM    5  O   UNL     1     -12.360  12.681  66.542  1.00  0.00    -0.500 OA 
BRANCH   4   6
HETATM    6  C   UNL     1     -10.915  13.848  64.978  1.00  0.00    -0.371 C  
BRANCH   6   7
HETATM    7  C   UNL     1     -11.866  13.522  63.832  1.00  0.00    -0.460 C  
BRANCH   7   8
HETATM    8  C   UNL     1     -11.591  12.145  63.237  1.00  0.00    -0.418 C  
BRANCH   8   9
HETATM    9  C   UNL     1     -10.131  11.759  63.467  1.00  0.00    -0.463 C  
BRANCH   9  10
HETATM   10  C   UNL     1     -10.016  10.372  64.086  1.00  0.00    -0.337 C  
BRANCH  10  11
HETATM   11  C   UNL     1      -8.554   9.961  64.249  1.00  0.00    -0.199 C  
BRANCH  11  12
HETATM   12  C   UNL     1      -8.459   8.494  64.656  1.00  0.00    -0.127 C  
BRANCH  12  13
HETATM   13  C   UNL     1      -8.149   8.328  66.146  1.00  0.00    -0.111 C  
HETATM   14  C   UNL     1      -9.428   8.189  66.999  1.00  0.00    -0.226 C  
HETATM   15  C   UNL     1      -9.084   8.206  68.487  1.00  0.00    -0.136 A  
HETATM   16  C   UNL     1     -10.254   6.956  66.591  1.00  0.00    -0.215 C  
HETATM   17  C   UNL     1      -8.767   6.996  69.140  1.00  0.00    -0.132 A  
HETATM   18  C   UNL     1      -8.490   6.952  70.508  1.00  0.00    -0.137 A  
HETATM   19  C   UNL     1      -8.502   8.121  71.257  1.00  0.00    -0.154 A  
HETATM   20  C   UNL     1      -8.769   9.335  70.633  1.00  0.00    -0.282 A  
HETATM   21  C   UNL     1      -9.052   9.386  69.260  1.00  0.00    -0.152 A  
HETATM   22  I   UNL     1      -9.397  11.312  68.475  1.00  0.00    -0.092 I  
ENDBRANCH  12  13
ENDBRANCH  11  12
ENDBRANCH  10  11
ENDBRANCH   9  10
ENDBRANCH   8   9
ENDBRANCH   7   8
ENDBRANCH   6   7
ENDBRANCH   4   6
ENDBRANCH   3   4
ENDBRANCH   2   3
TORSDOF 10
ENDMDL
MODEL      208
REMARK 921   NORMALIZED FREE ENERGY PREDICTED BY IDOCK:   -3.46 KCAL/MOL
REMARK 922        TOTAL FREE ENERGY PREDICTED BY IDOCK:   -6.89 KCAL/MOL
REMARK 923 INTER-LIGAND FREE ENERGY PREDICTED BY IDOCK:   -6.28 KCAL/MOL
REMARK 924 INTRA-LIGAND FREE ENERGY PREDICTED BY IDOCK:   -0.61 KCAL/MOL
REMARK 927      BINDING AFFINITY PREDICTED BY RF-SCORE:    0.00 PKD
ROOT
HETATM    1  C   UNL     1     -11.047  12.042  63.269  1.00  0.00    -0.400 C  
HETATM    2  C   UNL     1     -10.642  12.593  64.624  1.00  0.00    -0.333 C  
ENDROOT
BRANCH   2   3
HETATM    3  O   UNL     1     -10.195  13.941  64.432  1.00  0.00    -0.337 OA 
BRANCH   3   4
HETATM    4  C   UNL     1     -11.068  14.894  64.865  1.00  0.00    -0.414 C  
HETATM    5  O   UNL     1     -11.112  16.047  64.461  1.00  0.00    -0.572 OA 
BRANCH   4   6
HETATM    6  C   UNL     1     -12.029  14.275  65.847  1.00  0.00    -0.400 C  
BRANCH   6   7
HETATM    7  C   UNL     1     -11.866  14.907  67.224  1.00  0.00    -0.239 C  
BRANCH   7   8
HETATM    8  C   UNL     1     -10.492  14.627  67.821  1.00  0.00    -0.246 C  
BRANCH   8   9
HETATM    9  C   UNL     1     -10.639  13.862  69.135  1.00  0.00    -0.124 C  
BRANCH   9  10
HETATM   10  C   UNL     1     -12.022  13.239  69.262  1.00  0.00    -0.354 C  
BRANCH  10  11
HETATM   11  C   UNL     1     -11.943  11.713  69.256  1.00  0.00    -0.382 C  
BRANCH  11  12
HETATM   12  C   UNL     1     -10.500  11.260  69.058  1.00  0.00    -0.221 C  
BRANCH  12  13
HETATM   13  C   UNL     1     -10.375   9.735  69.024  1.00  0.00    -0.222 C  
HETATM   14  C   UNL     1     -10.035   9.143  70.409  1.00  0.00    -0.263 C  
HETATM   15  C   UNL     1      -9.744   7.648  70.296  1.00  0.00    -0.179 A  
HETATM   16  C   UNL     1     -11.124   9.463  71.448  1.00  0.00    -0.450 C  
HETATM   17  C   UNL     1     -10.806   6.725  70.394  1.00  0.00    -0.306 A  
HETATM   18  C   UNL     1     -10.587   5.347  70.343  1.00  0.00    -0.322 A  
HETATM   19  C   UNL     1      -9.301   4.853  70.171  1.00  0.00    -0.217 A  
HETATM   20  C   UNL     1      -8.238   5.740  70.030  1.00  0.00    -0.115 A  
HETATM   21  C   UNL     1      -8.451   7.126  70.084  1.00  0.00    -0.139 A  
HETATM   22  I   UNL     1      -6.733   8.318  69.814  1.00  0.00    -0.040 I  
ENDBRANCH  12  13
ENDBRANCH  11  12
ENDBRANCH  10  11
ENDBRANCH   9  10
ENDBRANCH   8   9
ENDBRANCH   7   8
ENDBRANCH   6   7
ENDBRANCH   4   6
ENDBRANCH   3   4
ENDBRANCH   2   3
TORSDOF 10
ENDMDL
MODEL      209
REMARK 921   NORMALIZED FREE ENERGY PREDICTED BY IDOCK:   -3.46 KCAL/MOL
REMARK 922        TOTAL FREE ENERGY PREDICTED BY IDOCK:   -6.88 KCAL/MOL
REMARK 923 INTER-LIGAND FREE ENERGY PREDICTED BY IDOCK:   -5.63 KCAL/MOL
REMARK 924 INTRA-LIGAND FREE ENERGY PREDICTED BY IDOCK:   -1.26 KCAL/MOL
REMARK 927      BINDING AFFINITY PREDICTED BY RF-SCORE:    0.00 PKD
ROOT
HETATM    1  C   UNL     1     -11.266  15.795  64.424  1.00  0.00    -0.249 C  
HETATM    2  C   UNL     1     -12.408  14.807  64.577  1.00  0.00    -0.366 C  
ENDROOT
BRANCH   2   3
HETATM    3  O   UNL     1     -11.859  13.575  65.059  1.00  0.00    -0.328 OA 
BRANCH   3   4
HETATM    4  C   UNL     1     -11.534  12.680  64.083  1.00  0.00    -0.387 C  
HETATM    5  O   UNL     1     -12.200  12.455  63.083  1.00  0.00    -0.450 OA 
BRANCH   4   6
HETATM    6  C   UNL     1     -10.183  12.087  64.386  1.00  0.00    -0.332 C  
BRANCH   6   7
HETATM    7  C   UNL     1     -10.310  10.959  65.403  1.00  0.00    -0.326 C  
BRANCH   7   8
HETATM    8  C   UNL     1      -9.810  11.375  66.782  1.00  0.00    -0.232 C  
BRANCH   8   9
HETATM    9  C   UNL     1      -8.799  10.354  67.301  1.00  0.00    -0.135 C  
BRANCH   9  10
HETATM   10  C   UNL     1      -7.432  10.989  67.516  1.00  0.00    -0.102 C  
BRANCH  10  11
HETATM   11  C   UNL     1      -7.478  12.030  68.634  1.00  0.00    -0.113 C  
BRANCH  11  12
HETATM   12  C   UNL     1      -6.680  13.269  68.236  1.00  0.00    -0.103 C  
BRANCH  12  13
HETATM   13  C   UNL     1      -7.377  14.563  68.662  1.00  0.00    -0.128 C  
HETATM   14  C   UNL     1      -7.770  15.442  67.455  1.00  0.00    -0.205 C  
HETATM   15  C   UNL     1      -8.296  16.796  67.927  1.00  0.00    -0.196 A  
HETATM   16  C   UNL     1      -8.749  14.715  66.516  1.00  0.00    -0.115 C  
HETATM   17  C   UNL     1      -9.669  16.945  68.217  1.00  0.00    -0.256 A  
HETATM   18  C   UNL     1     -10.207  18.173  68.608  1.00  0.00    -0.382 A  
HETATM   19  C   UNL     1      -9.383  19.282  68.740  1.00  0.00    -0.437 A  
HETATM   20  C   UNL     1      -8.018  19.157  68.501  1.00  0.00    -0.386 A  
HETATM   21  C   UNL     1      -7.472  17.927  68.105  1.00  0.00    -0.250 A  
HETATM   22  I   UNL     1      -5.382  17.911  67.823  1.00  0.00    -0.149 I  
ENDBRANCH  12  13
ENDBRANCH  11  12
ENDBRANCH  10  11
ENDBRANCH   9  10
ENDBRANCH   8   9
ENDBRANCH   7   8
ENDBRANCH   6   7
ENDBRANCH   4   6
ENDBRANCH   3   4
ENDBRANCH   2   3
TORSDOF 10
ENDMDL
MODEL      210
REMARK 921   NORMALIZED FREE ENERGY PREDICTED BY IDOCK:   -3.46 KCAL/MOL
REMARK 922        TOTAL FREE ENERGY PREDICTED BY IDOCK:   -6.88 KCAL/MOL
REMARK 923 INTER-LIGAND FREE ENERGY PREDICTED BY IDOCK:   -5.78 KCAL/MOL
REMARK 924 INTRA-LIGAND FREE ENERGY PREDICTED BY IDOCK:   -1.10 KCAL/MOL
REMARK 927      BINDING AFFINITY PREDICTED BY RF-SCORE:    0.00 PKD
ROOT
HETATM    1  C   UNL     1      -6.034   5.272  64.013  1.00  0.00    -0.021 C  
HETATM    2  C   UNL     1      -7.519   5.560  63.901  1.00  0.00    -0.062 C  
ENDROOT
BRANCH   2   3
HETATM    3  O   UNL     1      -7.997   5.909  65.207  1.00  0.00    -0.102 OA 
BRANCH   3   4
HETATM    4  C   UNL     1      -8.842   4.995  65.762  1.00  0.00    -0.139 C  
HETATM    5  O   UNL     1      -9.102   3.898  65.291  1.00  0.00    -0.129 OA 
BRANCH   4   6
HETATM    6  C   UNL     1      -9.326   5.513  67.092  1.00  0.00    -0.115 C  
BRANCH   6   7
HETATM    7  C   UNL     1      -8.549   6.761  67.494  1.00  0.00    -0.120 C  
BRANCH   7   8
HETATM    8  C   UNL     1      -9.422   7.758  68.247  1.00  0.00    -0.150 C  
BRANCH   8   9
HETATM    9  C   UNL     1     -10.613   8.168  67.383  1.00  0.00    -0.325 C  
BRANCH   9  10
HETATM   10  C   UNL     1     -10.228   9.254  66.388  1.00  0.00    -0.298 C  
BRANCH  10  11
HETATM   11  C   UNL     1      -9.903  10.565  67.101  1.00  0.00    -0.213 C  
BRANCH  11  12
HETATM   12  C   UNL     1     -10.860  11.664  66.651  1.00  0.00    -0.327 C  
BRANCH  12  13
HETATM   13  C   UNL     1     -11.802  12.104  67.774  1.00  0.00    -0.327 C  
HETATM   14  C   UNL     1     -11.038  12.526  69.047  1.00  0.00    -0.287 C  
HETATM   15  C   UNL     1     -12.012  12.784  70.196  1.00  0.00    -0.371 A  
HETATM   16  C   UNL     1     -10.100  13.717  68.781  1.00  0.00    -0.141 C  
HETATM   17  C   UNL     1     -12.571  14.070  70.356  1.00  0.00    -0.374 A  
HETATM   18  C   UNL     1     -13.430  14.369  71.415  1.00  0.00    -0.422 A  
HETATM   19  C   UNL     1     -13.771  13.384  72.333  1.00  0.00    -0.698 A  
HETATM   20  C   UNL     1     -13.268  12.096  72.177  1.00  0.00    -0.438 A  
HETATM   21  C   UNL     1     -12.402  11.790  71.117  1.00  0.00    -0.224 A  
HETATM   22  I   UNL     1     -11.768   9.782  71.015  1.00  0.00    -0.492 I  
ENDBRANCH  12  13
ENDBRANCH  11  12
ENDBRANCH  10  11
ENDBRANCH   9  10
ENDBRANCH   8   9
ENDBRANCH   7   8
ENDBRANCH   6   7
ENDBRANCH   4   6
ENDBRANCH   3   4
ENDBRANCH   2   3
TORSDOF 10
ENDMDL
MODEL      211
REMARK 921   NORMALIZED FREE ENERGY PREDICTED BY IDOCK:   -3.46 KCAL/MOL
REMARK 922        TOTAL FREE ENERGY PREDICTED BY IDOCK:   -6.88 KCAL/MOL
REMARK 923 INTER-LIGAND FREE ENERGY PREDICTED BY IDOCK:   -5.25 KCAL/MOL
REMARK 924 INTRA-LIGAND FREE ENERGY PREDICTED BY IDOCK:   -1.63 KCAL/MOL
REMARK 927      BINDING AFFINITY PREDICTED BY RF-SCORE:    0.00 PKD
ROOT
HETATM    1  C   UNL     1      -8.441  14.582  67.848  1.00  0.00    -0.161 C  
HETATM    2  C   UNL     1      -8.327  13.208  67.212  1.00  0.00    -0.179 C  
ENDROOT
BRANCH   2   3
HETATM    3  O   UNL     1      -7.279  12.500  67.885  1.00  0.00    -0.091 OA 
BRANCH   3   4
HETATM    4  C   UNL     1      -6.218  12.176  67.094  1.00  0.00    -0.143 C  
HETATM    5  O   UNL     1      -5.131  12.735  67.107  1.00  0.00    -0.322 OA 
BRANCH   4   6
HETATM    6  C   UNL     1      -6.565  10.960  66.274  1.00  0.00    -0.126 C  
BRANCH   6   7
HETATM    7  C   UNL     1      -5.983   9.703  66.909  1.00  0.00    -0.055 C  
BRANCH   7   8
HETATM    8  C   UNL     1      -6.989   8.558  66.933  1.00  0.00    -0.074 C  
BRANCH   8   9
HETATM    9  C   UNL     1      -8.328   9.026  66.366  1.00  0.00    -0.117 C  
BRANCH   9  10
HETATM   10  C   UNL     1      -9.416   7.983  66.582  1.00  0.00    -0.273 C  
BRANCH  10  11
HETATM   11  C   UNL     1     -10.644   8.598  67.252  1.00  0.00    -0.308 C  
BRANCH  11  12
HETATM   12  C   UNL     1     -10.292   9.095  68.650  1.00  0.00    -0.233 C  
BRANCH  12  13
HETATM   13  C   UNL     1     -10.351  10.621  68.751  1.00  0.00    -0.210 C  
HETATM   14  C   UNL     1     -11.800  11.153  68.758  1.00  0.00    -0.388 C  
HETATM   15  C   UNL     1     -11.812  12.678  68.679  1.00  0.00    -0.342 A  
HETATM   16  C   UNL     1     -12.601  10.611  69.955  1.00  0.00    -0.232 C  
HETATM   17  C   UNL     1     -11.750  13.435  69.867  1.00  0.00    -0.337 A  
HETATM   18  C   UNL     1     -11.803  14.830  69.852  1.00  0.00    -0.364 A  
HETATM   19  C   UNL     1     -11.899  15.509  68.644  1.00  0.00    -0.318 A  
HETATM   20  C   UNL     1     -11.920  14.791  67.452  1.00  0.00    -0.236 A  
HETATM   21  C   UNL     1     -11.870  13.389  67.462  1.00  0.00    -0.366 A  
HETATM   22  I   UNL     1     -11.874  12.469  65.564  1.00  0.00    -0.374 I  
ENDBRANCH  12  13
ENDBRANCH  11  12
ENDBRANCH  10  11
ENDBRANCH   9  10
ENDBRANCH   8   9
ENDBRANCH   7   8
ENDBRANCH   6   7
ENDBRANCH   4   6
ENDBRANCH   3   4
ENDBRANCH   2   3
TORSDOF 10
ENDMDL
MODEL      212
REMARK 921   NORMALIZED FREE ENERGY PREDICTED BY IDOCK:   -3.46 KCAL/MOL
REMARK 922        TOTAL FREE ENERGY PREDICTED BY IDOCK:   -6.88 KCAL/MOL
REMARK 923 INTER-LIGAND FREE ENERGY PREDICTED BY IDOCK:   -5.96 KCAL/MOL
REMARK 924 INTRA-LIGAND FREE ENERGY PREDICTED BY IDOCK:   -0.92 KCAL/MOL
REMARK 927      BINDING AFFINITY PREDICTED BY RF-SCORE:    0.00 PKD
ROOT
HETATM    1  C   UNL     1     -12.856  11.850  63.724  1.00  0.00    -0.396 C  
HETATM    2  C   UNL     1     -11.868  12.599  64.599  1.00  0.00    -0.380 C  
ENDROOT
BRANCH   2   3
HETATM    3  O   UNL     1     -11.496  13.799  63.910  1.00  0.00    -0.283 OA 
BRANCH   3   4
HETATM    4  C   UNL     1     -11.693  14.944  64.622  1.00  0.00    -0.404 C  
HETATM    5  O   UNL     1     -11.982  16.032  64.144  1.00  0.00    -0.671 OA 
BRANCH   4   6
HETATM    6  C   UNL     1     -11.593  14.636  66.094  1.00  0.00    -0.332 C  
BRANCH   6   7
HETATM    7  C   UNL     1     -10.496  15.473  66.742  1.00  0.00    -0.295 C  
BRANCH   7   8
HETATM    8  C   UNL     1      -9.134  15.221  66.105  1.00  0.00    -0.314 C  
BRANCH   8   9
HETATM    9  C   UNL     1      -8.074  15.045  67.190  1.00  0.00    -0.245 C  
BRANCH   9  10
HETATM   10  C   UNL     1      -8.680  14.489  68.472  1.00  0.00    -0.177 C  
BRANCH  10  11
HETATM   11  C   UNL     1      -7.969  13.209  68.908  1.00  0.00     0.159 C  
BRANCH  11  12
HETATM   12  C   UNL     1      -8.465  12.023  68.088  1.00  0.00    -0.171 C  
BRANCH  12  13
HETATM   13  C   UNL     1      -9.291  11.046  68.928  1.00  0.00    -0.155 C  
HETATM   14  C   UNL     1      -8.529   9.737  69.224  1.00  0.00    -0.152 C  
HETATM   15  C   UNL     1      -9.448   8.725  69.906  1.00  0.00    -0.174 A  
HETATM   16  C   UNL     1      -7.235   9.997  70.015  1.00  0.00    -0.158 C  
HETATM   17  C   UNL     1      -9.564   8.731  71.312  1.00  0.00    -0.323 A  
HETATM   18  C   UNL     1     -10.354   7.798  71.987  1.00  0.00    -0.267 A  
HETATM   19  C   UNL     1     -11.068   6.845  71.272  1.00  0.00    -0.293 A  
HETATM   20  C   UNL     1     -11.006   6.841  69.881  1.00  0.00    -0.340 A  
HETATM   21  C   UNL     1     -10.211   7.773  69.198  1.00  0.00    -0.208 A  
HETATM   22  I   UNL     1     -10.267   7.643  67.095  1.00  0.00    -0.383 I  
ENDBRANCH  12  13
ENDBRANCH  11  12
ENDBRANCH  10  11
ENDBRANCH   9  10
ENDBRANCH   8   9
ENDBRANCH   7   8
ENDBRANCH   6   7
ENDBRANCH   4   6
ENDBRANCH   3   4
ENDBRANCH   2   3
TORSDOF 10
ENDMDL
MODEL      213
REMARK 921   NORMALIZED FREE ENERGY PREDICTED BY IDOCK:   -3.46 KCAL/MOL
REMARK 922        TOTAL FREE ENERGY PREDICTED BY IDOCK:   -6.87 KCAL/MOL
REMARK 923 INTER-LIGAND FREE ENERGY PREDICTED BY IDOCK:   -5.99 KCAL/MOL
REMARK 924 INTRA-LIGAND FREE ENERGY PREDICTED BY IDOCK:   -0.89 KCAL/MOL
REMARK 927      BINDING AFFINITY PREDICTED BY RF-SCORE:    0.00 PKD
ROOT
HETATM    1  C   UNL     1      -8.687   8.688  70.771  1.00  0.00    -0.202 C  
HETATM    2  C   UNL     1      -9.564   8.575  69.538  1.00  0.00    -0.170 C  
ENDROOT
BRANCH   2   3
HETATM    3  O   UNL     1      -8.727   8.757  68.388  1.00  0.00    -0.133 OA 
BRANCH   3   4
HETATM    4  C   UNL     1      -9.250   9.577  67.433  1.00  0.00    -0.133 C  
HETATM    5  O   UNL     1      -8.613  10.111  66.537  1.00  0.00    -0.125 OA 
BRANCH   4   6
HETATM    6  C   UNL     1     -10.746   9.640  67.600  1.00  0.00    -0.324 C  
BRANCH   6   7
HETATM    7  C   UNL     1     -11.229  11.085  67.541  1.00  0.00    -0.372 C  
BRANCH   7   8
HETATM    8  C   UNL     1     -11.990  11.483  68.801  1.00  0.00    -0.335 C  
BRANCH   8   9
HETATM    9  C   UNL     1     -11.775  12.967  69.095  1.00  0.00    -0.376 C  
BRANCH   9  10
HETATM   10  C   UNL     1     -10.438  13.451  68.549  1.00  0.00    -0.260 C  
BRANCH  10  11
HETATM   11  C   UNL     1     -10.624  14.659  67.631  1.00  0.00    -0.256 C  
BRANCH  11  12
HETATM   12  C   UNL     1      -9.903  14.431  66.305  1.00  0.00    -0.321 C  
BRANCH  12  13
HETATM   13  C   UNL     1      -9.193  15.694  65.812  1.00  0.00    -0.247 C  
HETATM   14  C   UNL     1      -8.396  16.394  66.932  1.00  0.00    -0.263 C  
HETATM   15  C   UNL     1      -7.854  17.738  66.446  1.00  0.00    -0.312 A  
HETATM   16  C   UNL     1      -7.298  15.481  67.508  1.00  0.00    -0.216 C  
HETATM   17  C   UNL     1      -6.598  17.788  65.806  1.00  0.00    -0.221 A  
HETATM   18  C   UNL     1      -6.038  18.996  65.383  1.00  0.00    -0.283 A  
HETATM   19  C   UNL     1      -6.729  20.185  65.571  1.00  0.00    -0.313 A  
HETATM   20  C   UNL     1      -7.989  20.162  66.161  1.00  0.00    -0.256 A  
HETATM   21  C   UNL     1      -8.555  18.953  66.591  1.00  0.00    -0.307 A  
HETATM   22  I   UNL     1     -10.484  19.102  67.429  1.00  0.00    -0.561 I  
ENDBRANCH  12  13
ENDBRANCH  11  12
ENDBRANCH  10  11
ENDBRANCH   9  10
ENDBRANCH   8   9
ENDBRANCH   7   8
ENDBRANCH   6   7
ENDBRANCH   4   6
ENDBRANCH   3   4
ENDBRANCH   2   3
TORSDOF 10
ENDMDL
MODEL      214
REMARK 921   NORMALIZED FREE ENERGY PREDICTED BY IDOCK:   -3.45 KCAL/MOL
REMARK 922        TOTAL FREE ENERGY PREDICTED BY IDOCK:   -6.87 KCAL/MOL
REMARK 923 INTER-LIGAND FREE ENERGY PREDICTED BY IDOCK:   -5.49 KCAL/MOL
REMARK 924 INTRA-LIGAND FREE ENERGY PREDICTED BY IDOCK:   -1.37 KCAL/MOL
REMARK 927      BINDING AFFINITY PREDICTED BY RF-SCORE:    0.00 PKD
ROOT
HETATM    1  C   UNL     1     -12.112  13.834  66.569  1.00  0.00    -0.483 C  
HETATM    2  C   UNL     1     -10.896  14.503  67.183  1.00  0.00    -0.296 C  
ENDROOT
BRANCH   2   3
HETATM    3  O   UNL     1     -10.874  14.174  68.577  1.00  0.00    -0.237 OA 
BRANCH   3   4
HETATM    4  C   UNL     1     -11.435  15.115  69.389  1.00  0.00    -0.306 C  
HETATM    5  O   UNL     1     -11.445  16.318  69.172  1.00  0.00    -0.320 OA 
BRANCH   4   6
HETATM    6  C   UNL     1     -12.121  14.429  70.541  1.00  0.00    -0.404 C  
BRANCH   6   7
HETATM    7  C   UNL     1     -12.727  13.105  70.091  1.00  0.00     0.060 C  
BRANCH   7   8
HETATM    8  C   UNL     1     -12.722  12.067  71.207  1.00  0.00    -0.382 C  
BRANCH   8   9
HETATM    9  C   UNL     1     -12.221  10.727  70.672  1.00  0.00    -0.474 C  
BRANCH   9  10
HETATM   10  C   UNL     1     -11.592  10.880  69.293  1.00  0.00    -0.388 C  
BRANCH  10  11
HETATM   11  C   UNL     1     -10.070  10.768  69.366  1.00  0.00    -0.166 C  
BRANCH  11  12
HETATM   12  C   UNL     1      -9.448  11.146  68.025  1.00  0.00    -0.174 C  
BRANCH  12  13
HETATM   13  C   UNL     1      -8.745   9.959  67.362  1.00  0.00    -0.129 C  
HETATM   14  C   UNL     1      -9.652   9.234  66.345  1.00  0.00    -0.301 C  
HETATM   15  C   UNL     1      -8.981   7.957  65.843  1.00  0.00    -0.166 A  
HETATM   16  C   UNL     1     -10.089  10.168  65.203  1.00  0.00    -0.329 C  
HETATM   17  C   UNL     1      -8.126   8.018  64.722  1.00  0.00    -0.143 A  
HETATM   18  C   UNL     1      -7.525   6.873  64.196  1.00  0.00    -0.101 A  
HETATM   19  C   UNL     1      -7.744   5.637  64.789  1.00  0.00    -0.101 A  
HETATM   20  C   UNL     1      -8.549   5.552  65.921  1.00  0.00    -0.141 A  
HETATM   21  C   UNL     1      -9.159   6.698  66.452  1.00  0.00    -0.152 A  
HETATM   22  I   UNL     1     -10.313   6.388  68.190  1.00  0.00    -0.360 I  
ENDBRANCH  12  13
ENDBRANCH  11  12
ENDBRANCH  10  11
ENDBRANCH   9  10
ENDBRANCH   8   9
ENDBRANCH   7   8
ENDBRANCH   6   7
ENDBRANCH   4   6
ENDBRANCH   3   4
ENDBRANCH   2   3
TORSDOF 10
ENDMDL
MODEL      215
REMARK 921   NORMALIZED FREE ENERGY PREDICTED BY IDOCK:   -3.45 KCAL/MOL
REMARK 922        TOTAL FREE ENERGY PREDICTED BY IDOCK:   -6.86 KCAL/MOL
REMARK 923 INTER-LIGAND FREE ENERGY PREDICTED BY IDOCK:   -6.15 KCAL/MOL
REMARK 924 INTRA-LIGAND FREE ENERGY PREDICTED BY IDOCK:   -0.71 KCAL/MOL
REMARK 927      BINDING AFFINITY PREDICTED BY RF-SCORE:    0.00 PKD
ROOT
HETATM    1  C   UNL     1     -13.222  10.315  71.954  1.00  0.00    -0.550 C  
HETATM    2  C   UNL     1     -13.156   8.854  72.358  1.00  0.00    -0.418 C  
ENDROOT
BRANCH   2   3
HETATM    3  O   UNL     1     -12.187   8.212  71.519  1.00  0.00    -0.287 OA 
BRANCH   3   4
HETATM    4  C   UNL     1     -11.239   7.501  72.192  1.00  0.00    -0.270 C  
HETATM    5  O   UNL     1     -11.026   7.571  73.394  1.00  0.00    -0.380 OA 
BRANCH   4   6
HETATM    6  C   UNL     1     -10.564   6.549  71.239  1.00  0.00    -0.268 C  
BRANCH   6   7
HETATM    7  C   UNL     1     -11.233   6.599  69.870  1.00  0.00    -0.421 C  
BRANCH   7   8
HETATM    8  C   UNL     1     -10.225   6.448  68.737  1.00  0.00    -0.206 C  
BRANCH   8   9
HETATM    9  C   UNL     1     -10.602   7.367  67.576  1.00  0.00    -0.340 C  
BRANCH   9  10
HETATM   10  C   UNL     1      -9.761   8.636  67.579  1.00  0.00    -0.212 C  
BRANCH  10  11
HETATM   11  C   UNL     1     -10.470   9.768  66.837  1.00  0.00    -0.281 C  
BRANCH  11  12
HETATM   12  C   UNL     1      -9.453  10.778  66.316  1.00  0.00    -0.213 C  
BRANCH  12  13
HETATM   13  C   UNL     1      -9.966  12.217  66.415  1.00  0.00    -0.243 C  
HETATM   14  C   UNL     1      -9.300  12.999  67.567  1.00  0.00    -0.200 C  
HETATM   15  C   UNL     1      -9.965  14.363  67.744  1.00  0.00    -0.226 A  
HETATM   16  C   UNL     1      -7.775  13.098  67.383  1.00  0.00    -0.151 C  
HETATM   17  C   UNL     1      -9.495  15.466  67.001  1.00  0.00    -0.232 A  
HETATM   18  C   UNL     1     -10.039  16.742  67.160  1.00  0.00    -0.282 A  
HETATM   19  C   UNL     1     -11.083  16.947  68.051  1.00  0.00    -0.190 A  
HETATM   20  C   UNL     1     -11.596  15.870  68.767  1.00  0.00    -0.389 A  
HETATM   21  C   UNL     1     -11.052  14.586  68.615  1.00  0.00    -0.257 A  
HETATM   22  I   UNL     1     -11.977  13.068  69.750  1.00  0.00    -0.132 I  
ENDBRANCH  12  13
ENDBRANCH  11  12
ENDBRANCH  10  11
ENDBRANCH   9  10
ENDBRANCH   8   9
ENDBRANCH   7   8
ENDBRANCH   6   7
ENDBRANCH   4   6
ENDBRANCH   3   4
ENDBRANCH   2   3
TORSDOF 10
ENDMDL
MODEL      216
REMARK 921   NORMALIZED FREE ENERGY PREDICTED BY IDOCK:   -3.44 KCAL/MOL
REMARK 922        TOTAL FREE ENERGY PREDICTED BY IDOCK:   -6.85 KCAL/MOL
REMARK 923 INTER-LIGAND FREE ENERGY PREDICTED BY IDOCK:   -5.98 KCAL/MOL
REMARK 924 INTRA-LIGAND FREE ENERGY PREDICTED BY IDOCK:   -0.87 KCAL/MOL
REMARK 927      BINDING AFFINITY PREDICTED BY RF-SCORE:    0.00 PKD
ROOT
HETATM    1  C   UNL     1      -6.081  20.214  68.995  1.00  0.00    -0.352 C  
HETATM    2  C   UNL     1      -6.327  18.757  68.649  1.00  0.00    -0.233 C  
ENDROOT
BRANCH   2   3
HETATM    3  O   UNL     1      -7.545  18.685  67.897  1.00  0.00    -0.239 OA 
BRANCH   3   4
HETATM    4  C   UNL     1      -7.429  18.057  66.692  1.00  0.00    -0.224 C  
HETATM    5  O   UNL     1      -6.678  18.396  65.790  1.00  0.00    -0.250 OA 
BRANCH   4   6
HETATM    6  C   UNL     1      -8.301  16.828  66.689  1.00  0.00    -0.296 C  
BRANCH   6   7
HETATM    7  C   UNL     1      -9.763  17.211  66.489  1.00  0.00    -0.299 C  
BRANCH   7   8
HETATM    8  C   UNL     1     -10.574  16.070  65.886  1.00  0.00    -0.338 C  
BRANCH   8   9
HETATM    9  C   UNL     1      -9.650  14.913  65.511  1.00  0.00    -0.180 C  
BRANCH   9  10
HETATM   10  C   UNL     1     -10.349  13.923  64.589  1.00  0.00    -0.366 C  
BRANCH  10  11
HETATM   11  C   UNL     1     -10.825  12.693  65.361  1.00  0.00    -0.318 C  
BRANCH  11  12
HETATM   12  C   UNL     1      -9.675  12.097  66.167  1.00  0.00    -0.254 C  
BRANCH  12  13
HETATM   13  C   UNL     1     -10.170  11.162  67.273  1.00  0.00    -0.227 C  
HETATM   14  C   UNL     1      -9.982  11.768  68.680  1.00  0.00    -0.181 C  
HETATM   15  C   UNL     1     -10.320  10.739  69.757  1.00  0.00    -0.073 A  
HETATM   16  C   UNL     1     -10.764  13.083  68.845  1.00  0.00    -0.201 C  
HETATM   17  C   UNL     1     -11.650  10.623  70.213  1.00  0.00    -0.424 A  
HETATM   18  C   UNL     1     -12.002   9.730  71.226  1.00  0.00    -0.471 A  
HETATM   19  C   UNL     1     -11.037   8.912  71.798  1.00  0.00    -0.433 A  
HETATM   20  C   UNL     1      -9.725   8.973  71.340  1.00  0.00    -0.369 A  
HETATM   21  C   UNL     1      -9.364   9.871  70.325  1.00  0.00    -0.087 A  
HETATM   22  I   UNL     1      -7.342   9.803  69.731  1.00  0.00    -0.171 I  
ENDBRANCH  12  13
ENDBRANCH  11  12
ENDBRANCH  10  11
ENDBRANCH   9  10
ENDBRANCH   8   9
ENDBRANCH   7   8
ENDBRANCH   6   7
ENDBRANCH   4   6
ENDBRANCH   3   4
ENDBRANCH   2   3
TORSDOF 10
ENDMDL
MODEL      217
REMARK 921   NORMALIZED FREE ENERGY PREDICTED BY IDOCK:   -3.44 KCAL/MOL
REMARK 922        TOTAL FREE ENERGY PREDICTED BY IDOCK:   -6.85 KCAL/MOL
REMARK 923 INTER-LIGAND FREE ENERGY PREDICTED BY IDOCK:   -5.98 KCAL/MOL
REMARK 924 INTRA-LIGAND FREE ENERGY PREDICTED BY IDOCK:   -0.87 KCAL/MOL
REMARK 927      BINDING AFFINITY PREDICTED BY RF-SCORE:    0.00 PKD
ROOT
HETATM    1  C   UNL     1     -10.296   4.722  73.567  1.00  0.00    -0.245 C  
HETATM    2  C   UNL     1     -10.310   5.482  72.253  1.00  0.00    -0.210 C  
ENDROOT
BRANCH   2   3
HETATM    3  O   UNL     1     -11.392   6.420  72.302  1.00  0.00    -0.263 OA 
BRANCH   3   4
HETATM    4  C   UNL     1     -11.020   7.697  72.603  1.00  0.00    -0.351 C  
HETATM    5  O   UNL     1      -9.873   8.069  72.802  1.00  0.00    -0.234 OA 
BRANCH   4   6
HETATM    6  C   UNL     1     -12.233   8.589  72.558  1.00  0.00    -0.383 C  
BRANCH   6   7
HETATM    7  C   UNL     1     -12.419   9.168  71.160  1.00  0.00    -0.315 C  
BRANCH   7   8
HETATM    8  C   UNL     1     -12.178  10.673  71.129  1.00  0.00    -0.479 C  
BRANCH   8   9
HETATM    9  C   UNL     1     -12.493  11.225  69.740  1.00  0.00    -0.193 C  
BRANCH   9  10
HETATM   10  C   UNL     1     -11.345  10.973  68.771  1.00  0.00    -0.349 C  
BRANCH  10  11
HETATM   11  C   UNL     1     -11.611  11.634  67.419  1.00  0.00    -0.330 C  
BRANCH  11  12
HETATM   12  C   UNL     1     -11.937  13.112  67.608  1.00  0.00    -0.363 C  
BRANCH  12  13
HETATM   13  C   UNL     1     -10.680  13.954  67.837  1.00  0.00    -0.248 C  
HETATM   14  C   UNL     1      -9.625  13.745  66.731  1.00  0.00    -0.283 C  
HETATM   15  C   UNL     1      -8.324  14.461  67.089  1.00  0.00    -0.214 A  
HETATM   16  C   UNL     1     -10.164  14.144  65.345  1.00  0.00    -0.380 C  
HETATM   17  C   UNL     1      -8.147  15.809  66.712  1.00  0.00    -0.297 A  
HETATM   18  C   UNL     1      -6.959  16.494  66.976  1.00  0.00    -0.250 A  
HETATM   19  C   UNL     1      -5.922  15.856  67.643  1.00  0.00    -0.177 A  
HETATM   20  C   UNL     1      -6.082  14.540  68.063  1.00  0.00    -0.161 A  
HETATM   21  C   UNL     1      -7.272  13.844  67.798  1.00  0.00    -0.164 A  
HETATM   22  I   UNL     1      -7.354  11.873  68.541  1.00  0.00    -0.089 I  
ENDBRANCH  12  13
ENDBRANCH  11  12
ENDBRANCH  10  11
ENDBRANCH   9  10
ENDBRANCH   8   9
ENDBRANCH   7   8
ENDBRANCH   6   7
ENDBRANCH   4   6
ENDBRANCH   3   4
ENDBRANCH   2   3
TORSDOF 10
ENDMDL
MODEL      218
REMARK 921   NORMALIZED FREE ENERGY PREDICTED BY IDOCK:   -3.44 KCAL/MOL
REMARK 922        TOTAL FREE ENERGY PREDICTED BY IDOCK:   -6.85 KCAL/MOL
REMARK 923 INTER-LIGAND FREE ENERGY PREDICTED BY IDOCK:   -5.69 KCAL/MOL
REMARK 924 INTRA-LIGAND FREE ENERGY PREDICTED BY IDOCK:   -1.16 KCAL/MOL
REMARK 927      BINDING AFFINITY PREDICTED BY RF-SCORE:    0.00 PKD
ROOT
HETATM    1  C   UNL     1      -8.193   9.045  64.172  1.00  0.00    -0.166 C  
HETATM    2  C   UNL     1      -9.379   9.967  64.386  1.00  0.00    -0.290 C  
ENDROOT
BRANCH   2   3
HETATM    3  O   UNL     1      -9.808   9.820  65.746  1.00  0.00    -0.260 OA 
BRANCH   3   4
HETATM    4  C   UNL     1      -9.979  10.995  66.415  1.00  0.00    -0.222 C  
HETATM    5  O   UNL     1      -9.292  11.996  66.270  1.00  0.00    -0.224 OA 
BRANCH   4   6
HETATM    6  C   UNL     1     -11.204  10.895  67.287  1.00  0.00    -0.307 C  
BRANCH   6   7
HETATM    7  C   UNL     1     -11.551  12.256  67.879  1.00  0.00    -0.416 C  
BRANCH   7   8
HETATM    8  C   UNL     1     -11.075  12.389  69.321  1.00  0.00    -0.209 C  
BRANCH   8   9
HETATM    9  C   UNL     1     -12.267  12.629  70.245  1.00  0.00    -0.347 C  
BRANCH   9  10
HETATM   10  C   UNL     1     -12.289  14.062  70.760  1.00  0.00    -0.443 C  
BRANCH  10  11
HETATM   11  C   UNL     1     -11.041  14.825  70.318  1.00  0.00    -0.185 C  
BRANCH  11  12
HETATM   12  C   UNL     1     -11.435  16.072  69.532  1.00  0.00    -0.326 C  
BRANCH  12  13
HETATM   13  C   UNL     1     -10.215  16.812  68.978  1.00  0.00    -0.310 C  
HETATM   14  C   UNL     1      -9.593  16.090  67.764  1.00  0.00    -0.219 C  
HETATM   15  C   UNL     1      -8.282  16.760  67.356  1.00  0.00    -0.195 A  
HETATM   16  C   UNL     1     -10.591  15.970  66.598  1.00  0.00    -0.297 C  
HETATM   17  C   UNL     1      -8.307  17.833  66.441  1.00  0.00    -0.281 A  
HETATM   18  C   UNL     1      -7.133  18.449  66.001  1.00  0.00    -0.307 A  
HETATM   19  C   UNL     1      -5.903  18.022  66.482  1.00  0.00    -0.199 A  
HETATM   20  C   UNL     1      -5.849  16.994  67.417  1.00  0.00    -0.175 A  
HETATM   21  C   UNL     1      -7.024  16.368  67.860  1.00  0.00    -0.139 A  
HETATM   22  I   UNL     1      -6.757  14.856  69.305  1.00  0.00    -0.177 I  
ENDBRANCH  12  13
ENDBRANCH  11  12
ENDBRANCH  10  11
ENDBRANCH   9  10
ENDBRANCH   8   9
ENDBRANCH   7   8
ENDBRANCH   6   7
ENDBRANCH   4   6
ENDBRANCH   3   4
ENDBRANCH   2   3
TORSDOF 10
ENDMDL
MODEL      219
REMARK 921   NORMALIZED FREE ENERGY PREDICTED BY IDOCK:   -3.43 KCAL/MOL
REMARK 922        TOTAL FREE ENERGY PREDICTED BY IDOCK:   -6.83 KCAL/MOL
REMARK 923 INTER-LIGAND FREE ENERGY PREDICTED BY IDOCK:   -4.92 KCAL/MOL
REMARK 924 INTRA-LIGAND FREE ENERGY PREDICTED BY IDOCK:   -1.92 KCAL/MOL
REMARK 927      BINDING AFFINITY PREDICTED BY RF-SCORE:    0.00 PKD
ROOT
HETATM    1  C   UNL     1     -10.474   7.054  73.790  1.00  0.00    -0.392 C  
HETATM    2  C   UNL     1      -9.308   7.858  73.245  1.00  0.00    -0.286 C  
ENDROOT
BRANCH   2   3
HETATM    3  O   UNL     1      -8.214   6.957  73.034  1.00  0.00    -0.107 OA 
BRANCH   3   4
HETATM    4  C   UNL     1      -8.277   6.254  71.868  1.00  0.00    -0.110 C  
HETATM    5  O   UNL     1      -8.342   5.037  71.780  1.00  0.00    -0.112 OA 
BRANCH   4   6
HETATM    6  C   UNL     1      -8.349   7.219  70.712  1.00  0.00    -0.124 C  
BRANCH   6   7
HETATM    7  C   UNL     1      -7.006   7.910  70.508  1.00  0.00    -0.045 C  
BRANCH   7   8
HETATM    8  C   UNL     1      -6.274   7.382  69.280  1.00  0.00    -0.031 C  
BRANCH   8   9
HETATM    9  C   UNL     1      -7.281   6.981  68.203  1.00  0.00    -0.091 C  
BRANCH   9  10
HETATM   10  C   UNL     1      -7.111   7.822  66.945  1.00  0.00    -0.081 C  
BRANCH  10  11
HETATM   11  C   UNL     1      -6.743   9.264  67.292  1.00  0.00    -0.069 C  
BRANCH  11  12
HETATM   12  C   UNL     1      -7.960  10.172  67.141  1.00  0.00    -0.109 C  
BRANCH  12  13
HETATM   13  C   UNL     1      -8.820  10.198  68.407  1.00  0.00    -0.123 C  
HETATM   14  C   UNL     1     -10.317   9.981  68.103  1.00  0.00    -0.228 C  
HETATM   15  C   UNL     1     -11.156  10.192  69.362  1.00  0.00    -0.288 A  
HETATM   16  C   UNL     1     -10.573   8.617  67.437  1.00  0.00    -0.298 C  
HETATM   17  C   UNL     1     -11.389   9.105  70.230  1.00  0.00    -0.217 A  
HETATM   18  C   UNL     1     -12.186   9.235  71.370  1.00  0.00    -0.426 A  
HETATM   19  C   UNL     1     -12.755  10.461  71.684  1.00  0.00    -0.560 A  
HETATM   20  C   UNL     1     -12.509  11.562  70.869  1.00  0.00    -0.464 A  
HETATM   21  C   UNL     1     -11.712  11.437  69.721  1.00  0.00    -0.344 A  
HETATM   22  I   UNL     1     -11.416  13.215  68.626  1.00  0.00    -0.412 I  
ENDBRANCH  12  13
ENDBRANCH  11  12
ENDBRANCH  10  11
ENDBRANCH   9  10
ENDBRANCH   8   9
ENDBRANCH   7   8
ENDBRANCH   6   7
ENDBRANCH   4   6
ENDBRANCH   3   4
ENDBRANCH   2   3
TORSDOF 10
ENDMDL
MODEL      220
REMARK 921   NORMALIZED FREE ENERGY PREDICTED BY IDOCK:   -3.43 KCAL/MOL
REMARK 922        TOTAL FREE ENERGY PREDICTED BY IDOCK:   -6.83 KCAL/MOL
REMARK 923 INTER-LIGAND FREE ENERGY PREDICTED BY IDOCK:   -7.01 KCAL/MOL
REMARK 924 INTRA-LIGAND FREE ENERGY PREDICTED BY IDOCK:    0.17 KCAL/MOL
REMARK 927      BINDING AFFINITY PREDICTED BY RF-SCORE:    0.00 PKD
ROOT
HETATM    1  C   UNL     1     -10.627  12.474  64.329  1.00  0.00    -0.395 C  
HETATM    2  C   UNL     1     -10.022  13.114  65.566  1.00  0.00    -0.207 C  
ENDROOT
BRANCH   2   3
HETATM    3  O   UNL     1      -9.643  14.453  65.224  1.00  0.00    -0.145 OA 
BRANCH   3   4
HETATM    4  C   UNL     1     -10.620  15.384  65.417  1.00  0.00    -0.410 C  
HETATM    5  O   UNL     1     -10.789  16.381  64.731  1.00  0.00    -0.697 OA 
BRANCH   4   6
HETATM    6  C   UNL     1     -11.512  14.939  66.546  1.00  0.00    -0.286 C  
BRANCH   6   7
HETATM    7  C   UNL     1     -11.503  15.966  67.672  1.00  0.00    -0.070 C  
BRANCH   7   8
HETATM    8  C   UNL     1     -10.265  15.836  68.553  1.00  0.00    -0.216 C  
BRANCH   8   9
HETATM    9  C   UNL     1     -10.627  15.140  69.863  1.00  0.00    -0.253 C  
BRANCH   9  10
HETATM   10  C   UNL     1     -12.135  14.996  70.016  1.00  0.00    -0.382 C  
BRANCH  10  11
HETATM   11  C   UNL     1     -12.524  13.548  70.311  1.00  0.00    -0.309 C  
BRANCH  11  12
HETATM   12  C   UNL     1     -11.837  12.606  69.328  1.00  0.00    -0.358 C  
BRANCH  12  13
HETATM   13  C   UNL     1     -12.132  11.136  69.637  1.00  0.00    -0.406 C  
HETATM   14  C   UNL     1     -11.918  10.796  71.128  1.00  0.00    -0.361 C  
HETATM   15  C   UNL     1     -12.048   9.292  71.359  1.00  0.00    -0.424 A  
HETATM   16  C   UNL     1     -12.844  11.622  72.039  1.00  0.00    -0.250 C  
HETATM   17  C   UNL     1     -13.317   8.738  71.629  1.00  0.00    -0.402 A  
HETATM   18  C   UNL     1     -13.482   7.377  71.892  1.00  0.00    -0.301 A  
HETATM   19  C   UNL     1     -12.384   6.527  71.871  1.00  0.00    -0.339 A  
HETATM   20  C   UNL     1     -11.126   7.037  71.566  1.00  0.00    -0.271 A  
HETATM   21  C   UNL     1     -10.953   8.404  71.305  1.00  0.00    -0.252 A  
HETATM   22  I   UNL     1      -8.986   8.994  70.825  1.00  0.00    -0.273 I  
ENDBRANCH  12  13
ENDBRANCH  11  12
ENDBRANCH  10  11
ENDBRANCH   9  10
ENDBRANCH   8   9
ENDBRANCH   7   8
ENDBRANCH   6   7
ENDBRANCH   4   6
ENDBRANCH   3   4
ENDBRANCH   2   3
TORSDOF 10
ENDMDL
MODEL      221
REMARK 921   NORMALIZED FREE ENERGY PREDICTED BY IDOCK:   -3.43 KCAL/MOL
REMARK 922        TOTAL FREE ENERGY PREDICTED BY IDOCK:   -6.83 KCAL/MOL
REMARK 923 INTER-LIGAND FREE ENERGY PREDICTED BY IDOCK:   -5.89 KCAL/MOL
REMARK 924 INTRA-LIGAND FREE ENERGY PREDICTED BY IDOCK:   -0.94 KCAL/MOL
REMARK 927      BINDING AFFINITY PREDICTED BY RF-SCORE:    0.00 PKD
ROOT
HETATM    1  C   UNL     1     -12.258  13.249  63.409  1.00  0.00    -0.476 C  
HETATM    2  C   UNL     1     -11.967  12.515  64.705  1.00  0.00    -0.404 C  
ENDROOT
BRANCH   2   3
HETATM    3  O   UNL     1     -11.224  11.333  64.381  1.00  0.00    -0.271 OA 
BRANCH   3   4
HETATM    4  C   UNL     1     -10.376  10.911  65.361  1.00  0.00    -0.261 C  
HETATM    5  O   UNL     1      -9.831   9.818  65.399  1.00  0.00    -0.306 OA 
BRANCH   4   6
HETATM    6  C   UNL     1     -10.146  12.038  66.335  1.00  0.00    -0.242 C  
BRANCH   6   7
HETATM    7  C   UNL     1      -9.908  11.491  67.738  1.00  0.00    -0.186 C  
BRANCH   7   8
HETATM    8  C   UNL     1     -10.664  12.286  68.795  1.00  0.00    -0.247 C  
BRANCH   8   9
HETATM    9  C   UNL     1     -11.971  11.577  69.147  1.00  0.00    -0.386 C  
BRANCH   9  10
HETATM   10  C   UNL     1     -11.711  10.273  69.889  1.00  0.00    -0.298 C  
BRANCH  10  11
HETATM   11  C   UNL     1     -12.431  10.254  71.238  1.00  0.00    -0.514 C  
BRANCH  11  12
HETATM   12  C   UNL     1     -12.134   8.953  71.977  1.00  0.00    -0.442 C  
BRANCH  12  13
HETATM   13  C   UNL     1     -10.767   8.376  71.601  1.00  0.00    -0.333 C  
HETATM   14  C   UNL     1     -10.837   6.868  71.279  1.00  0.00    -0.263 C  
HETATM   15  C   UNL     1      -9.434   6.296  71.085  1.00  0.00    -0.183 A  
HETATM   16  C   UNL     1     -11.769   6.581  70.088  1.00  0.00    -0.419 C  
HETATM   17  C   UNL     1      -8.842   6.329  69.805  1.00  0.00    -0.140 A  
HETATM   18  C   UNL     1      -7.581   5.779  69.566  1.00  0.00    -0.087 A  
HETATM   19  C   UNL     1      -6.867   5.198  70.606  1.00  0.00    -0.044 A  
HETATM   20  C   UNL     1      -7.408   5.188  71.888  1.00  0.00    -0.086 A  
HETATM   21  C   UNL     1      -8.675   5.735  72.134  1.00  0.00    -0.133 A  
HETATM   22  I   UNL     1      -9.319   5.666  74.141  1.00  0.00    -0.172 I  
ENDBRANCH  12  13
ENDBRANCH  11  12
ENDBRANCH  10  11
ENDBRANCH   9  10
ENDBRANCH   8   9
ENDBRANCH   7   8
ENDBRANCH   6   7
ENDBRANCH   4   6
ENDBRANCH   3   4
ENDBRANCH   2   3
TORSDOF 10
ENDMDL
MODEL      222
REMARK 921   NORMALIZED FREE ENERGY PREDICTED BY IDOCK:   -3.41 KCAL/MOL
REMARK 922        TOTAL FREE ENERGY PREDICTED BY IDOCK:   -6.80 KCAL/MOL
REMARK 923 INTER-LIGAND FREE ENERGY PREDICTED BY IDOCK:   -6.27 KCAL/MOL
REMARK 924 INTRA-LIGAND FREE ENERGY PREDICTED BY IDOCK:   -0.52 KCAL/MOL
REMARK 927      BINDING AFFINITY PREDICTED BY RF-SCORE:    0.00 PKD
ROOT
HETATM    1  C   UNL     1      -8.236  20.548  67.239  1.00  0.00    -0.360 C  
HETATM    2  C   UNL     1      -8.486  19.292  68.054  1.00  0.00    -0.317 C  
ENDROOT
BRANCH   2   3
HETATM    3  O   UNL     1      -9.493  18.527  67.380  1.00  0.00    -0.279 OA 
BRANCH   3   4
HETATM    4  C   UNL     1      -9.032  17.399  66.769  1.00  0.00    -0.254 C  
HETATM    5  O   UNL     1      -8.229  17.374  65.848  1.00  0.00    -0.537 OA 
BRANCH   4   6
HETATM    6  C   UNL     1      -9.595  16.191  67.471  1.00  0.00    -0.229 C  
BRANCH   6   7
HETATM    7  C   UNL     1     -10.883  16.550  68.203  1.00  0.00    -0.345 C  
BRANCH   7   8
HETATM    8  C   UNL     1     -11.722  15.317  68.518  1.00  0.00    -0.352 C  
BRANCH   8   9
HETATM    9  C   UNL     1     -10.960  14.052  68.130  1.00  0.00    -0.268 C  
BRANCH   9  10
HETATM   10  C   UNL     1     -11.910  12.892  67.862  1.00  0.00    -0.388 C  
BRANCH  10  11
HETATM   11  C   UNL     1     -11.865  11.869  68.997  1.00  0.00    -0.368 C  
BRANCH  11  12
HETATM   12  C   UNL     1     -10.661  10.948  68.831  1.00  0.00    -0.241 C  
BRANCH  12  13
HETATM   13  C   UNL     1     -10.825   9.640  69.607  1.00  0.00    -0.266 C  
HETATM   14  C   UNL     1      -9.548   8.773  69.573  1.00  0.00    -0.167 C  
HETATM   15  C   UNL     1      -9.811   7.406  70.202  1.00  0.00    -0.180 A  
HETATM   16  C   UNL     1      -8.348   9.501  70.204  1.00  0.00    -0.212 C  
HETATM   17  C   UNL     1      -9.637   7.237  71.592  1.00  0.00    -0.162 A  
HETATM   18  C   UNL     1      -9.820   5.998  72.209  1.00  0.00    -0.178 A  
HETATM   19  C   UNL     1     -10.203   4.897  71.455  1.00  0.00    -0.264 A  
HETATM   20  C   UNL     1     -10.423   5.042  70.089  1.00  0.00    -0.235 A  
HETATM   21  C   UNL     1     -10.237   6.283  69.463  1.00  0.00    -0.194 A  
HETATM   22  I   UNL     1     -10.651   6.328  67.396  1.00  0.00    -0.480 I  
ENDBRANCH  12  13
ENDBRANCH  11  12
ENDBRANCH  10  11
ENDBRANCH   9  10
ENDBRANCH   8   9
ENDBRANCH   7   8
ENDBRANCH   6   7
ENDBRANCH   4   6
ENDBRANCH   3   4
ENDBRANCH   2   3
TORSDOF 10
ENDMDL
MODEL      223
REMARK 921   NORMALIZED FREE ENERGY PREDICTED BY IDOCK:   -3.40 KCAL/MOL
REMARK 922        TOTAL FREE ENERGY PREDICTED BY IDOCK:   -6.79 KCAL/MOL
REMARK 923 INTER-LIGAND FREE ENERGY PREDICTED BY IDOCK:   -5.23 KCAL/MOL
REMARK 924 INTRA-LIGAND FREE ENERGY PREDICTED BY IDOCK:   -1.56 KCAL/MOL
REMARK 927      BINDING AFFINITY PREDICTED BY RF-SCORE:    0.00 PKD
ROOT
HETATM    1  C   UNL     1      -9.666   3.185  71.230  1.00  0.00    -0.215 C  
HETATM    2  C   UNL     1      -9.414   4.534  71.878  1.00  0.00    -0.146 C  
ENDROOT
BRANCH   2   3
HETATM    3  O   UNL     1     -10.558   4.855  72.680  1.00  0.00    -0.202 OA 
BRANCH   3   4
HETATM    4  C   UNL     1     -10.631   6.161  73.062  1.00  0.00    -0.241 C  
HETATM    5  O   UNL     1     -10.541   6.565  74.212  1.00  0.00    -0.269 OA 
BRANCH   4   6
HETATM    6  C   UNL     1     -10.746   7.031  71.837  1.00  0.00    -0.244 C  
BRANCH   6   7
HETATM    7  C   UNL     1     -12.091   6.817  71.154  1.00  0.00    -0.422 C  
BRANCH   7   8
HETATM    8  C   UNL     1     -13.184   7.691  71.758  1.00  0.00    -0.360 C  
BRANCH   8   9
HETATM    9  C   UNL     1     -12.660   9.109  71.973  1.00  0.00    -0.463 C  
BRANCH   9  10
HETATM   10  C   UNL     1     -13.145  10.051  70.879  1.00  0.00    -0.381 C  
BRANCH  10  11
HETATM   11  C   UNL     1     -12.176  11.216  70.684  1.00  0.00    -0.492 C  
BRANCH  11  12
HETATM   12  C   UNL     1     -11.281  10.962  69.475  1.00  0.00    -0.340 C  
BRANCH  12  13
HETATM   13  C   UNL     1     -10.217   9.899  69.759  1.00  0.00    -0.278 C  
HETATM   14  C   UNL     1      -9.345   9.597  68.522  1.00  0.00    -0.138 C  
HETATM   15  C   UNL     1      -8.421   8.411  68.794  1.00  0.00    -0.124 A  
HETATM   16  C   UNL     1      -8.586  10.847  68.040  1.00  0.00    -0.131 C  
HETATM   17  C   UNL     1      -7.154   8.637  69.372  1.00  0.00    -0.053 A  
HETATM   18  C   UNL     1      -6.255   7.593  69.599  1.00  0.00    -0.031 A  
HETATM   19  C   UNL     1      -6.606   6.290  69.272  1.00  0.00    -0.044 A  
HETATM   20  C   UNL     1      -7.865   6.031  68.739  1.00  0.00    -0.100 A  
HETATM   21  C   UNL     1      -8.771   7.076  68.505  1.00  0.00    -0.122 A  
HETATM   22  I   UNL     1     -10.643   6.495  67.728  1.00  0.00    -0.436 I  
ENDBRANCH  12  13
ENDBRANCH  11  12
ENDBRANCH  10  11
ENDBRANCH   9  10
ENDBRANCH   8   9
ENDBRANCH   7   8
ENDBRANCH   6   7
ENDBRANCH   4   6
ENDBRANCH   3   4
ENDBRANCH   2   3
TORSDOF 10
ENDMDL
MODEL      224
REMARK 921   NORMALIZED FREE ENERGY PREDICTED BY IDOCK:   -3.40 KCAL/MOL
REMARK 922        TOTAL FREE ENERGY PREDICTED BY IDOCK:   -6.78 KCAL/MOL
REMARK 923 INTER-LIGAND FREE ENERGY PREDICTED BY IDOCK:   -5.91 KCAL/MOL
REMARK 924 INTRA-LIGAND FREE ENERGY PREDICTED BY IDOCK:   -0.87 KCAL/MOL
REMARK 927      BINDING AFFINITY PREDICTED BY RF-SCORE:    0.00 PKD
ROOT
HETATM    1  C   UNL     1      -8.356   8.677  64.981  1.00  0.00    -0.181 C  
HETATM    2  C   UNL     1      -7.893   7.243  65.166  1.00  0.00    -0.123 C  
ENDROOT
BRANCH   2   3
HETATM    3  O   UNL     1      -7.695   7.025  66.568  1.00  0.00    -0.099 OA 
BRANCH   3   4
HETATM    4  C   UNL     1      -8.786   6.539  67.225  1.00  0.00    -0.110 C  
HETATM    5  O   UNL     1      -9.629   5.798  66.740  1.00  0.00    -0.135 OA 
BRANCH   4   6
HETATM    6  C   UNL     1      -8.735   6.981  68.664  1.00  0.00    -0.123 C  
BRANCH   6   7
HETATM    7  C   UNL     1      -9.487   8.294  68.847  1.00  0.00    -0.151 C  
BRANCH   7   8
HETATM    8  C   UNL     1     -10.640   8.158  69.835  1.00  0.00    -0.239 C  
BRANCH   8   9
HETATM    9  C   UNL     1     -10.603   9.305  70.843  1.00  0.00    -0.366 C  
BRANCH   9  10
HETATM   10  C   UNL     1     -12.006   9.780  71.193  1.00  0.00    -0.463 C  
BRANCH  10  11
HETATM   11  C   UNL     1     -12.195  11.253  70.833  1.00  0.00    -0.460 C  
BRANCH  11  12
HETATM   12  C   UNL     1     -12.385  11.410  69.328  1.00  0.00    -0.148 C  
BRANCH  12  13
HETATM   13  C   UNL     1     -11.323  12.319  68.705  1.00  0.00    -0.337 C  
HETATM   14  C   UNL     1     -11.881  13.712  68.346  1.00  0.00    -0.407 C  
HETATM   15  C   UNL     1     -10.845  14.521  67.568  1.00  0.00    -0.289 A  
HETATM   16  C   UNL     1     -12.407  14.453  69.589  1.00  0.00    -0.300 C  
HETATM   17  C   UNL     1      -9.908  15.308  68.271  1.00  0.00    -0.218 A  
HETATM   18  C   UNL     1      -8.970  16.100  67.607  1.00  0.00    -0.194 A  
HETATM   19  C   UNL     1      -8.929  16.112  66.219  1.00  0.00    -0.379 A  
HETATM   20  C   UNL     1      -9.813  15.314  65.498  1.00  0.00    -0.362 A  
HETATM   21  C   UNL     1     -10.760  14.519  66.160  1.00  0.00    -0.310 A  
HETATM   22  I   UNL     1     -11.992  13.348  64.912  1.00  0.00    -0.518 I  
ENDBRANCH  12  13
ENDBRANCH  11  12
ENDBRANCH  10  11
ENDBRANCH   9  10
ENDBRANCH   8   9
ENDBRANCH   7   8
ENDBRANCH   6   7
ENDBRANCH   4   6
ENDBRANCH   3   4
ENDBRANCH   2   3
TORSDOF 10
ENDMDL
MODEL      225
REMARK 921   NORMALIZED FREE ENERGY PREDICTED BY IDOCK:   -3.40 KCAL/MOL
REMARK 922        TOTAL FREE ENERGY PREDICTED BY IDOCK:   -6.78 KCAL/MOL
REMARK 923 INTER-LIGAND FREE ENERGY PREDICTED BY IDOCK:   -6.44 KCAL/MOL
REMARK 924 INTRA-LIGAND FREE ENERGY PREDICTED BY IDOCK:   -0.34 KCAL/MOL
REMARK 927      BINDING AFFINITY PREDICTED BY RF-SCORE:    0.00 PKD
ROOT
HETATM    1  C   UNL     1      -7.236  13.684  67.400  1.00  0.00    -0.108 C  
HETATM    2  C   UNL     1      -7.937  15.016  67.212  1.00  0.00    -0.206 C  
ENDROOT
BRANCH   2   3
HETATM    3  O   UNL     1      -9.049  14.806  66.332  1.00  0.00    -0.271 OA 
BRANCH   3   4
HETATM    4  C   UNL     1      -9.877  15.880  66.201  1.00  0.00    -0.317 C  
HETATM    5  O   UNL     1     -10.444  16.212  65.169  1.00  0.00    -0.560 OA 
BRANCH   4   6
HETATM    6  C   UNL     1     -10.058  16.534  67.546  1.00  0.00    -0.267 C  
BRANCH   6   7
HETATM    7  C   UNL     1     -11.333  16.034  68.215  1.00  0.00    -0.326 C  
BRANCH   7   8
HETATM    8  C   UNL     1     -11.571  14.551  67.954  1.00  0.00    -0.371 C  
BRANCH   8   9
HETATM    9  C   UNL     1     -11.965  13.848  69.252  1.00  0.00    -0.402 C  
BRANCH   9  10
HETATM   10  C   UNL     1     -11.435  12.421  69.291  1.00  0.00    -0.349 C  
BRANCH  10  11
HETATM   11  C   UNL     1     -12.492  11.455  69.824  1.00  0.00    -0.161 C  
BRANCH  11  12
HETATM   12  C   UNL     1     -11.956  10.700  71.037  1.00  0.00    -0.442 C  
BRANCH  12  13
HETATM   13  C   UNL     1     -11.224   9.416  70.639  1.00  0.00    -0.345 C  
HETATM   14  C   UNL     1     -11.574   8.231  71.564  1.00  0.00    -0.326 C  
HETATM   15  C   UNL     1     -10.692   7.025  71.246  1.00  0.00    -0.243 A  
HETATM   16  C   UNL     1     -13.076   7.900  71.524  1.00  0.00    -0.343 C  
HETATM   17  C   UNL     1     -11.105   6.105  70.259  1.00  0.00    -0.436 A  
HETATM   18  C   UNL     1     -10.359   4.963  69.963  1.00  0.00    -0.242 A  
HETATM   19  C   UNL     1      -9.167   4.719  70.632  1.00  0.00    -0.191 A  
HETATM   20  C   UNL     1      -8.713   5.630  71.581  1.00  0.00    -0.136 A  
HETATM   21  C   UNL     1      -9.460   6.777  71.885  1.00  0.00    -0.145 A  
HETATM   22  I   UNL     1      -8.603   8.063  73.320  1.00  0.00    -0.253 I  
ENDBRANCH  12  13
ENDBRANCH  11  12
ENDBRANCH  10  11
ENDBRANCH   9  10
ENDBRANCH   8   9
ENDBRANCH   7   8
ENDBRANCH   6   7
ENDBRANCH   4   6
ENDBRANCH   3   4
ENDBRANCH   2   3
TORSDOF 10
ENDMDL
MODEL      226
REMARK 921   NORMALIZED FREE ENERGY PREDICTED BY IDOCK:   -3.40 KCAL/MOL
REMARK 922        TOTAL FREE ENERGY PREDICTED BY IDOCK:   -6.78 KCAL/MOL
REMARK 923 INTER-LIGAND FREE ENERGY PREDICTED BY IDOCK:   -6.19 KCAL/MOL
REMARK 924 INTRA-LIGAND FREE ENERGY PREDICTED BY IDOCK:   -0.59 KCAL/MOL
REMARK 927      BINDING AFFINITY PREDICTED BY RF-SCORE:    0.00 PKD
ROOT
HETATM    1  C   UNL     1      -7.951   5.790  72.300  1.00  0.00    -0.107 C  
HETATM    2  C   UNL     1      -9.195   5.313  71.572  1.00  0.00    -0.146 C  
ENDROOT
BRANCH   2   3
HETATM    3  O   UNL     1     -10.312   5.490  72.453  1.00  0.00    -0.193 OA 
BRANCH   3   4
HETATM    4  C   UNL     1     -10.611   6.790  72.733  1.00  0.00    -0.235 C  
HETATM    5  O   UNL     1     -10.550   7.305  73.840  1.00  0.00    -0.344 OA 
BRANCH   4   6
HETATM    6  C   UNL     1     -10.934   7.511  71.450  1.00  0.00    -0.254 C  
BRANCH   6   7
HETATM    7  C   UNL     1     -12.343   7.164  70.982  1.00  0.00    -0.376 C  
BRANCH   7   8
HETATM    8  C   UNL     1     -13.371   8.178  71.470  1.00  0.00    -0.313 C  
BRANCH   8   9
HETATM    9  C   UNL     1     -12.672   9.464  71.907  1.00  0.00    -0.484 C  
BRANCH   9  10
HETATM   10  C   UNL     1     -12.923  10.594  70.917  1.00  0.00    -0.429 C  
BRANCH  10  11
HETATM   11  C   UNL     1     -11.610  11.137  70.357  1.00  0.00    -0.355 C  
BRANCH  11  12
HETATM   12  C   UNL     1     -11.847  11.806  69.007  1.00  0.00    -0.379 C  
BRANCH  12  13
HETATM   13  C   UNL     1     -11.328  13.246  68.978  1.00  0.00    -0.334 C  
HETATM   14  C   UNL     1     -10.773  13.641  67.594  1.00  0.00    -0.253 C  
HETATM   15  C   UNL     1     -10.106  15.014  67.656  1.00  0.00    -0.231 A  
HETATM   16  C   UNL     1     -11.852  13.551  66.499  1.00  0.00    -0.441 C  
HETATM   17  C   UNL     1     -10.882  16.173  67.444  1.00  0.00    -0.265 A  
HETATM   18  C   UNL     1     -10.311  17.448  67.445  1.00  0.00    -0.343 A  
HETATM   19  C   UNL     1      -8.952  17.600  67.680  1.00  0.00    -0.240 A  
HETATM   20  C   UNL     1      -8.168  16.479  67.933  1.00  0.00    -0.172 A  
HETATM   21  C   UNL     1      -8.734  15.196  67.929  1.00  0.00    -0.157 A  
HETATM   22  I   UNL     1      -7.406  13.618  68.369  1.00  0.00    -0.142 I  
ENDBRANCH  12  13
ENDBRANCH  11  12
ENDBRANCH  10  11
ENDBRANCH   9  10
ENDBRANCH   8   9
ENDBRANCH   7   8
ENDBRANCH   6   7
ENDBRANCH   4   6
ENDBRANCH   3   4
ENDBRANCH   2   3
TORSDOF 10
ENDMDL
MODEL      227
REMARK 921   NORMALIZED FREE ENERGY PREDICTED BY IDOCK:   -3.40 KCAL/MOL
REMARK 922        TOTAL FREE ENERGY PREDICTED BY IDOCK:   -6.78 KCAL/MOL
REMARK 923 INTER-LIGAND FREE ENERGY PREDICTED BY IDOCK:   -5.83 KCAL/MOL
REMARK 924 INTRA-LIGAND FREE ENERGY PREDICTED BY IDOCK:   -0.95 KCAL/MOL
REMARK 927      BINDING AFFINITY PREDICTED BY RF-SCORE:    0.00 PKD
ROOT
HETATM    1  C   UNL     1     -13.069  14.112  71.982  1.00  0.00    -0.472 C  
HETATM    2  C   UNL     1     -12.657  15.497  71.517  1.00  0.00    -0.418 C  
ENDROOT
BRANCH   2   3
HETATM    3  O   UNL     1     -11.395  15.377  70.848  1.00  0.00    -0.305 OA 
BRANCH   3   4
HETATM    4  C   UNL     1     -11.393  15.825  69.560  1.00  0.00    -0.328 C  
HETATM    5  O   UNL     1     -10.888  16.871  69.179  1.00  0.00    -0.312 OA 
BRANCH   4   6
HETATM    6  C   UNL     1     -12.025  14.785  68.672  1.00  0.00    -0.292 C  
BRANCH   6   7
HETATM    7  C   UNL     1     -11.613  15.000  67.220  1.00  0.00    -0.285 C  
BRANCH   7   8
HETATM    8  C   UNL     1     -12.619  14.396  66.247  1.00  0.00    -0.116 C  
BRANCH   8   9
HETATM    9  C   UNL     1     -11.896  13.865  65.010  1.00  0.00    -0.383 C  
BRANCH   9  10
HETATM   10  C   UNL     1     -12.438  12.505  64.594  1.00  0.00    -0.539 C  
BRANCH  10  11
HETATM   11  C   UNL     1     -11.325  11.458  64.550  1.00  0.00    -0.184 C  
BRANCH  11  12
HETATM   12  C   UNL     1      -9.964  12.126  64.725  1.00  0.00    -0.224 C  
BRANCH  12  13
HETATM   13  C   UNL     1      -9.277  11.700  66.024  1.00  0.00    -0.218 C  
HETATM   14  C   UNL     1      -9.643  10.258  66.436  1.00  0.00    -0.233 C  
HETATM   15  C   UNL     1      -9.083   9.937  67.821  1.00  0.00    -0.138 A  
HETATM   16  C   UNL     1      -9.218   9.234  65.369  1.00  0.00    -0.284 C  
HETATM   17  C   UNL     1      -7.778   9.416  67.938  1.00  0.00    -0.088 A  
HETATM   18  C   UNL     1      -7.237   9.065  69.176  1.00  0.00    -0.067 A  
HETATM   19  C   UNL     1      -7.980   9.244  70.335  1.00  0.00    -0.171 A  
HETATM   20  C   UNL     1      -9.255   9.795  70.256  1.00  0.00    -0.225 A  
HETATM   21  C   UNL     1      -9.805  10.147  69.014  1.00  0.00    -0.205 A  
HETATM   22  I   UNL     1     -11.732  11.001  69.086  1.00  0.00    -0.342 I  
ENDBRANCH  12  13
ENDBRANCH  11  12
ENDBRANCH  10  11
ENDBRANCH   9  10
ENDBRANCH   8   9
ENDBRANCH   7   8
ENDBRANCH   6   7
ENDBRANCH   4   6
ENDBRANCH   3   4
ENDBRANCH   2   3
TORSDOF 10
ENDMDL
MODEL      228
REMARK 921   NORMALIZED FREE ENERGY PREDICTED BY IDOCK:   -3.39 KCAL/MOL
REMARK 922        TOTAL FREE ENERGY PREDICTED BY IDOCK:   -6.78 KCAL/MOL
REMARK 923 INTER-LIGAND FREE ENERGY PREDICTED BY IDOCK:   -5.97 KCAL/MOL
REMARK 924 INTRA-LIGAND FREE ENERGY PREDICTED BY IDOCK:   -0.80 KCAL/MOL
REMARK 927      BINDING AFFINITY PREDICTED BY RF-SCORE:    0.00 PKD
ROOT
HETATM    1  C   UNL     1      -7.777   4.251  65.227  1.00  0.00    -0.085 C  
HETATM    2  C   UNL     1      -8.869   4.104  66.271  1.00  0.00    -0.118 C  
ENDROOT
BRANCH   2   3
HETATM    3  O   UNL     1      -8.312   4.470  67.540  1.00  0.00    -0.100 OA 
BRANCH   3   4
HETATM    4  C   UNL     1      -8.164   3.433  68.412  1.00  0.00    -0.073 C  
HETATM    5  O   UNL     1      -8.500   2.277  68.198  1.00  0.00    -0.065 OA 
BRANCH   4   6
HETATM    6  C   UNL     1      -7.435   3.918  69.639  1.00  0.00    -0.052 C  
BRANCH   6   7
HETATM    7  C   UNL     1      -8.190   3.518  70.902  1.00  0.00    -0.080 C  
BRANCH   7   8
HETATM    8  C   UNL     1      -8.684   4.731  71.679  1.00  0.00    -0.134 C  
BRANCH   8   9
HETATM    9  C   UNL     1     -10.195   4.883  71.508  1.00  0.00    -0.264 C  
BRANCH   9  10
HETATM   10  C   UNL     1     -10.533   6.016  70.549  1.00  0.00    -0.303 C  
BRANCH  10  11
HETATM   11  C   UNL     1     -11.844   6.695  70.939  1.00  0.00    -0.434 C  
BRANCH  11  12
HETATM   12  C   UNL     1     -11.701   7.384  72.292  1.00  0.00    -0.326 C  
BRANCH  12  13
HETATM   13  C   UNL     1     -11.632   8.907  72.159  1.00  0.00    -0.400 C  
HETATM   14  C   UNL     1     -12.731   9.465  71.231  1.00  0.00    -0.391 C  
HETATM   15  C   UNL     1     -12.518  10.957  70.984  1.00  0.00    -0.514 A  
HETATM   16  C   UNL     1     -14.141   9.143  71.759  1.00  0.00    -0.313 C  
HETATM   17  C   UNL     1     -13.083  11.896  71.873  1.00  0.00    -0.474 A  
HETATM   18  C   UNL     1     -12.956  13.271  71.666  1.00  0.00    -0.441 A  
HETATM   19  C   UNL     1     -12.241  13.746  70.575  1.00  0.00    -0.440 A  
HETATM   20  C   UNL     1     -11.636  12.845  69.704  1.00  0.00    -0.318 A  
HETATM   21  C   UNL     1     -11.764  11.462  69.904  1.00  0.00    -0.346 A  
HETATM   22  I   UNL     1     -10.752  10.247  68.509  1.00  0.00    -0.303 I  
ENDBRANCH  12  13
ENDBRANCH  11  12
ENDBRANCH  10  11
ENDBRANCH   9  10
ENDBRANCH   8   9
ENDBRANCH   7   8
ENDBRANCH   6   7
ENDBRANCH   4   6
ENDBRANCH   3   4
ENDBRANCH   2   3
TORSDOF 10
ENDMDL
MODEL      229
REMARK 921   NORMALIZED FREE ENERGY PREDICTED BY IDOCK:   -3.39 KCAL/MOL
REMARK 922        TOTAL FREE ENERGY PREDICTED BY IDOCK:   -6.78 KCAL/MOL
REMARK 923 INTER-LIGAND FREE ENERGY PREDICTED BY IDOCK:   -5.91 KCAL/MOL
REMARK 924 INTRA-LIGAND FREE ENERGY PREDICTED BY IDOCK:   -0.87 KCAL/MOL
REMARK 927      BINDING AFFINITY PREDICTED BY RF-SCORE:    0.00 PKD
ROOT
HETATM    1  C   UNL     1     -10.930   4.814  73.522  1.00  0.00    -0.398 C  
HETATM    2  C   UNL     1     -10.828   5.543  72.195  1.00  0.00    -0.235 C  
ENDROOT
BRANCH   2   3
HETATM    3  O   UNL     1     -11.809   6.589  72.194  1.00  0.00    -0.305 OA 
BRANCH   3   4
HETATM    4  C   UNL     1     -11.319   7.823  72.500  1.00  0.00    -0.374 C  
HETATM    5  O   UNL     1     -10.141   8.088  72.687  1.00  0.00    -0.249 OA 
BRANCH   4   6
HETATM    6  C   UNL     1     -12.447   8.823  72.477  1.00  0.00    -0.368 C  
BRANCH   6   7
HETATM    7  C   UNL     1     -12.600   9.424  71.085  1.00  0.00    -0.357 C  
BRANCH   7   8
HETATM    8  C   UNL     1     -12.183  10.889  71.047  1.00  0.00    -0.464 C  
BRANCH   8   9
HETATM    9  C   UNL     1     -12.482  11.483  69.672  1.00  0.00    -0.089 C  
BRANCH   9  10
HETATM   10  C   UNL     1     -11.442  11.054  68.646  1.00  0.00    -0.375 C  
BRANCH  10  11
HETATM   11  C   UNL     1     -11.722  11.683  67.282  1.00  0.00    -0.255 C  
BRANCH  11  12
HETATM   12  C   UNL     1     -11.855  13.197  67.415  1.00  0.00    -0.412 C  
BRANCH  12  13
HETATM   13  C   UNL     1     -10.497  13.883  67.576  1.00  0.00    -0.248 C  
HETATM   14  C   UNL     1     -10.558  15.087  68.540  1.00  0.00    -0.235 C  
HETATM   15  C   UNL     1      -9.234  15.847  68.533  1.00  0.00    -0.200 A  
HETATM   16  C   UNL     1     -10.997  14.664  69.953  1.00  0.00    -0.194 C  
HETATM   17  C   UNL     1      -8.206  15.458  69.418  1.00  0.00    -0.250 A  
HETATM   18  C   UNL     1      -6.994  16.148  69.483  1.00  0.00    -0.186 A  
HETATM   19  C   UNL     1      -6.768  17.236  68.649  1.00  0.00    -0.192 A  
HETATM   20  C   UNL     1      -7.747  17.618  67.737  1.00  0.00    -0.210 A  
HETATM   21  C   UNL     1      -8.968  16.930  67.670  1.00  0.00    -0.219 A  
HETATM   22  I   UNL     1     -10.318  17.622  66.205  1.00  0.00    -0.093 I  
ENDBRANCH  12  13
ENDBRANCH  11  12
ENDBRANCH  10  11
ENDBRANCH   9  10
ENDBRANCH   8   9
ENDBRANCH   7   8
ENDBRANCH   6   7
ENDBRANCH   4   6
ENDBRANCH   3   4
ENDBRANCH   2   3
TORSDOF 10
ENDMDL
MODEL      230
REMARK 921   NORMALIZED FREE ENERGY PREDICTED BY IDOCK:   -3.38 KCAL/MOL
REMARK 922        TOTAL FREE ENERGY PREDICTED BY IDOCK:   -6.75 KCAL/MOL
REMARK 923 INTER-LIGAND FREE ENERGY PREDICTED BY IDOCK:   -5.45 KCAL/MOL
REMARK 924 INTRA-LIGAND FREE ENERGY PREDICTED BY IDOCK:   -1.29 KCAL/MOL
REMARK 927      BINDING AFFINITY PREDICTED BY RF-SCORE:    0.00 PKD
ROOT
HETATM    1  C   UNL     1     -13.534  13.945  72.522  1.00  0.00    -0.676 C  
HETATM    2  C   UNL     1     -12.668  13.086  71.619  1.00  0.00    -0.207 C  
ENDROOT
BRANCH   2   3
HETATM    3  O   UNL     1     -13.196  11.754  71.643  1.00  0.00    -0.411 OA 
BRANCH   3   4
HETATM    4  C   UNL     1     -12.432  10.831  70.994  1.00  0.00    -0.420 C  
HETATM    5  O   UNL     1     -11.456  11.083  70.303  1.00  0.00    -0.301 OA 
BRANCH   4   6
HETATM    6  C   UNL     1     -12.923   9.449  71.342  1.00  0.00    -0.421 C  
BRANCH   6   7
HETATM    7  C   UNL     1     -12.203   8.922  72.578  1.00  0.00    -0.299 C  
BRANCH   7   8
HETATM    8  C   UNL     1     -11.247   7.784  72.238  1.00  0.00    -0.365 C  
BRANCH   8   9
HETATM    9  C   UNL     1      -9.882   8.041  72.874  1.00  0.00    -0.357 C  
BRANCH   9  10
HETATM   10  C   UNL     1      -8.764   7.402  72.061  1.00  0.00    -0.125 C  
BRANCH  10  11
HETATM   11  C   UNL     1      -8.120   8.416  71.117  1.00  0.00    -0.144 C  
BRANCH  11  12
HETATM   12  C   UNL     1      -8.172   7.908  69.680  1.00  0.00    -0.122 C  
BRANCH  12  13
HETATM   13  C   UNL     1      -8.685   8.974  68.710  1.00  0.00    -0.136 C  
HETATM   14  C   UNL     1      -9.734   8.414  67.725  1.00  0.00    -0.199 C  
HETATM   15  C   UNL     1     -10.085   9.458  66.666  1.00  0.00    -0.332 A  
HETATM   16  C   UNL     1     -10.971   7.868  68.458  1.00  0.00     0.152 C  
HETATM   17  C   UNL     1     -11.122  10.381  66.919  1.00  0.00    -0.083 A  
HETATM   18  C   UNL     1     -11.512  11.325  65.966  1.00  0.00     0.127 A  
HETATM   19  C   UNL     1     -10.861  11.386  64.741  1.00  0.00    -0.339 A  
HETATM   20  C   UNL     1      -9.807  10.516  64.479  1.00  0.00    -0.401 A  
HETATM   21  C   UNL     1      -9.413   9.563  65.430  1.00  0.00    -0.269 A  
HETATM   22  I   UNL     1      -7.776   8.354  64.878  1.00  0.00    -0.126 I  
ENDBRANCH  12  13
ENDBRANCH  11  12
ENDBRANCH  10  11
ENDBRANCH   9  10
ENDBRANCH   8   9
ENDBRANCH   7   8
ENDBRANCH   6   7
ENDBRANCH   4   6
ENDBRANCH   3   4
ENDBRANCH   2   3
TORSDOF 10
ENDMDL
MODEL      231
REMARK 921   NORMALIZED FREE ENERGY PREDICTED BY IDOCK:   -3.37 KCAL/MOL
REMARK 922        TOTAL FREE ENERGY PREDICTED BY IDOCK:   -6.74 KCAL/MOL
REMARK 923 INTER-LIGAND FREE ENERGY PREDICTED BY IDOCK:   -5.40 KCAL/MOL
REMARK 924 INTRA-LIGAND FREE ENERGY PREDICTED BY IDOCK:   -1.34 KCAL/MOL
REMARK 927      BINDING AFFINITY PREDICTED BY RF-SCORE:    0.00 PKD
ROOT
HETATM    1  C   UNL     1      -8.936  10.672  63.660  1.00  0.00    -0.211 C  
HETATM    2  C   UNL     1     -10.102  10.099  64.445  1.00  0.00    -0.027 C  
ENDROOT
BRANCH   2   3
HETATM    3  O   UNL     1     -10.646  11.150  65.252  1.00  0.00    -0.273 OA 
BRANCH   3   4
HETATM    4  C   UNL     1     -10.029  11.316  66.456  1.00  0.00    -0.212 C  
HETATM    5  O   UNL     1      -9.808  10.425  67.264  1.00  0.00    -0.169 OA 
BRANCH   4   6
HETATM    6  C   UNL     1      -9.578  12.747  66.589  1.00  0.00    -0.255 C  
BRANCH   6   7
HETATM    7  C   UNL     1     -10.753  13.698  66.393  1.00  0.00    -0.281 C  
BRANCH   7   8
HETATM    8  C   UNL     1     -11.687  13.707  67.597  1.00  0.00    -0.398 C  
BRANCH   8   9
HETATM    9  C   UNL     1     -11.904  15.140  68.080  1.00  0.00    -0.252 C  
BRANCH   9  10
HETATM   10  C   UNL     1     -11.456  15.311  69.525  1.00  0.00    -0.318 C  
BRANCH  10  11
HETATM   11  C   UNL     1     -10.249  16.244  69.621  1.00  0.00    -0.216 C  
BRANCH  11  12
HETATM   12  C   UNL     1      -8.988  15.527  69.148  1.00  0.00    -0.256 C  
BRANCH  12  13
HETATM   13  C   UNL     1      -8.320  16.250  67.976  1.00  0.00    -0.165 C  
HETATM   14  C   UNL     1      -7.685  17.592  68.400  1.00  0.00    -0.260 C  
HETATM   15  C   UNL     1      -7.190  18.361  67.177  1.00  0.00    -0.217 A  
HETATM   16  C   UNL     1      -6.590  17.394  69.464  1.00  0.00    -0.172 C  
HETATM   17  C   UNL     1      -5.883  18.133  66.696  1.00  0.00    -0.183 A  
HETATM   18  C   UNL     1      -5.367  18.843  65.610  1.00  0.00    -0.189 A  
HETATM   19  C   UNL     1      -6.152  19.786  64.960  1.00  0.00    -0.286 A  
HETATM   20  C   UNL     1      -7.460  20.002  65.385  1.00  0.00    -0.114 A  
HETATM   21  C   UNL     1      -7.982  19.295  66.478  1.00  0.00    -0.294 A  
HETATM   22  I   UNL     1      -9.990  19.724  66.959  1.00  0.00    -0.652 I  
ENDBRANCH  12  13
ENDBRANCH  11  12
ENDBRANCH  10  11
ENDBRANCH   9  10
ENDBRANCH   8   9
ENDBRANCH   7   8
ENDBRANCH   6   7
ENDBRANCH   4   6
ENDBRANCH   3   4
ENDBRANCH   2   3
TORSDOF 10
ENDMDL
MODEL      232
REMARK 921   NORMALIZED FREE ENERGY PREDICTED BY IDOCK:   -3.36 KCAL/MOL
REMARK 922        TOTAL FREE ENERGY PREDICTED BY IDOCK:   -6.72 KCAL/MOL
REMARK 923 INTER-LIGAND FREE ENERGY PREDICTED BY IDOCK:   -6.04 KCAL/MOL
REMARK 924 INTRA-LIGAND FREE ENERGY PREDICTED BY IDOCK:   -0.68 KCAL/MOL
REMARK 927      BINDING AFFINITY PREDICTED BY RF-SCORE:    0.00 PKD
ROOT
HETATM    1  C   UNL     1     -11.002   6.335  73.062  1.00  0.00    -0.271 C  
HETATM    2  C   UNL     1     -10.678   7.787  72.764  1.00  0.00    -0.356 C  
ENDROOT
BRANCH   2   3
HETATM    3  O   UNL     1      -9.933   7.827  71.541  1.00  0.00    -0.169 OA 
BRANCH   3   4
HETATM    4  C   UNL     1      -9.099   8.899  71.421  1.00  0.00    -0.248 C  
HETATM    5  O   UNL     1      -8.044   9.042  72.020  1.00  0.00    -0.360 OA 
BRANCH   4   6
HETATM    6  C   UNL     1      -9.638   9.830  70.365  1.00  0.00    -0.223 C  
BRANCH   6   7
HETATM    7  C   UNL     1     -10.598   9.090  69.441  1.00  0.00    -0.231 C  
BRANCH   7   8
HETATM    8  C   UNL     1      -9.993   8.855  68.061  1.00  0.00    -0.215 C  
BRANCH   8   9
HETATM    9  C   UNL     1     -10.758   9.658  67.011  1.00  0.00    -0.225 C  
BRANCH   9  10
HETATM   10  C   UNL     1      -9.808  10.433  66.107  1.00  0.00    -0.278 C  
BRANCH  10  11
HETATM   11  C   UNL     1     -10.519  11.610  65.441  1.00  0.00    -0.324 C  
BRANCH  11  12
HETATM   12  C   UNL     1     -11.633  12.134  66.342  1.00  0.00    -0.429 C  
BRANCH  12  13
HETATM   13  C   UNL     1     -11.224  13.409  67.083  1.00  0.00    -0.325 C  
HETATM   14  C   UNL     1     -10.176  14.229  66.301  1.00  0.00    -0.307 C  
HETATM   15  C   UNL     1      -9.664  15.392  67.150  1.00  0.00    -0.219 A  
HETATM   16  C   UNL     1     -10.710  14.681  64.931  1.00  0.00    -0.447 C  
HETATM   17  C   UNL     1     -10.347  16.626  67.120  1.00  0.00    -0.300 A  
HETATM   18  C   UNL     1      -9.894  17.733  67.841  1.00  0.00    -0.306 A  
HETATM   19  C   UNL     1      -8.757  17.630  68.630  1.00  0.00    -0.266 A  
HETATM   20  C   UNL     1      -8.086  16.414  68.713  1.00  0.00    -0.234 A  
HETATM   21  C   UNL     1      -8.533  15.300  67.988  1.00  0.00    -0.147 A  
HETATM   22  I   UNL     1      -7.418  13.531  68.262  1.00  0.00    -0.158 I  
ENDBRANCH  12  13
ENDBRANCH  11  12
ENDBRANCH  10  11
ENDBRANCH   9  10
ENDBRANCH   8   9
ENDBRANCH   7   8
ENDBRANCH   6   7
ENDBRANCH   4   6
ENDBRANCH   3   4
ENDBRANCH   2   3
TORSDOF 10
ENDMDL
MODEL      233
REMARK 921   NORMALIZED FREE ENERGY PREDICTED BY IDOCK:   -3.35 KCAL/MOL
REMARK 922        TOTAL FREE ENERGY PREDICTED BY IDOCK:   -6.71 KCAL/MOL
REMARK 923 INTER-LIGAND FREE ENERGY PREDICTED BY IDOCK:   -5.59 KCAL/MOL
REMARK 924 INTRA-LIGAND FREE ENERGY PREDICTED BY IDOCK:   -1.12 KCAL/MOL
REMARK 927      BINDING AFFINITY PREDICTED BY RF-SCORE:    0.00 PKD
ROOT
HETATM    1  C   UNL     1     -12.102  14.713  64.460  1.00  0.00    -0.490 C  
HETATM    2  C   UNL     1     -12.888  13.711  65.285  1.00  0.00    -0.369 C  
ENDROOT
BRANCH   2   3
HETATM    3  O   UNL     1     -12.142  12.487  65.315  1.00  0.00    -0.426 OA 
BRANCH   3   4
HETATM    4  C   UNL     1     -11.691  12.130  66.550  1.00  0.00    -0.321 C  
HETATM    5  O   UNL     1     -12.159  12.517  67.611  1.00  0.00    -0.436 OA 
BRANCH   4   6
HETATM    6  C   UNL     1     -10.591  11.111  66.401  1.00  0.00    -0.315 C  
BRANCH   6   7
HETATM    7  C   UNL     1     -10.210  10.948  64.934  1.00  0.00    -0.381 C  
BRANCH   7   8
HETATM    8  C   UNL     1      -9.176   9.847  64.732  1.00  0.00    -0.309 C  
BRANCH   8   9
HETATM    9  C   UNL     1      -8.108   9.926  65.822  1.00  0.00    -0.123 C  
BRANCH   9  10
HETATM   10  C   UNL     1      -7.577   8.544  66.178  1.00  0.00    -0.089 C  
BRANCH  10  11
HETATM   11  C   UNL     1      -6.174   8.631  66.777  1.00  0.00    -0.059 C  
BRANCH  11  12
HETATM   12  C   UNL     1      -6.018   7.618  67.907  1.00  0.00    -0.040 C  
BRANCH  12  13
HETATM   13  C   UNL     1      -7.210   7.637  68.867  1.00  0.00    -0.081 C  
HETATM   14  C   UNL     1      -7.795   6.228  69.103  1.00  0.00    -0.105 C  
HETATM   15  C   UNL     1      -9.084   6.313  69.918  1.00  0.00    -0.145 A  
HETATM   16  C   UNL     1      -6.758   5.276  69.724  1.00  0.00    -0.051 C  
HETATM   17  C   UNL     1      -9.016   6.293  71.327  1.00  0.00    -0.139 A  
HETATM   18  C   UNL     1     -10.167   6.323  72.117  1.00  0.00    -0.208 A  
HETATM   19  C   UNL     1     -11.419   6.394  71.519  1.00  0.00    -0.360 A  
HETATM   20  C   UNL     1     -11.515   6.457  70.133  1.00  0.00    -0.484 A  
HETATM   21  C   UNL     1     -10.363   6.424  69.334  1.00  0.00    -0.209 A  
HETATM   22  I   UNL     1     -10.696   6.567  67.256  1.00  0.00    -0.446 I  
ENDBRANCH  12  13
ENDBRANCH  11  12
ENDBRANCH  10  11
ENDBRANCH   9  10
ENDBRANCH   8   9
ENDBRANCH   7   8
ENDBRANCH   6   7
ENDBRANCH   4   6
ENDBRANCH   3   4
ENDBRANCH   2   3
TORSDOF 10
ENDMDL
MODEL      234
REMARK 921   NORMALIZED FREE ENERGY PREDICTED BY IDOCK:   -3.35 KCAL/MOL
REMARK 922        TOTAL FREE ENERGY PREDICTED BY IDOCK:   -6.71 KCAL/MOL
REMARK 923 INTER-LIGAND FREE ENERGY PREDICTED BY IDOCK:   -5.58 KCAL/MOL
REMARK 924 INTRA-LIGAND FREE ENERGY PREDICTED BY IDOCK:   -1.12 KCAL/MOL
REMARK 927      BINDING AFFINITY PREDICTED BY RF-SCORE:    0.00 PKD
ROOT
HETATM    1  C   UNL     1      -6.063  17.656  68.267  1.00  0.00    -0.165 C  
HETATM    2  C   UNL     1      -7.552  17.624  68.555  1.00  0.00    -0.272 C  
ENDROOT
BRANCH   2   3
HETATM    3  O   UNL     1      -8.123  18.833  68.039  1.00  0.00    -0.268 OA 
BRANCH   3   4
HETATM    4  C   UNL     1      -8.805  18.682  66.869  1.00  0.00    -0.287 C  
HETATM    5  O   UNL     1      -8.616  19.335  65.853  1.00  0.00    -0.445 OA 
BRANCH   4   6
HETATM    6  C   UNL     1      -9.759  17.522  66.997  1.00  0.00    -0.284 C  
BRANCH   6   7
HETATM    7  C   UNL     1      -9.971  16.853  65.644  1.00  0.00    -0.127 C  
BRANCH   7   8
HETATM    8  C   UNL     1     -10.325  15.377  65.788  1.00  0.00    -0.381 C  
BRANCH   8   9
HETATM    9  C   UNL     1      -9.189  14.632  66.485  1.00  0.00    -0.294 C  
BRANCH   9  10
HETATM   10  C   UNL     1      -9.713  13.750  67.610  1.00  0.00    -0.227 C  
BRANCH  10  11
HETATM   11  C   UNL     1     -11.201  13.451  67.428  1.00  0.00    -0.311 C  
BRANCH  11  12
HETATM   12  C   UNL     1     -11.402  11.993  67.024  1.00  0.00    -0.396 C  
BRANCH  12  13
HETATM   13  C   UNL     1     -10.072  11.270  66.799  1.00  0.00    -0.254 C  
HETATM   14  C   UNL     1     -10.113  10.338  65.569  1.00  0.00    -0.351 C  
HETATM   15  C   UNL     1      -8.835   9.504  65.486  1.00  0.00    -0.201 A  
HETATM   16  C   UNL     1     -10.404  11.116  64.273  1.00  0.00    -0.413 C  
HETATM   17  C   UNL     1      -7.715  10.018  64.799  1.00  0.00    -0.142 A  
HETATM   18  C   UNL     1      -6.540   9.278  64.655  1.00  0.00    -0.077 A  
HETATM   19  C   UNL     1      -6.444   8.010  65.213  1.00  0.00    -0.048 A  
HETATM   20  C   UNL     1      -7.518   7.494  65.932  1.00  0.00    -0.082 A  
HETATM   21  C   UNL     1      -8.702   8.231  66.077  1.00  0.00    -0.155 A  
HETATM   22  I   UNL     1     -10.209   7.309  67.228  1.00  0.00    -0.402 I  
ENDBRANCH  12  13
ENDBRANCH  11  12
ENDBRANCH  10  11
ENDBRANCH   9  10
ENDBRANCH   8   9
ENDBRANCH   7   8
ENDBRANCH   6   7
ENDBRANCH   4   6
ENDBRANCH   3   4
ENDBRANCH   2   3
TORSDOF 10
ENDMDL
MODEL      235
REMARK 921   NORMALIZED FREE ENERGY PREDICTED BY IDOCK:   -3.34 KCAL/MOL
REMARK 922        TOTAL FREE ENERGY PREDICTED BY IDOCK:   -6.69 KCAL/MOL
REMARK 923 INTER-LIGAND FREE ENERGY PREDICTED BY IDOCK:   -6.08 KCAL/MOL
REMARK 924 INTRA-LIGAND FREE ENERGY PREDICTED BY IDOCK:   -0.61 KCAL/MOL
REMARK 927      BINDING AFFINITY PREDICTED BY RF-SCORE:    0.00 PKD
ROOT
HETATM    1  C   UNL     1      -8.213  20.338  67.321  1.00  0.00    -0.393 C  
HETATM    2  C   UNL     1      -8.599  19.092  68.096  1.00  0.00    -0.320 C  
ENDROOT
BRANCH   2   3
HETATM    3  O   UNL     1      -9.657  18.442  67.381  1.00  0.00    -0.279 OA 
BRANCH   3   4
HETATM    4  C   UNL     1      -9.286  17.299  66.736  1.00  0.00    -0.255 C  
HETATM    5  O   UNL     1      -8.623  17.253  65.710  1.00  0.00    -0.532 OA 
BRANCH   4   6
HETATM    6  C   UNL     1      -9.738  16.108  67.540  1.00  0.00    -0.233 C  
BRANCH   6   7
HETATM    7  C   UNL     1     -11.069  16.399  68.224  1.00  0.00    -0.337 C  
BRANCH   7   8
HETATM    8  C   UNL     1     -11.783  15.121  68.650  1.00  0.00    -0.364 C  
BRANCH   8   9
HETATM    9  C   UNL     1     -10.981  13.900  68.203  1.00  0.00    -0.267 C  
BRANCH   9  10
HETATM   10  C   UNL     1     -11.888  12.822  67.627  1.00  0.00    -0.396 C  
BRANCH  10  11
HETATM   11  C   UNL     1     -12.014  11.638  68.585  1.00  0.00    -0.311 C  
BRANCH  11  12
HETATM   12  C   UNL     1     -10.688  10.891  68.680  1.00  0.00    -0.238 C  
BRANCH  12  13
HETATM   13  C   UNL     1     -10.646   9.671  67.757  1.00  0.00    -0.320 C  
HETATM   14  C   UNL     1      -9.949   8.461  68.414  1.00  0.00    -0.208 C  
HETATM   15  C   UNL     1      -9.769   7.331  67.402  1.00  0.00    -0.191 A  
HETATM   16  C   UNL     1     -10.677   8.008  69.692  1.00  0.00    -0.207 C  
HETATM   17  C   UNL     1     -10.798   6.381  67.233  1.00  0.00    -0.463 A  
HETATM   18  C   UNL     1     -10.665   5.304  66.355  1.00  0.00    -0.290 A  
HETATM   19  C   UNL     1      -9.506   5.158  65.605  1.00  0.00    -0.129 A  
HETATM   20  C   UNL     1      -8.490   6.103  65.719  1.00  0.00    -0.147 A  
HETATM   21  C   UNL     1      -8.617   7.185  66.603  1.00  0.00    -0.124 A  
HETATM   22  I   UNL     1      -6.998   8.536  66.618  1.00  0.00    -0.078 I  
ENDBRANCH  12  13
ENDBRANCH  11  12
ENDBRANCH  10  11
ENDBRANCH   9  10
ENDBRANCH   8   9
ENDBRANCH   7   8
ENDBRANCH   6   7
ENDBRANCH   4   6
ENDBRANCH   3   4
ENDBRANCH   2   3
TORSDOF 10
ENDMDL
MODEL      236
REMARK 921   NORMALIZED FREE ENERGY PREDICTED BY IDOCK:   -3.33 KCAL/MOL
REMARK 922        TOTAL FREE ENERGY PREDICTED BY IDOCK:   -6.68 KCAL/MOL
REMARK 923 INTER-LIGAND FREE ENERGY PREDICTED BY IDOCK:   -5.59 KCAL/MOL
REMARK 924 INTRA-LIGAND FREE ENERGY PREDICTED BY IDOCK:   -1.09 KCAL/MOL
REMARK 927      BINDING AFFINITY PREDICTED BY RF-SCORE:    0.00 PKD
ROOT
HETATM    1  C   UNL     1      -6.594   9.173  62.441  1.00  0.00    -0.093 C  
HETATM    2  C   UNL     1      -7.519   9.761  63.491  1.00  0.00    -0.126 C  
ENDROOT
BRANCH   2   3
HETATM    3  O   UNL     1      -7.922   8.697  64.363  1.00  0.00    -0.130 OA 
BRANCH   3   4
HETATM    4  C   UNL     1      -8.947   9.014  65.204  1.00  0.00    -0.165 C  
HETATM    5  O   UNL     1      -9.826   9.830  64.969  1.00  0.00    -0.306 OA 
BRANCH   4   6
HETATM    6  C   UNL     1      -8.878   8.131  66.423  1.00  0.00    -0.182 C  
BRANCH   6   7
HETATM    7  C   UNL     1     -10.046   8.421  67.359  1.00  0.00    -0.301 C  
BRANCH   7   8
HETATM    8  C   UNL     1      -9.575   8.765  68.768  1.00  0.00    -0.160 C  
BRANCH   8   9
HETATM    9  C   UNL     1     -10.307  10.006  69.275  1.00  0.00    -0.237 C  
BRANCH   9  10
HETATM   10  C   UNL     1     -11.502  10.344  68.393  1.00  0.00    -0.227 C  
BRANCH  10  11
HETATM   11  C   UNL     1     -11.742  11.852  68.345  1.00  0.00    -0.387 C  
BRANCH  11  12
HETATM   12  C   UNL     1     -11.700  12.348  66.903  1.00  0.00    -0.432 C  
BRANCH  12  13
HETATM   13  C   UNL     1     -11.210  13.795  66.806  1.00  0.00    -0.327 C  
HETATM   14  C   UNL     1      -9.913  14.030  67.609  1.00  0.00    -0.237 C  
HETATM   15  C   UNL     1      -9.560  15.516  67.633  1.00  0.00    -0.210 A  
HETATM   16  C   UNL     1      -8.758  13.149  67.099  1.00  0.00    -0.214 C  
HETATM   17  C   UNL     1      -8.769  16.058  66.598  1.00  0.00    -0.309 A  
HETATM   18  C   UNL     1      -8.380  17.399  66.598  1.00  0.00    -0.295 A  
HETATM   19  C   UNL     1      -8.789  18.241  67.623  1.00  0.00    -0.261 A  
HETATM   20  C   UNL     1      -9.604  17.746  68.636  1.00  0.00    -0.322 A  
HETATM   21  C   UNL     1      -9.995  16.398  68.644  1.00  0.00    -0.235 A  
HETATM   22  I   UNL     1     -11.259  15.831  70.233  1.00  0.00    -0.437 I  
ENDBRANCH  12  13
ENDBRANCH  11  12
ENDBRANCH  10  11
ENDBRANCH   9  10
ENDBRANCH   8   9
ENDBRANCH   7   8
ENDBRANCH   6   7
ENDBRANCH   4   6
ENDBRANCH   3   4
ENDBRANCH   2   3
TORSDOF 10
ENDMDL
MODEL      237
REMARK 921   NORMALIZED FREE ENERGY PREDICTED BY IDOCK:   -3.33 KCAL/MOL
REMARK 922        TOTAL FREE ENERGY PREDICTED BY IDOCK:   -6.67 KCAL/MOL
REMARK 923 INTER-LIGAND FREE ENERGY PREDICTED BY IDOCK:   -5.62 KCAL/MOL
REMARK 924 INTRA-LIGAND FREE ENERGY PREDICTED BY IDOCK:   -1.06 KCAL/MOL
REMARK 927      BINDING AFFINITY PREDICTED BY RF-SCORE:    0.00 PKD
ROOT
HETATM    1  C   UNL     1      -9.438   4.831  69.104  1.00  0.00    -0.215 C  
HETATM    2  C   UNL     1     -10.535   5.497  69.915  1.00  0.00    -0.316 C  
ENDROOT
BRANCH   2   3
HETATM    3  O   UNL     1     -10.583   4.857  71.196  1.00  0.00    -0.151 OA 
BRANCH   3   4
HETATM    4  C   UNL     1     -11.324   5.517  72.130  1.00  0.00    -0.149 C  
HETATM    5  O   UNL     1     -11.734   5.033  73.175  1.00  0.00    -0.313 OA 
BRANCH   4   6
HETATM    6  C   UNL     1     -11.474   6.958  71.716  1.00  0.00    -0.310 C  
BRANCH   6   7
HETATM    7  C   UNL     1     -12.925   7.405  71.854  1.00  0.00    -0.296 C  
BRANCH   7   8
HETATM    8  C   UNL     1     -13.081   8.907  71.645  1.00  0.00    -0.405 C  
BRANCH   8   9
HETATM    9  C   UNL     1     -11.712   9.551  71.441  1.00  0.00    -0.465 C  
BRANCH   9  10
HETATM   10  C   UNL     1     -11.524  10.007  70.000  1.00  0.00    -0.310 C  
BRANCH  10  11
HETATM   11  C   UNL     1     -10.049  10.263  69.691  1.00  0.00    -0.257 C  
BRANCH  11  12
HETATM   12  C   UNL     1      -9.449   9.072  68.950  1.00  0.00    -0.151 C  
BRANCH  12  13
HETATM   13  C   UNL     1      -9.693   9.150  67.441  1.00  0.00    -0.211 C  
HETATM   14  C   UNL     1      -8.909  10.303  66.780  1.00  0.00    -0.143 C  
HETATM   15  C   UNL     1      -9.317  10.457  65.316  1.00  0.00    -0.263 A  
HETATM   16  C   UNL     1      -7.390  10.139  66.962  1.00  0.00    -0.091 C  
HETATM   17  C   UNL     1      -8.644   9.710  64.326  1.00  0.00    -0.207 A  
HETATM   18  C   UNL     1      -8.948   9.849  62.970  1.00  0.00    -0.273 A  
HETATM   19  C   UNL     1      -9.949  10.723  62.567  1.00  0.00     0.035 A  
HETATM   20  C   UNL     1     -10.658  11.443  63.524  1.00  0.00    -0.468 A  
HETATM   21  C   UNL     1     -10.355  11.311  64.887  1.00  0.00    -0.304 A  
HETATM   22  I   UNL     1     -11.555  12.448  66.197  1.00  0.00    -0.354 I  
ENDBRANCH  12  13
ENDBRANCH  11  12
ENDBRANCH  10  11
ENDBRANCH   9  10
ENDBRANCH   8   9
ENDBRANCH   7   8
ENDBRANCH   6   7
ENDBRANCH   4   6
ENDBRANCH   3   4
ENDBRANCH   2   3
TORSDOF 10
ENDMDL
MODEL      238
REMARK 921   NORMALIZED FREE ENERGY PREDICTED BY IDOCK:   -3.33 KCAL/MOL
REMARK 922        TOTAL FREE ENERGY PREDICTED BY IDOCK:   -6.67 KCAL/MOL
REMARK 923 INTER-LIGAND FREE ENERGY PREDICTED BY IDOCK:   -5.83 KCAL/MOL
REMARK 924 INTRA-LIGAND FREE ENERGY PREDICTED BY IDOCK:   -0.85 KCAL/MOL
REMARK 927      BINDING AFFINITY PREDICTED BY RF-SCORE:    0.00 PKD
ROOT
HETATM    1  C   UNL     1     -11.808   6.551  71.026  1.00  0.00    -0.390 C  
HETATM    2  C   UNL     1     -10.701   7.033  70.106  1.00  0.00    -0.240 C  
ENDROOT
BRANCH   2   3
HETATM    3  O   UNL     1      -9.547   6.218  70.345  1.00  0.00    -0.163 OA 
BRANCH   3   4
HETATM    4  C   UNL     1      -9.679   4.921  69.947  1.00  0.00    -0.206 C  
HETATM    5  O   UNL     1      -9.641   3.949  70.686  1.00  0.00    -0.164 OA 
BRANCH   4   6
HETATM    6  C   UNL     1      -9.973   4.884  68.469  1.00  0.00    -0.185 C  
BRANCH   6   7
HETATM    7  C   UNL     1      -8.690   5.054  67.664  1.00  0.00    -0.103 C  
BRANCH   7   8
HETATM    8  C   UNL     1      -8.892   5.960  66.455  1.00  0.00    -0.128 C  
BRANCH   8   9
HETATM    9  C   UNL     1      -9.957   7.012  66.761  1.00  0.00    -0.266 C  
BRANCH   9  10
HETATM   10  C   UNL     1      -9.414   8.422  66.567  1.00  0.00    -0.284 C  
BRANCH  10  11
HETATM   11  C   UNL     1     -10.522   9.463  66.719  1.00  0.00    -0.265 C  
BRANCH  11  12
HETATM   12  C   UNL     1     -10.006  10.845  66.328  1.00  0.00    -0.274 C  
BRANCH  12  13
HETATM   13  C   UNL     1     -10.789  11.967  67.013  1.00  0.00    -0.297 C  
HETATM   14  C   UNL     1     -10.134  12.415  68.337  1.00  0.00    -0.217 C  
HETATM   15  C   UNL     1     -11.036  13.404  69.074  1.00  0.00    -0.293 A  
HETATM   16  C   UNL     1      -8.711  12.957  68.115  1.00  0.00    -0.190 C  
HETATM   17  C   UNL     1     -10.927  14.782  68.796  1.00  0.00    -0.267 A  
HETATM   18  C   UNL     1     -11.696  15.730  69.474  1.00  0.00    -0.369 A  
HETATM   19  C   UNL     1     -12.612  15.324  70.435  1.00  0.00    -0.421 A  
HETATM   20  C   UNL     1     -12.772  13.967  70.701  1.00  0.00    -0.373 A  
HETATM   21  C   UNL     1     -11.999  13.010  70.026  1.00  0.00    -0.312 A  
HETATM   22  I   UNL     1     -12.400  11.002  70.529  1.00  0.00    -0.419 I  
ENDBRANCH  12  13
ENDBRANCH  11  12
ENDBRANCH  10  11
ENDBRANCH   9  10
ENDBRANCH   8   9
ENDBRANCH   7   8
ENDBRANCH   6   7
ENDBRANCH   4   6
ENDBRANCH   3   4
ENDBRANCH   2   3
TORSDOF 10
ENDMDL
MODEL      239
REMARK 921   NORMALIZED FREE ENERGY PREDICTED BY IDOCK:   -3.33 KCAL/MOL
REMARK 922        TOTAL FREE ENERGY PREDICTED BY IDOCK:   -6.67 KCAL/MOL
REMARK 923 INTER-LIGAND FREE ENERGY PREDICTED BY IDOCK:   -4.97 KCAL/MOL
REMARK 924 INTRA-LIGAND FREE ENERGY PREDICTED BY IDOCK:   -1.70 KCAL/MOL
REMARK 927      BINDING AFFINITY PREDICTED BY RF-SCORE:    0.00 PKD
ROOT
HETATM    1  C   UNL     1      -7.550   5.373  68.008  1.00  0.00    -0.081 C  
HETATM    2  C   UNL     1      -7.125   6.452  67.030  1.00  0.00    -0.073 C  
ENDROOT
BRANCH   2   3
HETATM    3  O   UNL     1      -7.687   7.693  67.476  1.00  0.00    -0.112 OA 
BRANCH   3   4
HETATM    4  C   UNL     1      -8.657   8.199  66.663  1.00  0.00    -0.135 C  
HETATM    5  O   UNL     1      -9.853   8.216  66.918  1.00  0.00    -0.200 OA 
BRANCH   4   6
HETATM    6  C   UNL     1      -8.014   8.817  65.449  1.00  0.00    -0.112 C  
BRANCH   6   7
HETATM    7  C   UNL     1      -9.070   9.437  64.542  1.00  0.00    -0.205 C  
BRANCH   7   8
HETATM    8  C   UNL     1      -8.446  10.208  63.385  1.00  0.00    -0.185 C  
BRANCH   8   9
HETATM    9  C   UNL     1      -9.525  10.982  62.630  1.00  0.00    -0.322 C  
BRANCH   9  10
HETATM   10  C   UNL     1     -10.754  11.211  63.500  1.00  0.00    -0.340 C  
BRANCH  10  11
HETATM   11  C   UNL     1     -11.074  12.701  63.620  1.00  0.00    -0.496 C  
BRANCH  11  12
HETATM   12  C   UNL     1     -10.501  13.262  64.918  1.00  0.00    -0.387 C  
BRANCH  12  13
HETATM   13  C   UNL     1     -10.293  12.173  65.973  1.00  0.00    -0.268 C  
HETATM   14  C   UNL     1     -10.051  12.760  67.380  1.00  0.00    -0.219 C  
HETATM   15  C   UNL     1      -9.671  11.655  68.364  1.00  0.00    -0.199 A  
HETATM   16  C   UNL     1     -11.247  13.602  67.861  1.00  0.00    -0.300 C  
HETATM   17  C   UNL     1     -10.687  10.962  69.055  1.00  0.00    -0.262 A  
HETATM   18  C   UNL     1     -10.392   9.976  69.998  1.00  0.00    -0.323 A  
HETATM   19  C   UNL     1      -9.070   9.639  70.260  1.00  0.00    -0.272 A  
HETATM   20  C   UNL     1      -8.048  10.275  69.564  1.00  0.00    -0.170 A  
HETATM   21  C   UNL     1      -8.338  11.270  68.618  1.00  0.00    -0.146 A  
HETATM   22  I   UNL     1      -6.669  12.100  67.633  1.00  0.00    -0.158 I  
ENDBRANCH  12  13
ENDBRANCH  11  12
ENDBRANCH  10  11
ENDBRANCH   9  10
ENDBRANCH   8   9
ENDBRANCH   7   8
ENDBRANCH   6   7
ENDBRANCH   4   6
ENDBRANCH   3   4
ENDBRANCH   2   3
TORSDOF 10
ENDMDL
MODEL      240
REMARK 921   NORMALIZED FREE ENERGY PREDICTED BY IDOCK:   -3.31 KCAL/MOL
REMARK 922        TOTAL FREE ENERGY PREDICTED BY IDOCK:   -6.64 KCAL/MOL
REMARK 923 INTER-LIGAND FREE ENERGY PREDICTED BY IDOCK:   -5.92 KCAL/MOL
REMARK 924 INTRA-LIGAND FREE ENERGY PREDICTED BY IDOCK:   -0.72 KCAL/MOL
REMARK 927      BINDING AFFINITY PREDICTED BY RF-SCORE:    0.00 PKD
ROOT
HETATM    1  C   UNL     1     -10.253  10.830  64.322  1.00  0.00    -0.422 C  
HETATM    2  C   UNL     1     -10.800  12.236  64.485  1.00  0.00    -0.315 C  
ENDROOT
BRANCH   2   3
HETATM    3  O   UNL     1     -11.653  12.243  65.637  1.00  0.00    -0.359 OA 
BRANCH   3   4
HETATM    4  C   UNL     1     -12.449  13.344  65.744  1.00  0.00    -0.439 C  
HETATM    5  O   UNL     1     -13.376  13.620  64.997  1.00  0.00    -0.593 OA 
BRANCH   4   6
HETATM    6  C   UNL     1     -12.067  14.112  66.983  1.00  0.00    -0.449 C  
BRANCH   6   7
HETATM    7  C   UNL     1     -11.682  13.157  68.107  1.00  0.00    -0.391 C  
BRANCH   7   8
HETATM    8  C   UNL     1     -12.024  13.723  69.480  1.00  0.00    -0.399 C  
BRANCH   8   9
HETATM    9  C   UNL     1     -11.942  12.622  70.535  1.00  0.00    -0.279 C  
BRANCH   9  10
HETATM   10  C   UNL     1     -11.321  11.354  69.965  1.00  0.00    -0.260 C  
BRANCH  10  11
HETATM   11  C   UNL     1     -12.189  10.133  70.265  1.00  0.00    -0.248 C  
BRANCH  11  12
HETATM   12  C   UNL     1     -11.334   8.999  70.822  1.00  0.00    -0.329 C  
BRANCH  12  13
HETATM   13  C   UNL     1     -10.594   8.239  69.718  1.00  0.00    -0.228 C  
HETATM   14  C   UNL     1      -9.886   6.975  70.251  1.00  0.00    -0.180 C  
HETATM   15  C   UNL     1      -9.018   6.349  69.161  1.00  0.00    -0.129 A  
HETATM   16  C   UNL     1     -10.884   5.978  70.865  1.00  0.00    -0.349 C  
HETATM   17  C   UNL     1      -9.585   5.406  68.278  1.00  0.00    -0.158 A  
HETATM   18  C   UNL     1      -8.823   4.771  67.295  1.00  0.00    -0.104 A  
HETATM   19  C   UNL     1      -7.477   5.077  67.154  1.00  0.00    -0.087 A  
HETATM   20  C   UNL     1      -6.899   6.034  67.982  1.00  0.00    -0.063 A  
HETATM   21  C   UNL     1      -7.658   6.673  68.974  1.00  0.00    -0.101 A  
HETATM   22  I   UNL     1      -6.629   8.120  70.112  1.00  0.00    -0.036 I  
ENDBRANCH  12  13
ENDBRANCH  11  12
ENDBRANCH  10  11
ENDBRANCH   9  10
ENDBRANCH   8   9
ENDBRANCH   7   8
ENDBRANCH   6   7
ENDBRANCH   4   6
ENDBRANCH   3   4
ENDBRANCH   2   3
TORSDOF 10
ENDMDL
MODEL      241
REMARK 921   NORMALIZED FREE ENERGY PREDICTED BY IDOCK:   -3.30 KCAL/MOL
REMARK 922        TOTAL FREE ENERGY PREDICTED BY IDOCK:   -6.63 KCAL/MOL
REMARK 923 INTER-LIGAND FREE ENERGY PREDICTED BY IDOCK:   -5.55 KCAL/MOL
REMARK 924 INTRA-LIGAND FREE ENERGY PREDICTED BY IDOCK:   -1.08 KCAL/MOL
REMARK 927      BINDING AFFINITY PREDICTED BY RF-SCORE:    0.00 PKD
ROOT
HETATM    1  C   UNL     1     -11.177   6.721  71.906  1.00  0.00    -0.294 C  
HETATM    2  C   UNL     1     -10.798   7.594  73.088  1.00  0.00    -0.382 C  
ENDROOT
BRANCH   2   3
HETATM    3  O   UNL     1      -9.609   7.047  73.673  1.00  0.00    -0.180 OA 
BRANCH   3   4
HETATM    4  C   UNL     1      -8.521   7.866  73.613  1.00  0.00    -0.242 C  
HETATM    5  O   UNL     1      -8.283   8.780  74.388  1.00  0.00    -0.248 OA 
BRANCH   4   6
HETATM    6  C   UNL     1      -7.615   7.404  72.501  1.00  0.00    -0.092 C  
BRANCH   6   7
HETATM    7  C   UNL     1      -7.478   8.489  71.438  1.00  0.00    -0.116 C  
BRANCH   7   8
HETATM    8  C   UNL     1      -7.154   7.906  70.068  1.00  0.00    -0.050 C  
BRANCH   8   9
HETATM    9  C   UNL     1      -8.189   6.849  69.691  1.00  0.00    -0.131 C  
BRANCH   9  10
HETATM   10  C   UNL     1      -9.277   7.432  68.798  1.00  0.00    -0.144 C  
BRANCH  10  11
HETATM   11  C   UNL     1      -8.693   8.430  67.799  1.00  0.00    -0.137 C  
BRANCH  11  12
HETATM   12  C   UNL     1      -9.259   8.176  66.406  1.00  0.00    -0.250 C  
BRANCH  12  13
HETATM   13  C   UNL     1     -10.231   9.276  65.969  1.00  0.00    -0.156 C  
HETATM   14  C   UNL     1      -9.614  10.685  66.092  1.00  0.00    -0.232 C  
HETATM   15  C   UNL     1     -10.668  11.757  65.821  1.00  0.00    -0.328 A  
HETATM   16  C   UNL     1      -8.364  10.840  65.208  1.00  0.00    -0.086 C  
HETATM   17  C   UNL     1     -10.887  12.195  64.498  1.00  0.00    -0.356 A  
HETATM   18  C   UNL     1     -11.807  13.204  64.202  1.00  0.00    -0.487 A  
HETATM   19  C   UNL     1     -12.548  13.788  65.220  1.00  0.00    -0.510 A  
HETATM   20  C   UNL     1     -12.385  13.348  66.530  1.00  0.00    -0.354 A  
HETATM   21  C   UNL     1     -11.460  12.337  66.833  1.00  0.00    -0.356 A  
HETATM   22  I   UNL     1     -11.371  11.770  68.862  1.00  0.00    -0.416 I  
ENDBRANCH  12  13
ENDBRANCH  11  12
ENDBRANCH  10  11
ENDBRANCH   9  10
ENDBRANCH   8   9
ENDBRANCH   7   8
ENDBRANCH   6   7
ENDBRANCH   4   6
ENDBRANCH   3   4
ENDBRANCH   2   3
TORSDOF 10
ENDMDL
MODEL      242
REMARK 921   NORMALIZED FREE ENERGY PREDICTED BY IDOCK:   -3.30 KCAL/MOL
REMARK 922        TOTAL FREE ENERGY PREDICTED BY IDOCK:   -6.63 KCAL/MOL
REMARK 923 INTER-LIGAND FREE ENERGY PREDICTED BY IDOCK:   -5.34 KCAL/MOL
REMARK 924 INTRA-LIGAND FREE ENERGY PREDICTED BY IDOCK:   -1.29 KCAL/MOL
REMARK 927      BINDING AFFINITY PREDICTED BY RF-SCORE:    0.00 PKD
ROOT
HETATM    1  C   UNL     1     -12.113  13.834  66.569  1.00  0.00    -0.483 C  
HETATM    2  C   UNL     1     -10.900  14.502  67.192  1.00  0.00    -0.296 C  
ENDROOT
BRANCH   2   3
HETATM    3  O   UNL     1     -10.885  14.168  68.585  1.00  0.00    -0.240 OA 
BRANCH   3   4
HETATM    4  C   UNL     1     -11.444  15.110  69.398  1.00  0.00    -0.306 C  
HETATM    5  O   UNL     1     -11.444  16.313  69.187  1.00  0.00    -0.320 OA 
BRANCH   4   6
HETATM    6  C   UNL     1     -12.142  14.423  70.543  1.00  0.00    -0.404 C  
BRANCH   6   7
HETATM    7  C   UNL     1     -12.765  13.111  70.081  1.00  0.00     0.060 C  
BRANCH   7   8
HETATM    8  C   UNL     1     -12.774  12.063  71.187  1.00  0.00    -0.365 C  
BRANCH   8   9
HETATM    9  C   UNL     1     -12.300  10.719  70.638  1.00  0.00    -0.465 C  
BRANCH   9  10
HETATM   10  C   UNL     1     -11.676  10.873  69.257  1.00  0.00    -0.395 C  
BRANCH  10  11
HETATM   11  C   UNL     1     -10.157  10.727  69.320  1.00  0.00    -0.200 C  
BRANCH  11  12
HETATM   12  C   UNL     1      -9.652   9.928  68.122  1.00  0.00    -0.153 C  
BRANCH  12  13
HETATM   13  C   UNL     1      -9.043   8.588  68.539  1.00  0.00    -0.135 C  
HETATM   14  C   UNL     1     -10.058   7.429  68.447  1.00  0.00    -0.196 C  
HETATM   15  C   UNL     1      -9.466   6.150  69.039  1.00  0.00    -0.138 A  
HETATM   16  C   UNL     1     -10.576   7.237  67.011  1.00  0.00    -0.415 C  
HETATM   17  C   UNL     1      -8.718   5.285  68.213  1.00  0.00    -0.101 A  
HETATM   18  C   UNL     1      -8.195   4.083  68.694  1.00  0.00    -0.082 A  
HETATM   19  C   UNL     1      -8.388   3.722  70.021  1.00  0.00    -0.081 A  
HETATM   20  C   UNL     1      -9.085   4.576  70.870  1.00  0.00    -0.185 A  
HETATM   21  C   UNL     1      -9.617   5.783  70.392  1.00  0.00    -0.168 A  
HETATM   22  I   UNL     1     -10.611   6.967  71.826  1.00  0.00    -0.266 I  
ENDBRANCH  12  13
ENDBRANCH  11  12
ENDBRANCH  10  11
ENDBRANCH   9  10
ENDBRANCH   8   9
ENDBRANCH   7   8
ENDBRANCH   6   7
ENDBRANCH   4   6
ENDBRANCH   3   4
ENDBRANCH   2   3
TORSDOF 10
ENDMDL
MODEL      243
REMARK 921   NORMALIZED FREE ENERGY PREDICTED BY IDOCK:   -3.29 KCAL/MOL
REMARK 922        TOTAL FREE ENERGY PREDICTED BY IDOCK:   -6.61 KCAL/MOL
REMARK 923 INTER-LIGAND FREE ENERGY PREDICTED BY IDOCK:   -5.99 KCAL/MOL
REMARK 924 INTRA-LIGAND FREE ENERGY PREDICTED BY IDOCK:   -0.62 KCAL/MOL
REMARK 927      BINDING AFFINITY PREDICTED BY RF-SCORE:    0.00 PKD
ROOT
HETATM    1  C   UNL     1      -5.469   9.590  65.915  1.00  0.00    -0.040 C  
HETATM    2  C   UNL     1      -6.911  10.040  65.767  1.00  0.00    -0.111 C  
ENDROOT
BRANCH   2   3
HETATM    3  O   UNL     1      -7.183  10.180  64.367  1.00  0.00    -0.138 OA 
BRANCH   3   4
HETATM    4  C   UNL     1      -8.179   9.374  63.901  1.00  0.00    -0.165 C  
HETATM    5  O   UNL     1      -8.452   8.266  64.339  1.00  0.00    -0.120 OA 
BRANCH   4   6
HETATM    6  C   UNL     1      -8.947  10.104  62.830  1.00  0.00    -0.268 C  
BRANCH   6   7
HETATM    7  C   UNL     1      -9.384  11.477  63.327  1.00  0.00    -0.232 C  
BRANCH   7   8
HETATM    8  C   UNL     1     -10.660  11.403  64.158  1.00  0.00    -0.430 C  
BRANCH   8   9
HETATM    9  C   UNL     1     -10.856  12.704  64.934  1.00  0.00    -0.329 C  
BRANCH   9  10
HETATM   10  C   UNL     1     -11.997  12.585  65.935  1.00  0.00    -0.472 C  
BRANCH  10  11
HETATM   11  C   UNL     1     -11.691  13.361  67.215  1.00  0.00    -0.424 C  
BRANCH  11  12
HETATM   12  C   UNL     1     -11.748  14.862  66.950  1.00  0.00    -0.260 C  
BRANCH  12  13
HETATM   13  C   UNL     1     -10.375  15.524  67.085  1.00  0.00    -0.272 C  
HETATM   14  C   UNL     1     -10.291  16.455  68.313  1.00  0.00    -0.279 C  
HETATM   15  C   UNL     1      -8.973  17.229  68.310  1.00  0.00    -0.262 A  
HETATM   16  C   UNL     1     -10.531  15.690  69.627  1.00  0.00    -0.283 C  
HETATM   17  C   UNL     1      -7.835  16.663  68.923  1.00  0.00    -0.240 A  
HETATM   18  C   UNL     1      -6.620  17.348  68.987  1.00  0.00    -0.232 A  
HETATM   19  C   UNL     1      -6.504  18.611  68.421  1.00  0.00    -0.236 A  
HETATM   20  C   UNL     1      -7.598  19.178  67.774  1.00  0.00    -0.282 A  
HETATM   21  C   UNL     1      -8.822  18.496  67.709  1.00  0.00    -0.275 A  
HETATM   22  I   UNL     1     -10.358  19.487  66.659  1.00  0.00    -0.638 I  
ENDBRANCH  12  13
ENDBRANCH  11  12
ENDBRANCH  10  11
ENDBRANCH   9  10
ENDBRANCH   8   9
ENDBRANCH   7   8
ENDBRANCH   6   7
ENDBRANCH   4   6
ENDBRANCH   3   4
ENDBRANCH   2   3
TORSDOF 10
ENDMDL
MODEL      244
REMARK 921   NORMALIZED FREE ENERGY PREDICTED BY IDOCK:   -3.29 KCAL/MOL
REMARK 922        TOTAL FREE ENERGY PREDICTED BY IDOCK:   -6.61 KCAL/MOL
REMARK 923 INTER-LIGAND FREE ENERGY PREDICTED BY IDOCK:   -4.99 KCAL/MOL
REMARK 924 INTRA-LIGAND FREE ENERGY PREDICTED BY IDOCK:   -1.62 KCAL/MOL
REMARK 927      BINDING AFFINITY PREDICTED BY RF-SCORE:    0.00 PKD
ROOT
HETATM    1  C   UNL     1      -7.504   7.710  72.581  1.00  0.00    -0.098 C  
HETATM    2  C   UNL     1      -6.370   8.665  72.258  1.00  0.00    -0.071 C  
ENDROOT
BRANCH   2   3
HETATM    3  O   UNL     1      -6.221   8.702  70.833  1.00  0.00    -0.034 OA 
BRANCH   3   4
HETATM    4  C   UNL     1      -6.160   9.956  70.303  1.00  0.00    -0.074 C  
HETATM    5  O   UNL     1      -6.496  10.981  70.877  1.00  0.00    -0.277 OA 
BRANCH   4   6
HETATM    6  C   UNL     1      -5.525   9.886  68.939  1.00  0.00    -0.035 C  
BRANCH   6   7
HETATM    7  C   UNL     1      -6.583   9.646  67.868  1.00  0.00    -0.062 C  
BRANCH   7   8
HETATM    8  C   UNL     1      -7.331  10.925  67.509  1.00  0.00    -0.096 C  
BRANCH   8   9
HETATM    9  C   UNL     1      -7.835  10.850  66.069  1.00  0.00    -0.121 C  
BRANCH   9  10
HETATM   10  C   UNL     1      -9.087   9.989  65.964  1.00  0.00    -0.189 C  
BRANCH  10  11
HETATM   11  C   UNL     1     -10.221  10.748  65.276  1.00  0.00    -0.351 C  
BRANCH  11  12
HETATM   12  C   UNL     1     -10.672  11.922  66.139  1.00  0.00    -0.318 C  
BRANCH  12  13
HETATM   13  C   UNL     1     -11.486  11.466  67.352  1.00  0.00    -0.328 C  
HETATM   14  C   UNL     1     -10.711  11.638  68.676  1.00  0.00    -0.246 C  
HETATM   15  C   UNL     1     -11.483  11.008  69.834  1.00  0.00    -0.400 A  
HETATM   16  C   UNL     1     -10.341  13.109  68.934  1.00  0.00    -0.068 C  
HETATM   17  C   UNL     1     -12.435  11.780  70.534  1.00  0.00    -0.317 A  
HETATM   18  C   UNL     1     -13.134  11.267  71.628  1.00  0.00    -0.513 A  
HETATM   19  C   UNL     1     -12.916   9.959  72.040  1.00  0.00    -0.518 A  
HETATM   20  C   UNL     1     -12.014   9.160  71.344  1.00  0.00    -0.410 A  
HETATM   21  C   UNL     1     -11.306   9.671  70.246  1.00  0.00    -0.257 A  
HETATM   22  I   UNL     1     -10.010   8.310  69.290  1.00  0.00    -0.210 I  
ENDBRANCH  12  13
ENDBRANCH  11  12
ENDBRANCH  10  11
ENDBRANCH   9  10
ENDBRANCH   8   9
ENDBRANCH   7   8
ENDBRANCH   6   7
ENDBRANCH   4   6
ENDBRANCH   3   4
ENDBRANCH   2   3
TORSDOF 10
ENDMDL
MODEL      245
REMARK 921   NORMALIZED FREE ENERGY PREDICTED BY IDOCK:   -3.28 KCAL/MOL
REMARK 922        TOTAL FREE ENERGY PREDICTED BY IDOCK:   -6.60 KCAL/MOL
REMARK 923 INTER-LIGAND FREE ENERGY PREDICTED BY IDOCK:   -6.00 KCAL/MOL
REMARK 924 INTRA-LIGAND FREE ENERGY PREDICTED BY IDOCK:   -0.61 KCAL/MOL
REMARK 927      BINDING AFFINITY PREDICTED BY RF-SCORE:    0.00 PKD
ROOT
HETATM    1  C   UNL     1     -12.360  11.953  63.348  1.00  0.00    -0.577 C  
HETATM    2  C   UNL     1     -10.887  12.114  63.676  1.00  0.00    -0.464 C  
ENDROOT
BRANCH   2   3
HETATM    3  O   UNL     1     -10.765  12.221  65.100  1.00  0.00    -0.275 OA 
BRANCH   3   4
HETATM    4  C   UNL     1     -10.948  13.480  65.590  1.00  0.00    -0.289 C  
HETATM    5  O   UNL     1     -10.393  14.486  65.173  1.00  0.00    -0.373 OA 
BRANCH   4   6
HETATM    6  C   UNL     1     -12.010  13.446  66.658  1.00  0.00    -0.452 C  
BRANCH   6   7
HETATM    7  C   UNL     1     -11.443  13.921  67.991  1.00  0.00    -0.339 C  
BRANCH   7   8
HETATM    8  C   UNL     1     -11.286  12.776  68.984  1.00  0.00    -0.346 C  
BRANCH   8   9
HETATM    9  C   UNL     1     -11.579  11.444  68.297  1.00  0.00    -0.376 C  
BRANCH   9  10
HETATM   10  C   UNL     1     -10.316  10.606  68.152  1.00  0.00    -0.203 C  
BRANCH  10  11
HETATM   11  C   UNL     1     -10.637   9.113  68.194  1.00  0.00    -0.235 C  
BRANCH  11  12
HETATM   12  C   UNL     1     -10.395   8.559  69.595  1.00  0.00    -0.218 C  
BRANCH  12  13
HETATM   13  C   UNL     1     -10.476   7.031  69.632  1.00  0.00    -0.238 C  
HETATM   14  C   UNL     1      -9.084   6.368  69.580  1.00  0.00    -0.138 C  
HETATM   15  C   UNL     1      -9.216   4.853  69.438  1.00  0.00    -0.160 A  
HETATM   16  C   UNL     1      -8.209   6.782  70.776  1.00  0.00    -0.123 C  
HETATM   17  C   UNL     1      -9.322   4.055  70.597  1.00  0.00    -0.217 A  
HETATM   18  C   UNL     1      -9.400   2.662  70.523  1.00  0.00    -0.213 A  
HETATM   19  C   UNL     1      -9.395   2.030  69.287  1.00  0.00    -0.176 A  
HETATM   20  C   UNL     1      -9.334   2.794  68.125  1.00  0.00    -0.258 A  
HETATM   21  C   UNL     1      -9.252   4.192  68.192  1.00  0.00    -0.147 A  
HETATM   22  I   UNL     1      -9.204   5.188  66.334  1.00  0.00    -0.176 I  
ENDBRANCH  12  13
ENDBRANCH  11  12
ENDBRANCH  10  11
ENDBRANCH   9  10
ENDBRANCH   8   9
ENDBRANCH   7   8
ENDBRANCH   6   7
ENDBRANCH   4   6
ENDBRANCH   3   4
ENDBRANCH   2   3
TORSDOF 10
ENDMDL
MODEL      246
REMARK 921   NORMALIZED FREE ENERGY PREDICTED BY IDOCK:   -3.28 KCAL/MOL
REMARK 922        TOTAL FREE ENERGY PREDICTED BY IDOCK:   -6.59 KCAL/MOL
REMARK 923 INTER-LIGAND FREE ENERGY PREDICTED BY IDOCK:   -4.99 KCAL/MOL
REMARK 924 INTRA-LIGAND FREE ENERGY PREDICTED BY IDOCK:   -1.60 KCAL/MOL
REMARK 927      BINDING AFFINITY PREDICTED BY RF-SCORE:    0.00 PKD
ROOT
HETATM    1  C   UNL     1      -6.507   8.672  69.707  1.00  0.00    -0.038 C  
HETATM    2  C   UNL     1      -7.255   9.514  70.725  1.00  0.00    -0.091 C  
ENDROOT
BRANCH   2   3
HETATM    3  O   UNL     1      -8.602   9.667  70.261  1.00  0.00    -0.203 OA 
BRANCH   3   4
HETATM    4  C   UNL     1      -9.512   8.875  70.896  1.00  0.00    -0.236 C  
HETATM    5  O   UNL     1      -9.506   8.610  72.089  1.00  0.00    -0.283 OA 
BRANCH   4   6
HETATM    6  C   UNL     1     -10.577   8.459  69.914  1.00  0.00    -0.228 C  
BRANCH   6   7
HETATM    7  C   UNL     1     -10.007   8.398  68.502  1.00  0.00    -0.203 C  
BRANCH   7   8
HETATM    8  C   UNL     1     -10.128   7.004  67.898  1.00  0.00    -0.204 C  
BRANCH   8   9
HETATM    9  C   UNL     1      -8.958   6.741  66.951  1.00  0.00    -0.133 C  
BRANCH   9  10
HETATM   10  C   UNL     1      -8.233   8.031  66.595  1.00  0.00    -0.108 C  
BRANCH  10  11
HETATM   11  C   UNL     1      -7.521   7.910  65.249  1.00  0.00    -0.081 C  
BRANCH  11  12
HETATM   12  C   UNL     1      -8.366   8.537  64.145  1.00  0.00    -0.102 C  
BRANCH  12  13
HETATM   13  C   UNL     1      -9.483   9.420  64.706  1.00  0.00    -0.088 C  
HETATM   14  C   UNL     1      -9.246  10.918  64.420  1.00  0.00    -0.223 C  
HETATM   15  C   UNL     1     -10.282  11.773  65.148  1.00  0.00    -0.309 A  
HETATM   16  C   UNL     1      -9.186  11.208  62.910  1.00  0.00    -0.359 C  
HETATM   17  C   UNL     1     -11.510  12.061  64.516  1.00  0.00    -0.385 A  
HETATM   18  C   UNL     1     -12.471  12.875  65.119  1.00  0.00    -0.561 A  
HETATM   19  C   UNL     1     -12.240  13.407  66.380  1.00  0.00    -0.435 A  
HETATM   20  C   UNL     1     -11.055  13.106  67.046  1.00  0.00    -0.305 A  
HETATM   21  C   UNL     1     -10.084  12.292  66.444  1.00  0.00    -0.226 A  
HETATM   22  I   UNL     1      -8.369  11.912  67.611  1.00  0.00    -0.187 I  
ENDBRANCH  12  13
ENDBRANCH  11  12
ENDBRANCH  10  11
ENDBRANCH   9  10
ENDBRANCH   8   9
ENDBRANCH   7   8
ENDBRANCH   6   7
ENDBRANCH   4   6
ENDBRANCH   3   4
ENDBRANCH   2   3
TORSDOF 10
ENDMDL
MODEL      247
REMARK 921   NORMALIZED FREE ENERGY PREDICTED BY IDOCK:   -3.28 KCAL/MOL
REMARK 922        TOTAL FREE ENERGY PREDICTED BY IDOCK:   -6.59 KCAL/MOL
REMARK 923 INTER-LIGAND FREE ENERGY PREDICTED BY IDOCK:   -5.85 KCAL/MOL
REMARK 924 INTRA-LIGAND FREE ENERGY PREDICTED BY IDOCK:   -0.74 KCAL/MOL
REMARK 927      BINDING AFFINITY PREDICTED BY RF-SCORE:    0.00 PKD
ROOT
HETATM    1  C   UNL     1     -10.035  19.776  66.386  1.00  0.00    -0.578 C  
HETATM    2  C   UNL     1     -10.219  19.953  67.882  1.00  0.00    -0.434 C  
ENDROOT
BRANCH   2   3
HETATM    3  O   UNL     1     -10.613  18.687  68.427  1.00  0.00    -0.277 OA 
BRANCH   3   4
HETATM    4  C   UNL     1      -9.595  17.792  68.571  1.00  0.00    -0.322 C  
HETATM    5  O   UNL     1      -8.472  18.060  68.973  1.00  0.00    -0.164 OA 
BRANCH   4   6
HETATM    6  C   UNL     1     -10.101  16.410  68.249  1.00  0.00    -0.248 C  
BRANCH   6   7
HETATM    7  C   UNL     1     -11.341  16.089  69.075  1.00  0.00    -0.363 C  
BRANCH   7   8
HETATM    8  C   UNL     1     -11.983  14.772  68.653  1.00  0.00    -0.292 C  
BRANCH   8   9
HETATM    9  C   UNL     1     -11.502  13.642  69.560  1.00  0.00    -0.324 C  
BRANCH   9  10
HETATM   10  C   UNL     1     -11.812  12.278  68.957  1.00  0.00    -0.358 C  
BRANCH  10  11
HETATM   11  C   UNL     1     -11.764  11.182  70.021  1.00  0.00    -0.438 C  
BRANCH  11  12
HETATM   12  C   UNL     1     -10.695  10.152  69.671  1.00  0.00    -0.295 C  
BRANCH  12  13
HETATM   13  C   UNL     1     -10.056  10.425  68.307  1.00  0.00    -0.174 C  
HETATM   14  C   UNL     1      -9.502   9.142  67.652  1.00  0.00    -0.164 C  
HETATM   15  C   UNL     1      -8.719   9.482  66.385  1.00  0.00    -0.149 A  
HETATM   16  C   UNL     1     -10.610   8.101  67.409  1.00  0.00    -0.325 C  
HETATM   17  C   UNL     1      -9.399   9.568  65.152  1.00  0.00    -0.316 A  
HETATM   18  C   UNL     1      -8.723   9.831  63.959  1.00  0.00    -0.235 A  
HETATM   19  C   UNL     1      -7.350  10.037  63.969  1.00  0.00    -0.132 A  
HETATM   20  C   UNL     1      -6.658  10.000  65.176  1.00  0.00    -0.115 A  
HETATM   21  C   UNL     1      -7.331   9.732  66.377  1.00  0.00    -0.095 A  
HETATM   22  I   UNL     1      -6.132   9.751  68.111  1.00  0.00    -0.050 I  
ENDBRANCH  12  13
ENDBRANCH  11  12
ENDBRANCH  10  11
ENDBRANCH   9  10
ENDBRANCH   8   9
ENDBRANCH   7   8
ENDBRANCH   6   7
ENDBRANCH   4   6
ENDBRANCH   3   4
ENDBRANCH   2   3
TORSDOF 10
ENDMDL
MODEL      248
REMARK 921   NORMALIZED FREE ENERGY PREDICTED BY IDOCK:   -3.28 KCAL/MOL
REMARK 922        TOTAL FREE ENERGY PREDICTED BY IDOCK:   -6.59 KCAL/MOL
REMARK 923 INTER-LIGAND FREE ENERGY PREDICTED BY IDOCK:   -5.32 KCAL/MOL
REMARK 924 INTRA-LIGAND FREE ENERGY PREDICTED BY IDOCK:   -1.27 KCAL/MOL
REMARK 927      BINDING AFFINITY PREDICTED BY RF-SCORE:    0.00 PKD
ROOT
HETATM    1  C   UNL     1      -7.914  14.672  67.140  1.00  0.00    -0.184 C  
HETATM    2  C   UNL     1      -9.173  15.478  66.881  1.00  0.00    -0.236 C  
ENDROOT
BRANCH   2   3
HETATM    3  O   UNL     1     -10.197  14.567  66.461  1.00  0.00    -0.267 OA 
BRANCH   3   4
HETATM    4  C   UNL     1     -11.381  14.704  67.123  1.00  0.00    -0.356 C  
HETATM    5  O   UNL     1     -11.519  15.221  68.222  1.00  0.00    -0.323 OA 
BRANCH   4   6
HETATM    6  C   UNL     1     -12.499  14.204  66.246  1.00  0.00    -0.395 C  
BRANCH   6   7
HETATM    7  C   UNL     1     -12.121  12.874  65.604  1.00  0.00    -0.511 C  
BRANCH   7   8
HETATM    8  C   UNL     1     -12.755  12.704  64.228  1.00  0.00    -0.394 C  
BRANCH   8   9
HETATM    9  C   UNL     1     -11.679  12.761  63.146  1.00  0.00    -0.256 C  
BRANCH   9  10
HETATM   10  C   UNL     1     -10.347  12.234  63.661  1.00  0.00    -0.463 C  
BRANCH  10  11
HETATM   11  C   UNL     1      -9.978  10.915  62.983  1.00  0.00    -0.317 C  
BRANCH  11  12
HETATM   12  C   UNL     1      -8.711  10.337  63.606  1.00  0.00    -0.211 C  
BRANCH  12  13
HETATM   13  C   UNL     1      -8.682  10.517  65.125  1.00  0.00    -0.197 C  
HETATM   14  C   UNL     1      -7.566   9.685  65.793  1.00  0.00    -0.103 C  
HETATM   15  C   UNL     1      -7.685   9.753  67.315  1.00  0.00    -0.095 A  
HETATM   16  C   UNL     1      -6.171  10.090  65.285  1.00  0.00    -0.106 C  
HETATM   17  C   UNL     1      -7.041  10.794  68.015  1.00  0.00    -0.081 A  
HETATM   18  C   UNL     1      -7.081  10.874  69.409  1.00  0.00    -0.131 A  
HETATM   19  C   UNL     1      -7.785   9.927  70.140  1.00  0.00    -0.188 A  
HETATM   20  C   UNL     1      -8.465   8.912  69.474  1.00  0.00    -0.128 A  
HETATM   21  C   UNL     1      -8.426   8.823  68.074  1.00  0.00    -0.126 A  
HETATM   22  I   UNL     1      -9.543   7.246  67.233  1.00  0.00    -0.250 I  
ENDBRANCH  12  13
ENDBRANCH  11  12
ENDBRANCH  10  11
ENDBRANCH   9  10
ENDBRANCH   8   9
ENDBRANCH   7   8
ENDBRANCH   6   7
ENDBRANCH   4   6
ENDBRANCH   3   4
ENDBRANCH   2   3
TORSDOF 10
ENDMDL
MODEL      249
REMARK 921   NORMALIZED FREE ENERGY PREDICTED BY IDOCK:   -3.26 KCAL/MOL
REMARK 922        TOTAL FREE ENERGY PREDICTED BY IDOCK:   -6.57 KCAL/MOL
REMARK 923 INTER-LIGAND FREE ENERGY PREDICTED BY IDOCK:   -6.01 KCAL/MOL
REMARK 924 INTRA-LIGAND FREE ENERGY PREDICTED BY IDOCK:   -0.57 KCAL/MOL
REMARK 927      BINDING AFFINITY PREDICTED BY RF-SCORE:    0.00 PKD
ROOT
HETATM    1  C   UNL     1      -8.750  18.551  67.305  1.00  0.00    -0.272 C  
HETATM    2  C   UNL     1      -8.340  18.441  68.762  1.00  0.00    -0.232 C  
ENDROOT
BRANCH   2   3
HETATM    3  O   UNL     1      -6.990  18.907  68.873  1.00  0.00    -0.291 OA 
BRANCH   3   4
HETATM    4  C   UNL     1      -6.048  18.018  68.446  1.00  0.00    -0.177 C  
HETATM    5  O   UNL     1      -5.598  17.959  67.312  1.00  0.00    -0.132 OA 
BRANCH   4   6
HETATM    6  C   UNL     1      -5.585  17.187  69.615  1.00  0.00    -0.206 C  
BRANCH   6   7
HETATM    7  C   UNL     1      -6.500  15.984  69.812  1.00  0.00    -0.164 C  
BRANCH   7   8
HETATM    8  C   UNL     1      -5.999  14.757  69.060  1.00  0.00    -0.092 C  
BRANCH   8   9
HETATM    9  C   UNL     1      -7.126  14.165  68.216  1.00  0.00    -0.112 C  
BRANCH   9  10
HETATM   10  C   UNL     1      -7.665  15.182  67.219  1.00  0.00    -0.241 C  
BRANCH  10  11
HETATM   11  C   UNL     1      -8.996  14.721  66.626  1.00  0.00    -0.286 C  
BRANCH  11  12
HETATM   12  C   UNL     1     -10.137  15.019  67.594  1.00  0.00    -0.231 C  
BRANCH  12  13
HETATM   13  C   UNL     1     -10.364  13.876  68.586  1.00  0.00    -0.237 C  
HETATM   14  C   UNL     1     -11.759  13.234  68.431  1.00  0.00    -0.389 C  
HETATM   15  C   UNL     1     -12.011  12.224  69.550  1.00  0.00    -0.333 A  
HETATM   16  C   UNL     1     -11.958  12.632  67.028  1.00  0.00    -0.330 C  
HETATM   17  C   UNL     1     -11.606  10.884  69.380  1.00  0.00    -0.387 A  
HETATM   18  C   UNL     1     -11.854   9.914  70.353  1.00  0.00    -0.310 A  
HETATM   19  C   UNL     1     -12.497  10.261  71.533  1.00  0.00    -0.524 A  
HETATM   20  C   UNL     1     -12.871  11.584  71.747  1.00  0.00    -0.441 A  
HETATM   21  C   UNL     1     -12.628  12.563  70.772  1.00  0.00    -0.212 A  
HETATM   22  I   UNL     1     -13.229  14.519  71.281  1.00  0.00    -0.405 I  
ENDBRANCH  12  13
ENDBRANCH  11  12
ENDBRANCH  10  11
ENDBRANCH   9  10
ENDBRANCH   8   9
ENDBRANCH   7   8
ENDBRANCH   6   7
ENDBRANCH   4   6
ENDBRANCH   3   4
ENDBRANCH   2   3
TORSDOF 10
ENDMDL
MODEL      250
REMARK 921   NORMALIZED FREE ENERGY PREDICTED BY IDOCK:   -3.25 KCAL/MOL
REMARK 922        TOTAL FREE ENERGY PREDICTED BY IDOCK:   -6.55 KCAL/MOL
REMARK 923 INTER-LIGAND FREE ENERGY PREDICTED BY IDOCK:   -5.71 KCAL/MOL
REMARK 924 INTRA-LIGAND FREE ENERGY PREDICTED BY IDOCK:   -0.84 KCAL/MOL
REMARK 927      BINDING AFFINITY PREDICTED BY RF-SCORE:    0.00 PKD
ROOT
HETATM    1  C   UNL     1     -13.410   7.830  71.785  1.00  0.00    -0.362 C  
HETATM    2  C   UNL     1     -12.014   8.283  72.171  1.00  0.00    -0.369 C  
ENDROOT
BRANCH   2   3
HETATM    3  O   UNL     1     -11.972   9.712  72.064  1.00  0.00    -0.332 OA 
BRANCH   3   4
HETATM    4  C   UNL     1     -11.486  10.176  70.878  1.00  0.00    -0.360 C  
HETATM    5  O   UNL     1     -10.626   9.628  70.205  1.00  0.00    -0.236 OA 
BRANCH   4   6
HETATM    6  C   UNL     1     -12.244  11.417  70.485  1.00  0.00    -0.478 C  
BRANCH   6   7
HETATM    7  C   UNL     1     -11.398  12.292  69.567  1.00  0.00    -0.258 C  
BRANCH   7   8
HETATM    8  C   UNL     1     -11.898  13.732  69.531  1.00  0.00    -0.394 C  
BRANCH   8   9
HETATM    9  C   UNL     1     -12.311  14.106  68.108  1.00  0.00    -0.007 C  
BRANCH   9  10
HETATM   10  C   UNL     1     -11.375  13.487  67.079  1.00  0.00    -0.348 C  
BRANCH  10  11
HETATM   11  C   UNL     1     -12.122  12.509  66.172  1.00  0.00    -0.357 C  
BRANCH  11  12
HETATM   12  C   UNL     1     -11.285  12.188  64.938  1.00  0.00    -0.374 C  
BRANCH  12  13
HETATM   13  C   UNL     1      -9.937  11.562  65.303  1.00  0.00    -0.302 C  
HETATM   14  C   UNL     1      -9.604  10.335  64.428  1.00  0.00    -0.378 C  
HETATM   15  C   UNL     1      -8.346   9.636  64.940  1.00  0.00    -0.152 A  
HETATM   16  C   UNL     1      -9.517  10.705  62.937  1.00  0.00    -0.367 C  
HETATM   17  C   UNL     1      -7.082  10.052  64.471  1.00  0.00    -0.139 A  
HETATM   18  C   UNL     1      -5.905   9.417  64.873  1.00  0.00    -0.065 A  
HETATM   19  C   UNL     1      -5.958   8.361  65.773  1.00  0.00    -0.048 A  
HETATM   20  C   UNL     1      -7.186   7.955  66.285  1.00  0.00    -0.074 A  
HETATM   21  C   UNL     1      -8.372   8.587  65.882  1.00  0.00    -0.138 A  
HETATM   22  I   UNL     1     -10.136   7.867  66.787  1.00  0.00    -0.177 I  
ENDBRANCH  12  13
ENDBRANCH  11  12
ENDBRANCH  10  11
ENDBRANCH   9  10
ENDBRANCH   8   9
ENDBRANCH   7   8
ENDBRANCH   6   7
ENDBRANCH   4   6
ENDBRANCH   3   4
ENDBRANCH   2   3
TORSDOF 10
ENDMDL
MODEL      251
REMARK 921   NORMALIZED FREE ENERGY PREDICTED BY IDOCK:   -3.25 KCAL/MOL
REMARK 922        TOTAL FREE ENERGY PREDICTED BY IDOCK:   -6.55 KCAL/MOL
REMARK 923 INTER-LIGAND FREE ENERGY PREDICTED BY IDOCK:   -6.44 KCAL/MOL
REMARK 924 INTRA-LIGAND FREE ENERGY PREDICTED BY IDOCK:   -0.11 KCAL/MOL
REMARK 927      BINDING AFFINITY PREDICTED BY RF-SCORE:    0.00 PKD
ROOT
HETATM    1  C   UNL     1      -5.769  15.493  68.410  1.00  0.00    -0.106 C  
HETATM    2  C   UNL     1      -6.982  16.403  68.353  1.00  0.00    -0.144 C  
ENDROOT
BRANCH   2   3
HETATM    3  O   UNL     1      -6.771  17.473  69.283  1.00  0.00    -0.248 OA 
BRANCH   3   4
HETATM    4  C   UNL     1      -7.016  18.716  68.780  1.00  0.00    -0.289 C  
HETATM    5  O   UNL     1      -7.593  19.615  69.374  1.00  0.00    -0.295 OA 
BRANCH   4   6
HETATM    6  C   UNL     1      -6.381  18.834  67.419  1.00  0.00    -0.191 C  
BRANCH   6   7
HETATM    7  C   UNL     1      -7.390  18.497  66.327  1.00  0.00    -0.290 C  
BRANCH   7   8
HETATM    8  C   UNL     1      -8.380  19.633  66.096  1.00  0.00    -0.352 C  
BRANCH   8   9
HETATM    9  C   UNL     1      -9.772  19.219  66.569  1.00  0.00    -0.432 C  
BRANCH   9  10
HETATM   10  C   UNL     1     -10.095  17.789  66.155  1.00  0.00    -0.308 C  
BRANCH  10  11
HETATM   11  C   UNL     1     -10.786  17.030  67.287  1.00  0.00    -0.123 C  
BRANCH  11  12
HETATM   12  C   UNL     1     -10.754  15.530  67.015  1.00  0.00    -0.321 C  
BRANCH  12  13
HETATM   13  C   UNL     1     -11.585  14.742  68.030  1.00  0.00    -0.367 C  
HETATM   14  C   UNL     1     -10.719  14.143  69.158  1.00  0.00    -0.216 C  
HETATM   15  C   UNL     1     -11.555  13.221  70.044  1.00  0.00    -0.212 A  
HETATM   16  C   UNL     1      -9.986  15.236  69.957  1.00  0.00    -0.125 C  
HETATM   17  C   UNL     1     -12.248  13.761  71.148  1.00  0.00    -0.362 A  
HETATM   18  C   UNL     1     -12.989  12.955  72.015  1.00  0.00    -0.385 A  
HETATM   19  C   UNL     1     -13.075  11.588  71.789  1.00  0.00    -0.503 A  
HETATM   20  C   UNL     1     -12.436  11.032  70.685  1.00  0.00    -0.465 A  
HETATM   21  C   UNL     1     -11.687  11.836  69.813  1.00  0.00    -0.335 A  
HETATM   22  I   UNL     1     -10.820  10.833  68.174  1.00  0.00    -0.369 I  
ENDBRANCH  12  13
ENDBRANCH  11  12
ENDBRANCH  10  11
ENDBRANCH   9  10
ENDBRANCH   8   9
ENDBRANCH   7   8
ENDBRANCH   6   7
ENDBRANCH   4   6
ENDBRANCH   3   4
ENDBRANCH   2   3
TORSDOF 10
ENDMDL
MODEL      252
REMARK 921   NORMALIZED FREE ENERGY PREDICTED BY IDOCK:   -3.25 KCAL/MOL
REMARK 922        TOTAL FREE ENERGY PREDICTED BY IDOCK:   -6.55 KCAL/MOL
REMARK 923 INTER-LIGAND FREE ENERGY PREDICTED BY IDOCK:   -5.76 KCAL/MOL
REMARK 924 INTRA-LIGAND FREE ENERGY PREDICTED BY IDOCK:   -0.79 KCAL/MOL
REMARK 927      BINDING AFFINITY PREDICTED BY RF-SCORE:    0.00 PKD
ROOT
HETATM    1  C   UNL     1     -10.825   5.879  69.295  1.00  0.00    -0.414 C  
HETATM    2  C   UNL     1     -10.971   7.045  70.256  1.00  0.00    -0.271 C  
ENDROOT
BRANCH   2   3
HETATM    3  O   UNL     1      -9.656   7.441  70.665  1.00  0.00    -0.171 OA 
BRANCH   3   4
HETATM    4  C   UNL     1      -9.581   8.698  71.187  1.00  0.00    -0.220 C  
HETATM    5  O   UNL     1      -9.434   8.962  72.372  1.00  0.00    -0.315 OA 
BRANCH   4   6
HETATM    6  C   UNL     1      -9.611   9.703  70.065  1.00  0.00    -0.281 C  
BRANCH   6   7
HETATM    7  C   UNL     1      -8.289   9.697  69.307  1.00  0.00    -0.137 C  
BRANCH   7   8
HETATM    8  C   UNL     1      -7.126  10.146  70.185  1.00  0.00    -0.162 C  
BRANCH   8   9
HETATM    9  C   UNL     1      -6.591  11.491  69.697  1.00  0.00    -0.112 C  
BRANCH   9  10
HETATM   10  C   UNL     1      -7.183  11.865  68.344  1.00  0.00    -0.091 C  
BRANCH  10  11
HETATM   11  C   UNL     1      -7.778  13.272  68.373  1.00  0.00    -0.138 C  
BRANCH  11  12
HETATM   12  C   UNL     1      -6.837  14.258  67.688  1.00  0.00    -0.201 C  
BRANCH  12  13
HETATM   13  C   UNL     1      -7.567  15.519  67.219  1.00  0.00    -0.252 C  
HETATM   14  C   UNL     1      -7.860  16.492  68.381  1.00  0.00    -0.187 C  
HETATM   15  C   UNL     1      -8.742  17.645  67.904  1.00  0.00    -0.245 A  
HETATM   16  C   UNL     1      -6.567  16.972  69.064  1.00  0.00    -0.216 C  
HETATM   17  C   UNL     1      -8.140  18.801  67.364  1.00  0.00    -0.265 A  
HETATM   18  C   UNL     1      -8.898  19.901  66.956  1.00  0.00    -0.413 A  
HETATM   19  C   UNL     1     -10.282  19.866  67.058  1.00  0.00    -0.588 A  
HETATM   20  C   UNL     1     -10.907  18.724  67.548  1.00  0.00    -0.396 A  
HETATM   21  C   UNL     1     -10.151  17.617  67.963  1.00  0.00    -0.343 A  
HETATM   22  I   UNL     1     -11.264  15.961  68.642  1.00  0.00    -0.343 I  
ENDBRANCH  12  13
ENDBRANCH  11  12
ENDBRANCH  10  11
ENDBRANCH   9  10
ENDBRANCH   8   9
ENDBRANCH   7   8
ENDBRANCH   6   7
ENDBRANCH   4   6
ENDBRANCH   3   4
ENDBRANCH   2   3
TORSDOF 10
ENDMDL
MODEL      253
REMARK 921   NORMALIZED FREE ENERGY PREDICTED BY IDOCK:   -3.24 KCAL/MOL
REMARK 922        TOTAL FREE ENERGY PREDICTED BY IDOCK:   -6.54 KCAL/MOL
REMARK 923 INTER-LIGAND FREE ENERGY PREDICTED BY IDOCK:   -5.49 KCAL/MOL
REMARK 924 INTRA-LIGAND FREE ENERGY PREDICTED BY IDOCK:   -1.05 KCAL/MOL
REMARK 927      BINDING AFFINITY PREDICTED BY RF-SCORE:    0.00 PKD
ROOT
HETATM    1  C   UNL     1      -6.380   8.310  72.610  1.00  0.00    -0.086 C  
HETATM    2  C   UNL     1      -6.622   8.196  71.116  1.00  0.00    -0.043 C  
ENDROOT
BRANCH   2   3
HETATM    3  O   UNL     1      -7.982   7.789  70.923  1.00  0.00    -0.094 OA 
BRANCH   3   4
HETATM    4  C   UNL     1      -8.900   8.781  71.095  1.00  0.00    -0.219 C  
HETATM    5  O   UNL     1      -9.735   8.822  71.986  1.00  0.00    -0.299 OA 
BRANCH   4   6
HETATM    6  C   UNL     1      -8.658   9.862  70.073  1.00  0.00    -0.196 C  
BRANCH   6   7
HETATM    7  C   UNL     1      -8.917   9.335  68.667  1.00  0.00    -0.132 C  
BRANCH   7   8
HETATM    8  C   UNL     1     -10.367   8.906  68.477  1.00  0.00    -0.229 C  
BRANCH   8   9
HETATM    9  C   UNL     1     -11.265  10.135  68.350  1.00  0.00    -0.238 C  
BRANCH   9  10
HETATM   10  C   UNL     1     -10.783  11.060  67.240  1.00  0.00    -0.312 C  
BRANCH  10  11
HETATM   11  C   UNL     1     -11.163  12.512  67.529  1.00  0.00    -0.342 C  
BRANCH  11  12
HETATM   12  C   UNL     1     -10.368  13.040  68.719  1.00  0.00    -0.146 C  
BRANCH  12  13
HETATM   13  C   UNL     1      -9.921  14.490  68.515  1.00  0.00    -0.238 C  
HETATM   14  C   UNL     1     -11.115  15.456  68.371  1.00  0.00    -0.301 C  
HETATM   15  C   UNL     1     -10.630  16.855  67.991  1.00  0.00    -0.367 A  
HETATM   16  C   UNL     1     -12.006  15.454  69.626  1.00  0.00    -0.366 C  
HETATM   17  C   UNL     1     -10.282  17.768  69.009  1.00  0.00    -0.290 A  
HETATM   18  C   UNL     1      -9.877  19.072  68.716  1.00  0.00    -0.485 A  
HETATM   19  C   UNL     1      -9.788  19.492  67.396  1.00  0.00    -0.470 A  
HETATM   20  C   UNL     1     -10.085  18.601  66.369  1.00  0.00    -0.435 A  
HETATM   21  C   UNL     1     -10.496  17.291  66.657  1.00  0.00    -0.257 A  
HETATM   22  I   UNL     1     -10.868  16.069  64.979  1.00  0.00     0.059 I  
ENDBRANCH  12  13
ENDBRANCH  11  12
ENDBRANCH  10  11
ENDBRANCH   9  10
ENDBRANCH   8   9
ENDBRANCH   7   8
ENDBRANCH   6   7
ENDBRANCH   4   6
ENDBRANCH   3   4
ENDBRANCH   2   3
TORSDOF 10
ENDMDL
MODEL      254
REMARK 921   NORMALIZED FREE ENERGY PREDICTED BY IDOCK:   -3.24 KCAL/MOL
REMARK 922        TOTAL FREE ENERGY PREDICTED BY IDOCK:   -6.53 KCAL/MOL
REMARK 923 INTER-LIGAND FREE ENERGY PREDICTED BY IDOCK:   -5.71 KCAL/MOL
REMARK 924 INTRA-LIGAND FREE ENERGY PREDICTED BY IDOCK:   -0.82 KCAL/MOL
REMARK 927      BINDING AFFINITY PREDICTED BY RF-SCORE:    0.00 PKD
ROOT
HETATM    1  C   UNL     1      -8.678  14.091  67.524  1.00  0.00    -0.201 C  
HETATM    2  C   UNL     1     -10.130  13.651  67.465  1.00  0.00    -0.237 C  
ENDROOT
BRANCH   2   3
HETATM    3  O   UNL     1     -10.407  12.896  68.651  1.00  0.00    -0.240 OA 
BRANCH   3   4
HETATM    4  C   UNL     1     -11.652  13.096  69.170  1.00  0.00    -0.316 C  
HETATM    5  O   UNL     1     -12.285  14.139  69.103  1.00  0.00    -0.335 OA 
BRANCH   4   6
HETATM    6  C   UNL     1     -12.158  11.802  69.752  1.00  0.00    -0.338 C  
BRANCH   6   7
HETATM    7  C   UNL     1     -12.545  11.989  71.215  1.00  0.00    -0.357 C  
BRANCH   7   8
HETATM    8  C   UNL     1     -13.173  10.732  71.804  1.00  0.00    -0.523 C  
BRANCH   8   9
HETATM    9  C   UNL     1     -12.448   9.492  71.284  1.00  0.00    -0.432 C  
BRANCH   9  10
HETATM   10  C   UNL     1     -12.438   8.380  72.325  1.00  0.00    -0.417 C  
BRANCH  10  11
HETATM   11  C   UNL     1     -11.009   7.993  72.704  1.00  0.00    -0.448 C  
BRANCH  11  12
HETATM   12  C   UNL     1     -10.754   6.525  72.378  1.00  0.00    -0.253 C  
BRANCH  12  13
HETATM   13  C   UNL     1      -9.707   6.353  71.275  1.00  0.00    -0.189 C  
HETATM   14  C   UNL     1     -10.272   5.624  70.038  1.00  0.00    -0.321 C  
HETATM   15  C   UNL     1      -9.156   5.315  69.042  1.00  0.00    -0.141 A  
HETATM   16  C   UNL     1     -11.442   6.398  69.404  1.00  0.00    -0.374 C  
HETATM   17  C   UNL     1      -8.816   6.272  68.062  1.00  0.00    -0.112 A  
HETATM   18  C   UNL     1      -7.835   6.020  67.101  1.00  0.00    -0.102 A  
HETATM   19  C   UNL     1      -7.152   4.812  67.104  1.00  0.00    -0.072 A  
HETATM   20  C   UNL     1      -7.436   3.865  68.084  1.00  0.00    -0.062 A  
HETATM   21  C   UNL     1      -8.423   4.110  69.050  1.00  0.00    -0.081 A  
HETATM   22  I   UNL     1      -8.695   2.581  70.477  1.00  0.00    -0.156 I  
ENDBRANCH  12  13
ENDBRANCH  11  12
ENDBRANCH  10  11
ENDBRANCH   9  10
ENDBRANCH   8   9
ENDBRANCH   7   8
ENDBRANCH   6   7
ENDBRANCH   4   6
ENDBRANCH   3   4
ENDBRANCH   2   3
TORSDOF 10
ENDMDL
MODEL      255
REMARK 921   NORMALIZED FREE ENERGY PREDICTED BY IDOCK:   -3.23 KCAL/MOL
REMARK 922        TOTAL FREE ENERGY PREDICTED BY IDOCK:   -6.52 KCAL/MOL
REMARK 923 INTER-LIGAND FREE ENERGY PREDICTED BY IDOCK:   -5.66 KCAL/MOL
REMARK 924 INTRA-LIGAND FREE ENERGY PREDICTED BY IDOCK:   -0.86 KCAL/MOL
REMARK 927      BINDING AFFINITY PREDICTED BY RF-SCORE:    0.00 PKD
ROOT
HETATM    1  C   UNL     1     -12.293  15.994  71.407  1.00  0.00    -0.393 C  
HETATM    2  C   UNL     1     -11.787  14.590  71.682  1.00  0.00    -0.169 C  
ENDROOT
BRANCH   2   3
HETATM    3  O   UNL     1     -12.643  13.673  70.989  1.00  0.00    -0.345 OA 
BRANCH   3   4
HETATM    4  C   UNL     1     -13.314  12.805  71.797  1.00  0.00    -0.342 C  
HETATM    5  O   UNL     1     -14.233  13.105  72.545  1.00  0.00    -0.654 OA 
BRANCH   4   6
HETATM    6  C   UNL     1     -12.809  11.407  71.550  1.00  0.00    -0.508 C  
BRANCH   6   7
HETATM    7  C   UNL     1     -12.208  11.295  70.153  1.00  0.00    -0.410 C  
BRANCH   7   8
HETATM    8  C   UNL     1     -11.099  10.252  70.092  1.00  0.00    -0.385 C  
BRANCH   8   9
HETATM    9  C   UNL     1     -10.555  10.149  68.668  1.00  0.00    -0.236 C  
BRANCH   9  10
HETATM   10  C   UNL     1      -9.150  10.728  68.568  1.00  0.00    -0.170 C  
BRANCH  10  11
HETATM   11  C   UNL     1      -9.175  12.253  68.655  1.00  0.00    -0.005 C  
BRANCH  11  12
HETATM   12  C   UNL     1      -7.837  12.830  68.204  1.00  0.00    -0.146 C  
BRANCH  12  13
HETATM   13  C   UNL     1      -7.998  14.188  67.516  1.00  0.00    -0.202 C  
HETATM   14  C   UNL     1      -8.958  15.123  68.282  1.00  0.00    -0.175 C  
HETATM   15  C   UNL     1      -9.230  16.391  67.473  1.00  0.00    -0.199 A  
HETATM   16  C   UNL     1      -8.451  15.420  69.704  1.00  0.00    -0.124 C  
HETATM   17  C   UNL     1      -8.370  17.501  67.613  1.00  0.00    -0.215 A  
HETATM   18  C   UNL     1      -8.601  18.697  66.931  1.00  0.00    -0.284 A  
HETATM   19  C   UNL     1      -9.687  18.810  66.073  1.00  0.00    -0.161 A  
HETATM   20  C   UNL     1     -10.528  17.718  65.883  1.00  0.00    -0.251 A  
HETATM   21  C   UNL     1     -10.304  16.515  66.568  1.00  0.00    -0.305 A  
HETATM   22  I   UNL     1     -11.656  14.957  66.130  1.00  0.00     0.022 I  
ENDBRANCH  12  13
ENDBRANCH  11  12
ENDBRANCH  10  11
ENDBRANCH   9  10
ENDBRANCH   8   9
ENDBRANCH   7   8
ENDBRANCH   6   7
ENDBRANCH   4   6
ENDBRANCH   3   4
ENDBRANCH   2   3
TORSDOF 10
ENDMDL
MODEL      256
REMARK 921   NORMALIZED FREE ENERGY PREDICTED BY IDOCK:   -3.23 KCAL/MOL
REMARK 922        TOTAL FREE ENERGY PREDICTED BY IDOCK:   -6.52 KCAL/MOL
REMARK 923 INTER-LIGAND FREE ENERGY PREDICTED BY IDOCK:   -5.44 KCAL/MOL
REMARK 924 INTRA-LIGAND FREE ENERGY PREDICTED BY IDOCK:   -1.08 KCAL/MOL
REMARK 927      BINDING AFFINITY PREDICTED BY RF-SCORE:    0.00 PKD
ROOT
HETATM    1  C   UNL     1      -5.590  18.025  67.366  1.00  0.00    -0.145 C  
HETATM    2  C   UNL     1      -6.787  17.241  66.861  1.00  0.00    -0.196 C  
ENDROOT
BRANCH   2   3
HETATM    3  O   UNL     1      -7.288  17.909  65.697  1.00  0.00    -0.533 OA 
BRANCH   3   4
HETATM    4  C   UNL     1      -8.115  18.960  65.959  1.00  0.00    -0.137 C  
HETATM    5  O   UNL     1      -7.787  20.138  65.940  1.00  0.00    -0.298 OA 
BRANCH   4   6
HETATM    6  C   UNL     1      -9.514  18.447  66.182  1.00  0.00    -0.164 C  
BRANCH   6   7
HETATM    7  C   UNL     1     -10.284  19.380  67.110  1.00  0.00    -0.521 C  
BRANCH   7   8
HETATM    8  C   UNL     1     -10.339  18.847  68.537  1.00  0.00    -0.312 C  
BRANCH   8   9
HETATM    9  C   UNL     1     -10.047  17.348  68.548  1.00  0.00    -0.352 C  
BRANCH   9  10
HETATM   10  C   UNL     1     -11.330  16.535  68.664  1.00  0.00    -0.237 C  
BRANCH  10  11
HETATM   11  C   UNL     1     -11.107  15.089  68.224  1.00  0.00    -0.292 C  
BRANCH  11  12
HETATM   12  C   UNL     1      -9.666  14.892  67.763  1.00  0.00    -0.212 C  
BRANCH  12  13
HETATM   13  C   UNL     1      -9.199  13.445  67.937  1.00  0.00    -0.216 C  
HETATM   14  C   UNL     1     -10.043  12.453  67.109  1.00  0.00    -0.221 C  
HETATM   15  C   UNL     1      -9.663  11.012  67.448  1.00  0.00    -0.189 A  
HETATM   16  C   UNL     1      -9.962  12.753  65.602  1.00  0.00    -0.249 C  
HETATM   17  C   UNL     1      -8.614  10.387  66.740  1.00  0.00    -0.125 A  
HETATM   18  C   UNL     1      -8.258   9.059  66.980  1.00  0.00    -0.109 A  
HETATM   19  C   UNL     1      -8.927   8.324  67.949  1.00  0.00    -0.134 A  
HETATM   20  C   UNL     1      -9.937   8.926  68.693  1.00  0.00    -0.192 A  
HETATM   21  C   UNL     1     -10.302  10.259  68.454  1.00  0.00    -0.177 A  
HETATM   22  I   UNL     1     -11.827  11.019  69.698  1.00  0.00    -0.434 I  
ENDBRANCH  12  13
ENDBRANCH  11  12
ENDBRANCH  10  11
ENDBRANCH   9  10
ENDBRANCH   8   9
ENDBRANCH   7   8
ENDBRANCH   6   7
ENDBRANCH   4   6
ENDBRANCH   3   4
ENDBRANCH   2   3
TORSDOF 10
ENDMDL
MODEL      257
REMARK 921   NORMALIZED FREE ENERGY PREDICTED BY IDOCK:   -3.22 KCAL/MOL
REMARK 922        TOTAL FREE ENERGY PREDICTED BY IDOCK:   -6.50 KCAL/MOL
REMARK 923 INTER-LIGAND FREE ENERGY PREDICTED BY IDOCK:   -5.54 KCAL/MOL
REMARK 924 INTRA-LIGAND FREE ENERGY PREDICTED BY IDOCK:   -0.96 KCAL/MOL
REMARK 927      BINDING AFFINITY PREDICTED BY RF-SCORE:    0.00 PKD
ROOT
HETATM    1  C   UNL     1      -6.571   8.717  69.721  1.00  0.00    -0.041 C  
HETATM    2  C   UNL     1      -7.589   9.107  70.777  1.00  0.00    -0.133 C  
ENDROOT
BRANCH   2   3
HETATM    3  O   UNL     1      -8.860   9.247  70.130  1.00  0.00    -0.173 OA 
BRANCH   3   4
HETATM    4  C   UNL     1      -9.572   8.089  70.028  1.00  0.00    -0.171 C  
HETATM    5  O   UNL     1      -9.507   7.150  70.807  1.00  0.00    -0.164 OA 
BRANCH   4   6
HETATM    6  C   UNL     1     -10.519   8.192  68.860  1.00  0.00    -0.202 C  
BRANCH   6   7
HETATM    7  C   UNL     1     -10.192   9.416  68.013  1.00  0.00    -0.248 C  
BRANCH   7   8
HETATM    8  C   UNL     1      -9.995   9.057  66.544  1.00  0.00    -0.355 C  
BRANCH   8   9
HETATM    9  C   UNL     1      -9.192  10.149  65.841  1.00  0.00    -0.203 C  
BRANCH   9  10
HETATM   10  C   UNL     1      -9.495  11.523  66.425  1.00  0.00    -0.230 C  
BRANCH  10  11
HETATM   11  C   UNL     1     -10.561  12.247  65.603  1.00  0.00    -0.295 C  
BRANCH  11  12
HETATM   12  C   UNL     1     -11.675  12.756  66.513  1.00  0.00    -0.463 C  
BRANCH  12  13
HETATM   13  C   UNL     1     -11.274  14.033  67.256  1.00  0.00    -0.328 C  
HETATM   14  C   UNL     1     -10.443  14.988  66.373  1.00  0.00    -0.296 C  
HETATM   15  C   UNL     1      -9.914  16.158  67.200  1.00  0.00    -0.251 A  
HETATM   16  C   UNL     1     -11.227  15.442  65.129  1.00  0.00    -0.354 C  
HETATM   17  C   UNL     1     -10.705  17.317  67.347  1.00  0.00    -0.247 A  
HETATM   18  C   UNL     1     -10.249  18.432  68.054  1.00  0.00    -0.406 A  
HETATM   19  C   UNL     1      -8.997  18.410  68.653  1.00  0.00    -0.308 A  
HETATM   20  C   UNL     1      -8.211  17.265  68.561  1.00  0.00    -0.267 A  
HETATM   21  C   UNL     1      -8.662  16.144  67.848  1.00  0.00    -0.174 A  
HETATM   22  I   UNL     1      -7.357  14.487  67.845  1.00  0.00    -0.225 I  
ENDBRANCH  12  13
ENDBRANCH  11  12
ENDBRANCH  10  11
ENDBRANCH   9  10
ENDBRANCH   8   9
ENDBRANCH   7   8
ENDBRANCH   6   7
ENDBRANCH   4   6
ENDBRANCH   3   4
ENDBRANCH   2   3
TORSDOF 10
ENDMDL
MODEL      258
REMARK 921   NORMALIZED FREE ENERGY PREDICTED BY IDOCK:   -3.22 KCAL/MOL
REMARK 922        TOTAL FREE ENERGY PREDICTED BY IDOCK:   -6.50 KCAL/MOL
REMARK 923 INTER-LIGAND FREE ENERGY PREDICTED BY IDOCK:   -5.91 KCAL/MOL
REMARK 924 INTRA-LIGAND FREE ENERGY PREDICTED BY IDOCK:   -0.59 KCAL/MOL
REMARK 927      BINDING AFFINITY PREDICTED BY RF-SCORE:    0.00 PKD
ROOT
HETATM    1  C   UNL     1      -8.875  19.714  66.203  1.00  0.00    -0.367 C  
HETATM    2  C   UNL     1      -7.378  19.485  66.294  1.00  0.00    -0.268 C  
ENDROOT
BRANCH   2   3
HETATM    3  O   UNL     1      -6.847  20.434  67.227  1.00  0.00    -0.232 OA 
BRANCH   3   4
HETATM    4  C   UNL     1      -6.745  19.974  68.506  1.00  0.00    -0.307 C  
HETATM    5  O   UNL     1      -7.670  19.888  69.301  1.00  0.00    -0.206 OA 
BRANCH   4   6
HETATM    6  C   UNL     1      -5.336  19.499  68.751  1.00  0.00    -0.212 C  
BRANCH   6   7
HETATM    7  C   UNL     1      -5.234  17.994  68.535  1.00  0.00    -0.155 C  
BRANCH   7   8
HETATM    8  C   UNL     1      -6.377  17.243  69.209  1.00  0.00    -0.239 C  
BRANCH   8   9
HETATM    9  C   UNL     1      -6.967  16.215  68.245  1.00  0.00    -0.126 C  
BRANCH   9  10
HETATM   10  C   UNL     1      -7.644  15.076  68.996  1.00  0.00    -0.160 C  
BRANCH  10  11
HETATM   11  C   UNL     1      -9.115  15.392  69.265  1.00  0.00    -0.260 C  
BRANCH  11  12
HETATM   12  C   UNL     1      -9.738  16.081  68.055  1.00  0.00    -0.217 C  
BRANCH  12  13
HETATM   13  C   UNL     1      -9.849  15.141  66.852  1.00  0.00    -0.243 C  
HETATM   14  C   UNL     1     -10.694  13.887  67.163  1.00  0.00    -0.282 C  
HETATM   15  C   UNL     1     -10.630  12.897  66.001  1.00  0.00    -0.287 A  
HETATM   16  C   UNL     1     -12.135  14.253  67.558  1.00  0.00    -0.347 C  
HETATM   17  C   UNL     1     -11.560  13.005  64.946  1.00  0.00    -0.362 A  
HETATM   18  C   UNL     1     -11.574  12.098  63.884  1.00  0.00    -0.532 A  
HETATM   19  C   UNL     1     -10.643  11.069  63.838  1.00  0.00    -0.382 A  
HETATM   20  C   UNL     1      -9.687  10.961  64.843  1.00  0.00    -0.318 A  
HETATM   21  C   UNL     1      -9.671  11.867  65.914  1.00  0.00    -0.238 A  
HETATM   22  I   UNL     1      -8.131  11.576  67.325  1.00  0.00    -0.171 I  
ENDBRANCH  12  13
ENDBRANCH  11  12
ENDBRANCH  10  11
ENDBRANCH   9  10
ENDBRANCH   8   9
ENDBRANCH   7   8
ENDBRANCH   6   7
ENDBRANCH   4   6
ENDBRANCH   3   4
ENDBRANCH   2   3
TORSDOF 10
ENDMDL
MODEL      259
REMARK 921   NORMALIZED FREE ENERGY PREDICTED BY IDOCK:   -3.22 KCAL/MOL
REMARK 922        TOTAL FREE ENERGY PREDICTED BY IDOCK:   -6.49 KCAL/MOL
REMARK 923 INTER-LIGAND FREE ENERGY PREDICTED BY IDOCK:   -5.01 KCAL/MOL
REMARK 924 INTRA-LIGAND FREE ENERGY PREDICTED BY IDOCK:   -1.48 KCAL/MOL
REMARK 927      BINDING AFFINITY PREDICTED BY RF-SCORE:    0.00 PKD
ROOT
HETATM    1  C   UNL     1      -7.615   5.258  67.780  1.00  0.00    -0.087 C  
HETATM    2  C   UNL     1      -7.317   5.925  66.450  1.00  0.00    -0.078 C  
ENDROOT
BRANCH   2   3
HETATM    3  O   UNL     1      -7.546   7.331  66.605  1.00  0.00    -0.089 OA 
BRANCH   3   4
HETATM    4  C   UNL     1      -8.760   7.760  66.155  1.00  0.00    -0.156 C  
HETATM    5  O   UNL     1      -9.841   7.416  66.609  1.00  0.00    -0.209 OA 
BRANCH   4   6
HETATM    6  C   UNL     1      -8.552   8.794  65.079  1.00  0.00    -0.196 C  
BRANCH   6   7
HETATM    7  C   UNL     1      -9.546   9.938  65.239  1.00  0.00    -0.361 C  
BRANCH   7   8
HETATM    8  C   UNL     1      -8.868  11.220  65.709  1.00  0.00    -0.154 C  
BRANCH   8   9
HETATM    9  C   UNL     1      -9.808  12.409  65.518  1.00  0.00    -0.215 C  
BRANCH   9  10
HETATM   10  C   UNL     1     -11.266  11.967  65.510  1.00  0.00    -0.353 C  
BRANCH  10  11
HETATM   11  C   UNL     1     -12.123  12.879  66.387  1.00  0.00    -0.400 C  
BRANCH  11  12
HETATM   12  C   UNL     1     -11.810  12.643  67.861  1.00  0.00    -0.388 C  
BRANCH  12  13
HETATM   13  C   UNL     1     -11.468  11.180  68.150  1.00  0.00    -0.373 C  
HETATM   14  C   UNL     1     -11.087  10.947  69.627  1.00  0.00    -0.328 C  
HETATM   15  C   UNL     1     -10.582   9.520  69.833  1.00  0.00    -0.269 A  
HETATM   16  C   UNL     1     -12.239  11.316  70.579  1.00  0.00    -0.474 C  
HETATM   17  C   UNL     1     -11.504   8.494  70.126  1.00  0.00     0.002 A  
HETATM   18  C   UNL     1     -11.089   7.182  70.367  1.00  0.00    -0.309 A  
HETATM   19  C   UNL     1      -9.741   6.856  70.301  1.00  0.00    -0.176 A  
HETATM   20  C   UNL     1      -8.812   7.839  69.972  1.00  0.00    -0.142 A  
HETATM   21  C   UNL     1      -9.222   9.159  69.732  1.00  0.00    -0.171 A  
HETATM   22  I   UNL     1      -7.685  10.505  69.212  1.00  0.00    -0.084 I  
ENDBRANCH  12  13
ENDBRANCH  11  12
ENDBRANCH  10  11
ENDBRANCH   9  10
ENDBRANCH   8   9
ENDBRANCH   7   8
ENDBRANCH   6   7
ENDBRANCH   4   6
ENDBRANCH   3   4
ENDBRANCH   2   3
TORSDOF 10
ENDMDL
MODEL      260
REMARK 921   NORMALIZED FREE ENERGY PREDICTED BY IDOCK:   -3.21 KCAL/MOL
REMARK 922        TOTAL FREE ENERGY PREDICTED BY IDOCK:   -6.48 KCAL/MOL
REMARK 923 INTER-LIGAND FREE ENERGY PREDICTED BY IDOCK:   -5.12 KCAL/MOL
REMARK 924 INTRA-LIGAND FREE ENERGY PREDICTED BY IDOCK:   -1.36 KCAL/MOL
REMARK 927      BINDING AFFINITY PREDICTED BY RF-SCORE:    0.00 PKD
ROOT
HETATM    1  C   UNL     1     -12.582   7.006  71.651  1.00  0.00    -0.419 C  
HETATM    2  C   UNL     1     -11.722   7.865  72.559  1.00  0.00    -0.367 C  
ENDROOT
BRANCH   2   3
HETATM    3  O   UNL     1     -10.991   6.989  73.427  1.00  0.00    -0.304 OA 
BRANCH   3   4
HETATM    4  C   UNL     1      -9.637   7.124  73.358  1.00  0.00    -0.208 C  
HETATM    5  O   UNL     1      -8.947   7.732  74.163  1.00  0.00    -0.251 OA 
BRANCH   4   6
HETATM    6  C   UNL     1      -9.119   6.328  72.188  1.00  0.00    -0.141 C  
BRANCH   6   7
HETATM    7  C   UNL     1      -7.857   6.969  71.623  1.00  0.00    -0.098 C  
BRANCH   7   8
HETATM    8  C   UNL     1      -7.977   7.243  70.128  1.00  0.00    -0.112 C  
BRANCH   8   9
HETATM    9  C   UNL     1      -9.291   7.963  69.833  1.00  0.00    -0.156 C  
BRANCH   9  10
HETATM   10  C   UNL     1      -9.251   9.408  70.311  1.00  0.00    -0.285 C  
BRANCH  10  11
HETATM   11  C   UNL     1      -8.206  10.215  69.540  1.00  0.00    -0.176 C  
BRANCH  11  12
HETATM   12  C   UNL     1      -8.844  11.457  68.926  1.00  0.00    -0.010 C  
BRANCH  12  13
HETATM   13  C   UNL     1      -8.755  11.454  67.398  1.00  0.00    -0.145 C  
HETATM   14  C   UNL     1      -9.904  10.657  66.745  1.00  0.00    -0.240 C  
HETATM   15  C   UNL     1      -9.679  10.529  65.239  1.00  0.00    -0.328 A  
HETATM   16  C   UNL     1     -11.280  11.251  67.095  1.00  0.00    -0.344 C  
HETATM   17  C   UNL     1     -10.165  11.534  64.377  1.00  0.00    -0.350 A  
HETATM   18  C   UNL     1     -10.025  11.441  62.991  1.00  0.00    -0.354 A  
HETATM   19  C   UNL     1      -9.377  10.350  62.429  1.00  0.00    -0.294 A  
HETATM   20  C   UNL     1      -8.851   9.362  63.257  1.00  0.00    -0.202 A  
HETATM   21  C   UNL     1      -8.991   9.448  64.650  1.00  0.00    -0.187 A  
HETATM   22  I   UNL     1      -8.100   7.884  65.749  1.00  0.00    -0.148 I  
ENDBRANCH  12  13
ENDBRANCH  11  12
ENDBRANCH  10  11
ENDBRANCH   9  10
ENDBRANCH   8   9
ENDBRANCH   7   8
ENDBRANCH   6   7
ENDBRANCH   4   6
ENDBRANCH   3   4
ENDBRANCH   2   3
TORSDOF 10
ENDMDL
MODEL      261
REMARK 921   NORMALIZED FREE ENERGY PREDICTED BY IDOCK:   -3.20 KCAL/MOL
REMARK 922        TOTAL FREE ENERGY PREDICTED BY IDOCK:   -6.46 KCAL/MOL
REMARK 923 INTER-LIGAND FREE ENERGY PREDICTED BY IDOCK:   -6.19 KCAL/MOL
REMARK 924 INTRA-LIGAND FREE ENERGY PREDICTED BY IDOCK:   -0.27 KCAL/MOL
REMARK 927      BINDING AFFINITY PREDICTED BY RF-SCORE:    0.00 PKD
ROOT
HETATM    1  C   UNL     1     -12.457  15.994  74.181  1.00  0.00    -0.748 C  
HETATM    2  C   UNL     1     -12.088  15.609  72.760  1.00  0.00    -0.466 C  
ENDROOT
BRANCH   2   3
HETATM    3  O   UNL     1     -13.301  15.310  72.058  1.00  0.00    -0.361 OA 
BRANCH   3   4
HETATM    4  C   UNL     1     -13.538  13.980  71.879  1.00  0.00    -0.435 C  
HETATM    5  O   UNL     1     -14.112  13.252  72.676  1.00  0.00    -0.744 OA 
BRANCH   4   6
HETATM    6  C   UNL     1     -13.067  13.573  70.507  1.00  0.00     0.092 C  
BRANCH   6   7
HETATM    7  C   UNL     1     -12.085  12.410  70.602  1.00  0.00    -0.317 C  
BRANCH   7   8
HETATM    8  C   UNL     1     -12.766  11.069  70.356  1.00  0.00    -0.297 C  
BRANCH   8   9
HETATM    9  C   UNL     1     -12.718  10.218  71.624  1.00  0.00    -0.561 C  
BRANCH   9  10
HETATM   10  C   UNL     1     -11.426   9.415  71.704  1.00  0.00    -0.463 C  
BRANCH  10  11
HETATM   11  C   UNL     1     -11.707   7.914  71.667  1.00  0.00    -0.320 C  
BRANCH  11  12
HETATM   12  C   UNL     1     -10.432   7.130  71.962  1.00  0.00    -0.232 C  
BRANCH  12  13
HETATM   13  C   UNL     1      -9.482   7.103  70.763  1.00  0.00    -0.164 C  
HETATM   14  C   UNL     1      -9.839   5.988  69.757  1.00  0.00    -0.208 C  
HETATM   15  C   UNL     1      -8.767   5.880  68.674  1.00  0.00    -0.109 A  
HETATM   16  C   UNL     1     -11.254   6.172  69.180  1.00  0.00    -0.409 C  
HETATM   17  C   UNL     1      -8.872   6.674  67.512  1.00  0.00    -0.116 A  
HETATM   18  C   UNL     1      -7.944   6.580  66.473  1.00  0.00    -0.109 A  
HETATM   19  C   UNL     1      -6.873   5.703  66.576  1.00  0.00    -0.059 A  
HETATM   20  C   UNL     1      -6.719   4.937  67.728  1.00  0.00    -0.051 A  
HETATM   21  C   UNL     1      -7.650   5.025  68.773  1.00  0.00    -0.077 A  
HETATM   22  I   UNL     1      -7.241   3.820  70.455  1.00  0.00    -0.041 I  
ENDBRANCH  12  13
ENDBRANCH  11  12
ENDBRANCH  10  11
ENDBRANCH   9  10
ENDBRANCH   8   9
ENDBRANCH   7   8
ENDBRANCH   6   7
ENDBRANCH   4   6
ENDBRANCH   3   4
ENDBRANCH   2   3
TORSDOF 10
ENDMDL
MODEL      262
REMARK 921   NORMALIZED FREE ENERGY PREDICTED BY IDOCK:   -3.19 KCAL/MOL
REMARK 922        TOTAL FREE ENERGY PREDICTED BY IDOCK:   -6.46 KCAL/MOL
REMARK 923 INTER-LIGAND FREE ENERGY PREDICTED BY IDOCK:   -5.44 KCAL/MOL
REMARK 924 INTRA-LIGAND FREE ENERGY PREDICTED BY IDOCK:   -1.02 KCAL/MOL
REMARK 927      BINDING AFFINITY PREDICTED BY RF-SCORE:    0.00 PKD
ROOT
HETATM    1  C   UNL     1     -10.753  19.403  67.486  1.00  0.00    -0.570 C  
HETATM    2  C   UNL     1     -10.182  18.021  67.743  1.00  0.00    -0.378 C  
ENDROOT
BRANCH   2   3
HETATM    3  O   UNL     1      -9.099  18.160  68.671  1.00  0.00    -0.308 OA 
BRANCH   3   4
HETATM    4  C   UNL     1      -7.867  17.912  68.143  1.00  0.00    -0.266 C  
HETATM    5  O   UNL     1      -7.410  18.441  67.140  1.00  0.00    -0.202 OA 
BRANCH   4   6
HETATM    6  C   UNL     1      -7.125  16.960  69.045  1.00  0.00    -0.232 C  
BRANCH   6   7
HETATM    7  C   UNL     1      -7.747  15.570  68.981  1.00  0.00    -0.192 C  
BRANCH   7   8
HETATM    8  C   UNL     1      -7.615  14.948  67.595  1.00  0.00    -0.201 C  
BRANCH   8   9
HETATM    9  C   UNL     1      -8.985  14.498  67.091  1.00  0.00    -0.244 C  
BRANCH   9  10
HETATM   10  C   UNL     1      -9.510  13.316  67.895  1.00  0.00    -0.214 C  
BRANCH  10  11
HETATM   11  C   UNL     1     -11.010  13.124  67.676  1.00  0.00    -0.282 C  
BRANCH  11  12
HETATM   12  C   UNL     1     -11.309  11.674  67.308  1.00  0.00    -0.372 C  
BRANCH  12  13
HETATM   13  C   UNL     1     -10.039  10.822  67.248  1.00  0.00    -0.233 C  
HETATM   14  C   UNL     1      -9.961   9.976  65.959  1.00  0.00    -0.334 C  
HETATM   15  C   UNL     1      -8.777   9.012  66.022  1.00  0.00    -0.184 A  
HETATM   16  C   UNL     1      -9.946  10.858  64.698  1.00  0.00    -0.369 C  
HETATM   17  C   UNL     1      -7.510   9.438  65.570  1.00  0.00    -0.095 A  
HETATM   18  C   UNL     1      -6.408   8.582  65.564  1.00  0.00    -0.055 A  
HETATM   19  C   UNL     1      -6.536   7.280  66.029  1.00  0.00    -0.052 A  
HETATM   20  C   UNL     1      -7.763   6.844  66.520  1.00  0.00    -0.101 A  
HETATM   21  C   UNL     1      -8.875   7.698  66.526  1.00  0.00    -0.147 A  
HETATM   22  I   UNL     1     -10.642   6.882  67.338  1.00  0.00    -0.407 I  
ENDBRANCH  12  13
ENDBRANCH  11  12
ENDBRANCH  10  11
ENDBRANCH   9  10
ENDBRANCH   8   9
ENDBRANCH   7   8
ENDBRANCH   6   7
ENDBRANCH   4   6
ENDBRANCH   3   4
ENDBRANCH   2   3
TORSDOF 10
ENDMDL
MODEL      263
REMARK 921   NORMALIZED FREE ENERGY PREDICTED BY IDOCK:   -3.19 KCAL/MOL
REMARK 922        TOTAL FREE ENERGY PREDICTED BY IDOCK:   -6.46 KCAL/MOL
REMARK 923 INTER-LIGAND FREE ENERGY PREDICTED BY IDOCK:   -4.83 KCAL/MOL
REMARK 924 INTRA-LIGAND FREE ENERGY PREDICTED BY IDOCK:   -1.62 KCAL/MOL
REMARK 927      BINDING AFFINITY PREDICTED BY RF-SCORE:    0.00 PKD
ROOT
HETATM    1  C   UNL     1      -9.177   6.629  70.562  1.00  0.00    -0.156 C  
HETATM    2  C   UNL     1     -10.591   6.358  70.083  1.00  0.00    -0.240 C  
ENDROOT
BRANCH   2   3
HETATM    3  O   UNL     1     -10.507   5.522  68.922  1.00  0.00    -0.223 OA 
BRANCH   3   4
HETATM    4  C   UNL     1     -10.802   6.152  67.750  1.00  0.00    -0.325 C  
HETATM    5  O   UNL     1     -11.075   7.338  67.635  1.00  0.00    -0.139 OA 
BRANCH   4   6
HETATM    6  C   UNL     1     -10.645   5.177  66.611  1.00  0.00    -0.295 C  
BRANCH   6   7
HETATM    7  C   UNL     1      -9.608   4.115  66.957  1.00  0.00    -0.228 C  
BRANCH   7   8
HETATM    8  C   UNL     1      -8.218   4.489  66.455  1.00  0.00    -0.103 C  
BRANCH   8   9
HETATM    9  C   UNL     1      -8.324   5.216  65.116  1.00  0.00    -0.141 C  
BRANCH   9  10
HETATM   10  C   UNL     1      -7.610   6.561  65.157  1.00  0.00    -0.090 C  
BRANCH  10  11
HETATM   11  C   UNL     1      -6.939   6.786  66.512  1.00  0.00    -0.063 C  
BRANCH  11  12
HETATM   12  C   UNL     1      -7.395   8.112  67.113  1.00  0.00    -0.088 C  
BRANCH  12  13
HETATM   13  C   UNL     1      -8.484   8.782  66.272  1.00  0.00    -0.130 C  
HETATM   14  C   UNL     1      -8.283  10.308  66.160  1.00  0.00    -0.138 C  
HETATM   15  C   UNL     1      -9.481  10.958  65.469  1.00  0.00    -0.249 A  
HETATM   16  C   UNL     1      -6.943  10.659  65.488  1.00  0.00    -0.050 C  
HETATM   17  C   UNL     1      -9.495  11.066  64.063  1.00  0.00    -0.278 A  
HETATM   18  C   UNL     1     -10.545  11.692  63.386  1.00  0.00    -0.472 A  
HETATM   19  C   UNL     1     -11.620  12.208  64.097  1.00  0.00    -0.467 A  
HETATM   20  C   UNL     1     -11.654  12.078  65.482  1.00  0.00    -0.352 A  
HETATM   21  C   UNL     1     -10.600  11.454  66.168  1.00  0.00    -0.265 A  
HETATM   22  I   UNL     1     -10.836  11.314  68.258  1.00  0.00    -0.344 I  
ENDBRANCH  12  13
ENDBRANCH  11  12
ENDBRANCH  10  11
ENDBRANCH   9  10
ENDBRANCH   8   9
ENDBRANCH   7   8
ENDBRANCH   6   7
ENDBRANCH   4   6
ENDBRANCH   3   4
ENDBRANCH   2   3
TORSDOF 10
ENDMDL
MODEL      264
REMARK 921   NORMALIZED FREE ENERGY PREDICTED BY IDOCK:   -3.18 KCAL/MOL
REMARK 922        TOTAL FREE ENERGY PREDICTED BY IDOCK:   -6.44 KCAL/MOL
REMARK 923 INTER-LIGAND FREE ENERGY PREDICTED BY IDOCK:   -4.85 KCAL/MOL
REMARK 924 INTRA-LIGAND FREE ENERGY PREDICTED BY IDOCK:   -1.60 KCAL/MOL
REMARK 927      BINDING AFFINITY PREDICTED BY RF-SCORE:    0.00 PKD
ROOT
HETATM    1  C   UNL     1      -7.924   7.326  67.687  1.00  0.00    -0.114 C  
HETATM    2  C   UNL     1      -8.328   5.869  67.553  1.00  0.00    -0.105 C  
ENDROOT
BRANCH   2   3
HETATM    3  O   UNL     1      -9.272   5.580  68.591  1.00  0.00    -0.119 OA 
BRANCH   3   4
HETATM    4  C   UNL     1     -10.546   5.985  68.326  1.00  0.00    -0.261 C  
HETATM    5  O   UNL     1     -11.042   6.070  67.212  1.00  0.00    -0.303 OA 
BRANCH   4   6
HETATM    6  C   UNL     1     -11.272   6.219  69.626  1.00  0.00    -0.506 C  
BRANCH   6   7
HETATM    7  C   UNL     1     -10.705   7.438  70.343  1.00  0.00    -0.250 C  
BRANCH   7   8
HETATM    8  C   UNL     1     -11.803   8.376  70.830  1.00  0.00    -0.237 C  
BRANCH   8   9
HETATM    9  C   UNL     1     -11.186   9.643  71.418  1.00  0.00    -0.426 C  
BRANCH   9  10
HETATM   10  C   UNL     1     -11.937  10.887  70.963  1.00  0.00    -0.375 C  
BRANCH  10  11
HETATM   11  C   UNL     1     -12.244  10.829  69.467  1.00  0.00    -0.292 C  
BRANCH  11  12
HETATM   12  C   UNL     1     -11.316  11.765  68.700  1.00  0.00    -0.327 C  
BRANCH  12  13
HETATM   13  C   UNL     1     -10.075  11.040  68.173  1.00  0.00    -0.195 C  
HETATM   14  C   UNL     1      -9.157  11.971  67.353  1.00  0.00    -0.178 C  
HETATM   15  C   UNL     1      -8.030  11.173  66.699  1.00  0.00    -0.159 A  
HETATM   16  C   UNL     1      -8.641  13.152  68.195  1.00  0.00    -0.181 C  
HETATM   17  C   UNL     1      -6.830  10.959  67.408  1.00  0.00    -0.079 A  
HETATM   18  C   UNL     1      -5.754  10.275  66.839  1.00  0.00    -0.046 A  
HETATM   19  C   UNL     1      -5.856   9.768  65.551  1.00  0.00    -0.064 A  
HETATM   20  C   UNL     1      -7.043   9.927  64.842  1.00  0.00    -0.132 A  
HETATM   21  C   UNL     1      -8.126  10.616  65.407  1.00  0.00    -0.106 A  
HETATM   22  I   UNL     1      -9.855  10.729  64.205  1.00  0.00    -0.391 I  
ENDBRANCH  12  13
ENDBRANCH  11  12
ENDBRANCH  10  11
ENDBRANCH   9  10
ENDBRANCH   8   9
ENDBRANCH   7   8
ENDBRANCH   6   7
ENDBRANCH   4   6
ENDBRANCH   3   4
ENDBRANCH   2   3
TORSDOF 10
ENDMDL
MODEL      265
REMARK 921   NORMALIZED FREE ENERGY PREDICTED BY IDOCK:   -3.18 KCAL/MOL
REMARK 922        TOTAL FREE ENERGY PREDICTED BY IDOCK:   -6.43 KCAL/MOL
REMARK 923 INTER-LIGAND FREE ENERGY PREDICTED BY IDOCK:   -6.51 KCAL/MOL
REMARK 924 INTRA-LIGAND FREE ENERGY PREDICTED BY IDOCK:    0.08 KCAL/MOL
REMARK 927      BINDING AFFINITY PREDICTED BY RF-SCORE:    0.00 PKD
ROOT
HETATM    1  C   UNL     1      -6.432   8.632  69.756  1.00  0.00    -0.038 C  
HETATM    2  C   UNL     1      -7.242   8.909  71.010  1.00  0.00    -0.097 C  
ENDROOT
BRANCH   2   3
HETATM    3  O   UNL     1      -8.629   8.792  70.669  1.00  0.00    -0.144 OA 
BRANCH   3   4
HETATM    4  C   UNL     1      -9.106   7.515  70.672  1.00  0.00    -0.155 C  
HETATM    5  O   UNL     1      -8.676   6.603  71.363  1.00  0.00    -0.128 OA 
BRANCH   4   6
HETATM    6  C   UNL     1     -10.306   7.433  69.764  1.00  0.00    -0.226 C  
BRANCH   6   7
HETATM    7  C   UNL     1     -10.483   8.736  68.994  1.00  0.00    -0.220 C  
BRANCH   7   8
HETATM    8  C   UNL     1     -10.410   8.522  67.487  1.00  0.00    -0.334 C  
BRANCH   8   9
HETATM    9  C   UNL     1     -10.082   9.840  66.787  1.00  0.00    -0.295 C  
BRANCH   9  10
HETATM   10  C   UNL     1     -10.627  11.030  67.564  1.00  0.00    -0.266 C  
BRANCH  10  11
HETATM   11  C   UNL     1     -10.330  12.343  66.840  1.00  0.00    -0.240 C  
BRANCH  11  12
HETATM   12  C   UNL     1     -11.625  13.099  66.562  1.00  0.00    -0.402 C  
BRANCH  12  13
HETATM   13  C   UNL     1     -12.281  13.610  67.847  1.00  0.00    -0.185 C  
HETATM   14  C   UNL     1     -11.306  13.604  69.045  1.00  0.00    -0.333 C  
HETATM   15  C   UNL     1     -12.044  13.948  70.337  1.00  0.00    -0.421 A  
HETATM   16  C   UNL     1     -10.088  14.510  68.793  1.00  0.00    -0.239 C  
HETATM   17  C   UNL     1     -12.178  15.299  70.721  1.00  0.00    -0.411 A  
HETATM   18  C   UNL     1     -12.803  15.664  71.915  1.00  0.00    -0.522 A  
HETATM   19  C   UNL     1     -13.330  14.688  72.750  1.00  0.00    -0.593 A  
HETATM   20  C   UNL     1     -13.251  13.349  72.378  1.00  0.00    -0.564 A  
HETATM   21  C   UNL     1     -12.621  12.976  71.181  1.00  0.00    -0.297 A  
HETATM   22  I   UNL     1     -12.625  10.910  70.760  1.00  0.00    -0.399 I  
ENDBRANCH  12  13
ENDBRANCH  11  12
ENDBRANCH  10  11
ENDBRANCH   9  10
ENDBRANCH   8   9
ENDBRANCH   7   8
ENDBRANCH   6   7
ENDBRANCH   4   6
ENDBRANCH   3   4
ENDBRANCH   2   3
TORSDOF 10
ENDMDL
MODEL      266
REMARK 921   NORMALIZED FREE ENERGY PREDICTED BY IDOCK:   -3.17 KCAL/MOL
REMARK 922        TOTAL FREE ENERGY PREDICTED BY IDOCK:   -6.42 KCAL/MOL
REMARK 923 INTER-LIGAND FREE ENERGY PREDICTED BY IDOCK:   -5.60 KCAL/MOL
REMARK 924 INTRA-LIGAND FREE ENERGY PREDICTED BY IDOCK:   -0.82 KCAL/MOL
REMARK 927      BINDING AFFINITY PREDICTED BY RF-SCORE:    0.00 PKD
ROOT
HETATM    1  C   UNL     1     -10.550  11.219  64.801  1.00  0.00    -0.376 C  
HETATM    2  C   UNL     1      -9.834  12.288  65.607  1.00  0.00    -0.231 C  
ENDROOT
BRANCH   2   3
HETATM    3  O   UNL     1     -10.773  13.337  65.873  1.00  0.00    -0.271 OA 
BRANCH   3   4
HETATM    4  C   UNL     1     -10.923  13.640  67.194  1.00  0.00    -0.288 C  
HETATM    5  O   UNL     1     -10.447  14.619  67.751  1.00  0.00    -0.243 OA 
BRANCH   4   6
HETATM    6  C   UNL     1     -11.843  12.633  67.832  1.00  0.00    -0.388 C  
BRANCH   6   7
HETATM    7  C   UNL     1     -11.202  12.040  69.082  1.00  0.00    -0.305 C  
BRANCH   7   8
HETATM    8  C   UNL     1     -12.194  11.216  69.896  1.00  0.00    -0.385 C  
BRANCH   8   9
HETATM    9  C   UNL     1     -11.444  10.259  70.820  1.00  0.00    -0.438 C  
BRANCH   9  10
HETATM   10  C   UNL     1     -10.093   9.869  70.236  1.00  0.00    -0.295 C  
BRANCH  10  11
HETATM   11  C   UNL     1     -10.091   8.410  69.780  1.00  0.00    -0.197 C  
BRANCH  11  12
HETATM   12  C   UNL     1      -9.223   8.246  68.537  1.00  0.00    -0.136 C  
BRANCH  12  13
HETATM   13  C   UNL     1      -8.838   6.785  68.292  1.00  0.00    -0.125 C  
HETATM   14  C   UNL     1     -10.069   5.855  68.243  1.00  0.00    -0.203 C  
HETATM   15  C   UNL     1      -9.634   4.392  68.177  1.00  0.00    -0.200 A  
HETATM   16  C   UNL     1     -11.033   6.243  67.107  1.00  0.00    -0.453 C  
HETATM   17  C   UNL     1      -9.394   3.796  66.921  1.00  0.00    -0.214 A  
HETATM   18  C   UNL     1      -9.038   2.450  66.805  1.00  0.00    -0.118 A  
HETATM   19  C   UNL     1      -8.892   1.669  67.943  1.00  0.00    -0.146 A  
HETATM   20  C   UNL     1      -9.082   2.240  69.198  1.00  0.00    -0.183 A  
HETATM   21  C   UNL     1      -9.443   3.590  69.321  1.00  0.00    -0.163 A  
HETATM   22  I   UNL     1      -9.651   4.296  71.297  1.00  0.00    -0.244 I  
ENDBRANCH  12  13
ENDBRANCH  11  12
ENDBRANCH  10  11
ENDBRANCH   9  10
ENDBRANCH   8   9
ENDBRANCH   7   8
ENDBRANCH   6   7
ENDBRANCH   4   6
ENDBRANCH   3   4
ENDBRANCH   2   3
TORSDOF 10
ENDMDL
MODEL      267
REMARK 921   NORMALIZED FREE ENERGY PREDICTED BY IDOCK:   -3.17 KCAL/MOL
REMARK 922        TOTAL FREE ENERGY PREDICTED BY IDOCK:   -6.42 KCAL/MOL
REMARK 923 INTER-LIGAND FREE ENERGY PREDICTED BY IDOCK:   -5.52 KCAL/MOL
REMARK 924 INTRA-LIGAND FREE ENERGY PREDICTED BY IDOCK:   -0.90 KCAL/MOL
REMARK 927      BINDING AFFINITY PREDICTED BY RF-SCORE:    0.00 PKD
ROOT
HETATM    1  C   UNL     1     -10.671   5.302  72.168  1.00  0.00    -0.271 C  
HETATM    2  C   UNL     1     -10.868   5.679  70.711  1.00  0.00    -0.224 C  
ENDROOT
BRANCH   2   3
HETATM    3  O   UNL     1     -11.920   6.649  70.648  1.00  0.00    -0.395 OA 
BRANCH   3   4
HETATM    4  C   UNL     1     -11.495   7.945  70.642  1.00  0.00    -0.238 C  
HETATM    5  O   UNL     1     -10.774   8.446  69.793  1.00  0.00    -0.229 OA 
BRANCH   4   6
HETATM    6  C   UNL     1     -12.133   8.680  71.792  1.00  0.00    -0.403 C  
BRANCH   6   7
HETATM    7  C   UNL     1     -13.159   9.685  71.281  1.00  0.00    -0.437 C  
BRANCH   7   8
HETATM    8  C   UNL     1     -12.753  11.121  71.589  1.00  0.00    -0.466 C  
BRANCH   8   9
HETATM    9  C   UNL     1     -12.082  11.749  70.369  1.00  0.00    -0.440 C  
BRANCH   9  10
HETATM   10  C   UNL     1     -12.418  13.229  70.252  1.00  0.00    -0.255 C  
BRANCH  10  11
HETATM   11  C   UNL     1     -12.074  13.764  68.863  1.00  0.00    -0.348 C  
BRANCH  11  12
HETATM   12  C   UNL     1     -10.760  14.538  68.905  1.00  0.00    -0.259 C  
BRANCH  12  13
HETATM   13  C   UNL     1      -9.545  13.616  68.774  1.00  0.00    -0.017 C  
HETATM   14  C   UNL     1      -8.948  13.631  67.351  1.00  0.00    -0.218 C  
HETATM   15  C   UNL     1      -7.857  12.570  67.216  1.00  0.00    -0.160 A  
HETATM   16  C   UNL     1      -8.467  15.036  66.948  1.00  0.00    -0.269 C  
HETATM   17  C   UNL     1      -6.526  12.897  67.552  1.00  0.00    -0.162 A  
HETATM   18  C   UNL     1      -5.486  11.978  67.404  1.00  0.00    -0.116 A  
HETATM   19  C   UNL     1      -5.750  10.698  66.934  1.00  0.00    -0.057 A  
HETATM   20  C   UNL     1      -7.059  10.333  66.634  1.00  0.00    -0.108 A  
HETATM   21  C   UNL     1      -8.108  11.253  66.778  1.00  0.00    -0.159 A  
HETATM   22  I   UNL     1     -10.029  10.518  66.313  1.00  0.00    -0.288 I  
ENDBRANCH  12  13
ENDBRANCH  11  12
ENDBRANCH  10  11
ENDBRANCH   9  10
ENDBRANCH   8   9
ENDBRANCH   7   8
ENDBRANCH   6   7
ENDBRANCH   4   6
ENDBRANCH   3   4
ENDBRANCH   2   3
TORSDOF 10
ENDMDL
MODEL      268
REMARK 921   NORMALIZED FREE ENERGY PREDICTED BY IDOCK:   -3.16 KCAL/MOL
REMARK 922        TOTAL FREE ENERGY PREDICTED BY IDOCK:   -6.41 KCAL/MOL
REMARK 923 INTER-LIGAND FREE ENERGY PREDICTED BY IDOCK:   -4.87 KCAL/MOL
REMARK 924 INTRA-LIGAND FREE ENERGY PREDICTED BY IDOCK:   -1.53 KCAL/MOL
REMARK 927      BINDING AFFINITY PREDICTED BY RF-SCORE:    0.00 PKD
ROOT
HETATM    1  C   UNL     1      -5.827   9.569  65.669  1.00  0.00    -0.058 C  
HETATM    2  C   UNL     1      -7.063  10.441  65.548  1.00  0.00    -0.133 C  
ENDROOT
BRANCH   2   3
HETATM    3  O   UNL     1      -7.654  10.187  64.267  1.00  0.00    -0.140 OA 
BRANCH   3   4
HETATM    4  C   UNL     1      -8.946   9.755  64.316  1.00  0.00    -0.237 C  
HETATM    5  O   UNL     1      -9.435   9.096  65.222  1.00  0.00    -0.221 OA 
BRANCH   4   6
HETATM    6  C   UNL     1      -9.695  10.298  63.127  1.00  0.00    -0.220 C  
BRANCH   6   7
HETATM    7  C   UNL     1      -9.819  11.815  63.221  1.00  0.00    -0.402 C  
BRANCH   7   8
HETATM    8  C   UNL     1     -11.181  12.244  63.754  1.00  0.00    -0.510 C  
BRANCH   8   9
HETATM    9  C   UNL     1     -11.124  13.696  64.225  1.00  0.00    -0.332 C  
BRANCH   9  10
HETATM   10  C   UNL     1     -12.167  13.970  65.300  1.00  0.00    -0.451 C  
BRANCH  10  11
HETATM   11  C   UNL     1     -12.195  12.850  66.339  1.00  0.00    -0.301 C  
BRANCH  11  12
HETATM   12  C   UNL     1     -10.954  12.918  67.223  1.00  0.00    -0.289 C  
BRANCH  12  13
HETATM   13  C   UNL     1     -10.241  11.567  67.319  1.00  0.00    -0.229 C  
HETATM   14  C   UNL     1     -10.143  11.058  68.773  1.00  0.00    -0.214 C  
HETATM   15  C   UNL     1      -9.273   9.804  68.844  1.00  0.00    -0.155 A  
HETATM   16  C   UNL     1     -11.533  10.856  69.402  1.00  0.00    -0.373 C  
HETATM   17  C   UNL     1      -9.866   8.537  68.661  1.00  0.00    -0.180 A  
HETATM   18  C   UNL     1      -9.123   7.359  68.761  1.00  0.00    -0.131 A  
HETATM   19  C   UNL     1      -7.762   7.416  69.027  1.00  0.00    -0.118 A  
HETATM   20  C   UNL     1      -7.141   8.653  69.171  1.00  0.00    -0.063 A  
HETATM   21  C   UNL     1      -7.882   9.840  69.075  1.00  0.00    -0.087 A  
HETATM   22  I   UNL     1      -6.772  11.621  69.283  1.00  0.00    -0.025 I  
ENDBRANCH  12  13
ENDBRANCH  11  12
ENDBRANCH  10  11
ENDBRANCH   9  10
ENDBRANCH   8   9
ENDBRANCH   7   8
ENDBRANCH   6   7
ENDBRANCH   4   6
ENDBRANCH   3   4
ENDBRANCH   2   3
TORSDOF 10
ENDMDL
MODEL      269
REMARK 921   NORMALIZED FREE ENERGY PREDICTED BY IDOCK:   -3.16 KCAL/MOL
REMARK 922        TOTAL FREE ENERGY PREDICTED BY IDOCK:   -6.41 KCAL/MOL
REMARK 923 INTER-LIGAND FREE ENERGY PREDICTED BY IDOCK:   -5.52 KCAL/MOL
REMARK 924 INTRA-LIGAND FREE ENERGY PREDICTED BY IDOCK:   -0.89 KCAL/MOL
REMARK 927      BINDING AFFINITY PREDICTED BY RF-SCORE:    0.00 PKD
ROOT
HETATM    1  C   UNL     1      -5.962  20.336  68.441  1.00  0.00    -0.309 C  
HETATM    2  C   UNL     1      -6.278  18.894  68.091  1.00  0.00    -0.220 C  
ENDROOT
BRANCH   2   3
HETATM    3  O   UNL     1      -7.519  18.880  67.373  1.00  0.00    -0.228 OA 
BRANCH   3   4
HETATM    4  C   UNL     1      -7.467  18.249  66.166  1.00  0.00    -0.256 C  
HETATM    5  O   UNL     1      -6.714  18.541  65.249  1.00  0.00    -0.485 OA 
BRANCH   4   6
HETATM    6  C   UNL     1      -8.415  17.077  66.179  1.00  0.00    -0.262 C  
BRANCH   6   7
HETATM    7  C   UNL     1      -9.727  17.459  66.854  1.00  0.00    -0.286 C  
BRANCH   7   8
HETATM    8  C   UNL     1     -10.887  16.594  66.375  1.00  0.00    -0.012 C  
BRANCH   8   9
HETATM    9  C   UNL     1     -10.432  15.698  65.224  1.00  0.00    -0.439 C  
BRANCH   9  10
HETATM   10  C   UNL     1     -11.620  15.087  64.495  1.00  0.00    -0.346 C  
BRANCH  10  11
HETATM   11  C   UNL     1     -11.834  13.632  64.912  1.00  0.00    -0.398 C  
BRANCH  11  12
HETATM   12  C   UNL     1     -10.537  12.843  64.761  1.00  0.00    -0.362 C  
BRANCH  12  13
HETATM   13  C   UNL     1     -10.568  11.529  65.546  1.00  0.00    -0.334 C  
HETATM   14  C   UNL     1      -9.642  11.562  66.781  1.00  0.00    -0.203 C  
HETATM   15  C   UNL     1      -9.565  10.181  67.429  1.00  0.00    -0.180 A  
HETATM   16  C   UNL     1     -10.053  12.666  67.772  1.00  0.00    -0.220 C  
HETATM   17  C   UNL     1     -10.513   9.821  68.410  1.00  0.00    -0.250 A  
HETATM   18  C   UNL     1     -10.459   8.589  69.065  1.00  0.00    -0.216 A  
HETATM   19  C   UNL     1      -9.465   7.674  68.743  1.00  0.00    -0.152 A  
HETATM   20  C   UNL     1      -8.541   7.984  67.750  1.00  0.00    -0.128 A  
HETATM   21  C   UNL     1      -8.588   9.222  67.091  1.00  0.00    -0.128 A  
HETATM   22  I   UNL     1      -7.133   9.506  65.592  1.00  0.00    -0.106 I  
ENDBRANCH  12  13
ENDBRANCH  11  12
ENDBRANCH  10  11
ENDBRANCH   9  10
ENDBRANCH   8   9
ENDBRANCH   7   8
ENDBRANCH   6   7
ENDBRANCH   4   6
ENDBRANCH   3   4
ENDBRANCH   2   3
TORSDOF 10
ENDMDL
MODEL      270
REMARK 921   NORMALIZED FREE ENERGY PREDICTED BY IDOCK:   -3.14 KCAL/MOL
REMARK 922        TOTAL FREE ENERGY PREDICTED BY IDOCK:   -6.38 KCAL/MOL
REMARK 923 INTER-LIGAND FREE ENERGY PREDICTED BY IDOCK:   -5.11 KCAL/MOL
REMARK 924 INTRA-LIGAND FREE ENERGY PREDICTED BY IDOCK:   -1.27 KCAL/MOL
REMARK 927      BINDING AFFINITY PREDICTED BY RF-SCORE:    0.00 PKD
ROOT
HETATM    1  C   UNL     1      -8.581   9.146  65.115  1.00  0.00    -0.200 C  
HETATM    2  C   UNL     1      -8.239  10.541  64.623  1.00  0.00    -0.088 C  
ENDROOT
BRANCH   2   3
HETATM    3  O   UNL     1      -9.365  11.386  64.890  1.00  0.00    -0.203 OA 
BRANCH   3   4
HETATM    4  C   UNL     1      -9.940  11.930  63.780  1.00  0.00    -0.355 C  
HETATM    5  O   UNL     1      -9.720  11.580  62.629  1.00  0.00    -0.263 OA 
BRANCH   4   6
HETATM    6  C   UNL     1     -10.956  12.959  64.202  1.00  0.00    -0.442 C  
BRANCH   6   7
HETATM    7  C   UNL     1     -11.527  12.616  65.573  1.00  0.00    -0.375 C  
BRANCH   7   8
HETATM    8  C   UNL     1     -11.587  13.834  66.487  1.00  0.00    -0.386 C  
BRANCH   8   9
HETATM    9  C   UNL     1     -11.385  13.408  67.940  1.00  0.00    -0.322 C  
BRANCH   9  10
HETATM   10  C   UNL     1     -11.446  11.893  68.086  1.00  0.00    -0.384 C  
BRANCH  10  11
HETATM   11  C   UNL     1     -12.254  11.490  69.319  1.00  0.00    -0.245 C  
BRANCH  11  12
HETATM   12  C   UNL     1     -11.466  10.497  70.167  1.00  0.00    -0.405 C  
BRANCH  12  13
HETATM   13  C   UNL     1     -10.444   9.716  69.338  1.00  0.00    -0.236 C  
HETATM   14  C   UNL     1      -9.063   9.645  70.024  1.00  0.00    -0.269 C  
HETATM   15  C   UNL     1      -8.032   9.017  69.089  1.00  0.00    -0.101 A  
HETATM   16  C   UNL     1      -9.140   8.939  71.390  1.00  0.00    -0.318 C  
HETATM   17  C   UNL     1      -7.866   7.616  69.080  1.00  0.00    -0.119 A  
HETATM   18  C   UNL     1      -6.906   6.996  68.277  1.00  0.00    -0.074 A  
HETATM   19  C   UNL     1      -6.098   7.759  67.445  1.00  0.00    -0.049 A  
HETATM   20  C   UNL     1      -6.266   9.140  67.402  1.00  0.00    -0.058 A  
HETATM   21  C   UNL     1      -7.227   9.769  68.208  1.00  0.00    -0.078 A  
HETATM   22  I   UNL     1      -7.368  11.861  67.985  1.00  0.00    -0.136 I  
ENDBRANCH  12  13
ENDBRANCH  11  12
ENDBRANCH  10  11
ENDBRANCH   9  10
ENDBRANCH   8   9
ENDBRANCH   7   8
ENDBRANCH   6   7
ENDBRANCH   4   6
ENDBRANCH   3   4
ENDBRANCH   2   3
TORSDOF 10
ENDMDL
MODEL      271
REMARK 921   NORMALIZED FREE ENERGY PREDICTED BY IDOCK:   -3.14 KCAL/MOL
REMARK 922        TOTAL FREE ENERGY PREDICTED BY IDOCK:   -6.37 KCAL/MOL
REMARK 923 INTER-LIGAND FREE ENERGY PREDICTED BY IDOCK:   -4.88 KCAL/MOL
REMARK 924 INTRA-LIGAND FREE ENERGY PREDICTED BY IDOCK:   -1.50 KCAL/MOL
REMARK 927      BINDING AFFINITY PREDICTED BY RF-SCORE:    0.00 PKD
ROOT
HETATM    1  C   UNL     1      -7.279   6.750  73.118  1.00  0.00    -0.076 C  
HETATM    2  C   UNL     1      -7.905   6.805  71.736  1.00  0.00    -0.101 C  
ENDROOT
BRANCH   2   3
HETATM    3  O   UNL     1      -9.303   6.525  71.877  1.00  0.00    -0.149 OA 
BRANCH   3   4
HETATM    4  C   UNL     1     -10.015   7.503  72.506  1.00  0.00    -0.198 C  
HETATM    5  O   UNL     1     -10.484   7.420  73.632  1.00  0.00    -0.360 OA 
BRANCH   4   6
HETATM    6  C   UNL     1     -10.048   8.731  71.633  1.00  0.00    -0.390 C  
BRANCH   6   7
HETATM    7  C   UNL     1     -11.281   8.716  70.737  1.00  0.00    -0.298 C  
BRANCH   7   8
HETATM    8  C   UNL     1     -12.501   9.303  71.436  1.00  0.00    -0.418 C  
BRANCH   8   9
HETATM    9  C   UNL     1     -12.413  10.828  71.451  1.00  0.00    -0.478 C  
BRANCH   9  10
HETATM   10  C   UNL     1     -12.633  11.408  70.060  1.00  0.00    -0.125 C  
BRANCH  10  11
HETATM   11  C   UNL     1     -12.024  12.805  69.944  1.00  0.00    -0.368 C  
BRANCH  11  12
HETATM   12  C   UNL     1     -11.011  12.848  68.804  1.00  0.00    -0.292 C  
BRANCH  12  13
HETATM   13  C   UNL     1     -10.692  11.451  68.265  1.00  0.00    -0.240 C  
HETATM   14  C   UNL     1      -9.256  11.352  67.708  1.00  0.00    -0.159 C  
HETATM   15  C   UNL     1      -9.039  10.005  67.021  1.00  0.00    -0.159 A  
HETATM   16  C   UNL     1      -8.202  11.647  68.791  1.00  0.00    -0.055 C  
HETATM   17  C   UNL     1      -8.597   8.902  67.782  1.00  0.00    -0.125 A  
HETATM   18  C   UNL     1      -8.341   7.662  67.194  1.00  0.00    -0.121 A  
HETATM   19  C   UNL     1      -8.539   7.484  65.831  1.00  0.00    -0.165 A  
HETATM   20  C   UNL     1      -9.015   8.542  65.062  1.00  0.00    -0.004 A  
HETATM   21  C   UNL     1      -9.271   9.792  65.647  1.00  0.00    -0.199 A  
HETATM   22  I   UNL     1     -10.021  11.267  64.340  1.00  0.00    -0.398 I  
ENDBRANCH  12  13
ENDBRANCH  11  12
ENDBRANCH  10  11
ENDBRANCH   9  10
ENDBRANCH   8   9
ENDBRANCH   7   8
ENDBRANCH   6   7
ENDBRANCH   4   6
ENDBRANCH   3   4
ENDBRANCH   2   3
TORSDOF 10
ENDMDL
MODEL      272
REMARK 921   NORMALIZED FREE ENERGY PREDICTED BY IDOCK:   -3.14 KCAL/MOL
REMARK 922        TOTAL FREE ENERGY PREDICTED BY IDOCK:   -6.37 KCAL/MOL
REMARK 923 INTER-LIGAND FREE ENERGY PREDICTED BY IDOCK:   -5.50 KCAL/MOL
REMARK 924 INTRA-LIGAND FREE ENERGY PREDICTED BY IDOCK:   -0.87 KCAL/MOL
REMARK 927      BINDING AFFINITY PREDICTED BY RF-SCORE:    0.00 PKD
ROOT
HETATM    1  C   UNL     1     -13.046   8.437  71.796  1.00  0.00    -0.373 C  
HETATM    2  C   UNL     1     -11.650   7.864  71.635  1.00  0.00    -0.272 C  
ENDROOT
BRANCH   2   3
HETATM    3  O   UNL     1     -11.714   6.464  71.933  1.00  0.00    -0.304 OA 
BRANCH   3   4
HETATM    4  C   UNL     1     -10.571   5.945  72.465  1.00  0.00    -0.218 C  
HETATM    5  O   UNL     1     -10.019   6.347  73.478  1.00  0.00    -0.172 OA 
BRANCH   4   6
HETATM    6  C   UNL     1     -10.152   4.742  71.660  1.00  0.00    -0.264 C  
BRANCH   6   7
HETATM    7  C   UNL     1      -9.058   5.118  70.667  1.00  0.00    -0.178 C  
BRANCH   7   8
HETATM    8  C   UNL     1      -9.438   4.757  69.236  1.00  0.00    -0.221 C  
BRANCH   8   9
HETATM    9  C   UNL     1     -10.486   5.736  68.711  1.00  0.00    -0.312 C  
BRANCH   9  10
HETATM   10  C   UNL     1     -10.068   6.330  67.372  1.00  0.00    -0.191 C  
BRANCH  10  11
HETATM   11  C   UNL     1      -8.546   6.422  67.261  1.00  0.00    -0.110 C  
BRANCH  11  12
HETATM   12  C   UNL     1      -8.155   7.379  66.140  1.00  0.00    -0.117 C  
BRANCH  12  13
HETATM   13  C   UNL     1      -9.170   8.512  65.969  1.00  0.00    -0.262 C  
HETATM   14  C   UNL     1      -8.577   9.723  65.219  1.00  0.00    -0.168 C  
HETATM   15  C   UNL     1      -9.560  10.893  65.227  1.00  0.00    -0.276 A  
HETATM   16  C   UNL     1      -8.111   9.345  63.802  1.00  0.00    -0.155 C  
HETATM   17  C   UNL     1     -10.524  10.996  64.203  1.00  0.00    -0.434 A  
HETATM   18  C   UNL     1     -11.415  12.069  64.140  1.00  0.00    -0.460 A  
HETATM   19  C   UNL     1     -11.380  13.059  65.112  1.00  0.00    -0.320 A  
HETATM   20  C   UNL     1     -10.468  12.963  66.159  1.00  0.00    -0.283 A  
HETATM   21  C   UNL     1      -9.568  11.889  66.225  1.00  0.00    -0.229 A  
HETATM   22  I   UNL     1      -8.283  11.886  67.898  1.00  0.00    -0.181 I  
ENDBRANCH  12  13
ENDBRANCH  11  12
ENDBRANCH  10  11
ENDBRANCH   9  10
ENDBRANCH   8   9
ENDBRANCH   7   8
ENDBRANCH   6   7
ENDBRANCH   4   6
ENDBRANCH   3   4
ENDBRANCH   2   3
TORSDOF 10
ENDMDL
MODEL      273
REMARK 921   NORMALIZED FREE ENERGY PREDICTED BY IDOCK:   -3.13 KCAL/MOL
REMARK 922        TOTAL FREE ENERGY PREDICTED BY IDOCK:   -6.36 KCAL/MOL
REMARK 923 INTER-LIGAND FREE ENERGY PREDICTED BY IDOCK:   -5.22 KCAL/MOL
REMARK 924 INTRA-LIGAND FREE ENERGY PREDICTED BY IDOCK:   -1.14 KCAL/MOL
REMARK 927      BINDING AFFINITY PREDICTED BY RF-SCORE:    0.00 PKD
ROOT
HETATM    1  C   UNL     1      -7.522  13.844  67.456  1.00  0.00    -0.184 C  
HETATM    2  C   UNL     1      -8.773  13.502  68.244  1.00  0.00    -0.172 C  
ENDROOT
BRANCH   2   3
HETATM    3  O   UNL     1      -9.322  12.299  67.693  1.00  0.00    -0.175 OA 
BRANCH   3   4
HETATM    4  C   UNL     1     -10.592  12.017  68.102  1.00  0.00    -0.210 C  
HETATM    5  O   UNL     1     -10.969  11.996  69.265  1.00  0.00    -0.211 OA 
BRANCH   4   6
HETATM    6  C   UNL     1     -11.472  11.832  66.894  1.00  0.00    -0.364 C  
BRANCH   6   7
HETATM    7  C   UNL     1     -10.628  11.720  65.630  1.00  0.00    -0.314 C  
BRANCH   7   8
HETATM    8  C   UNL     1     -10.411  13.076  64.968  1.00  0.00    -0.336 C  
BRANCH   8   9
HETATM    9  C   UNL     1     -11.669  13.931  65.101  1.00  0.00    -0.357 C  
BRANCH   9  10
HETATM   10  C   UNL     1     -11.404  15.184  65.925  1.00  0.00    -0.225 C  
BRANCH  10  11
HETATM   11  C   UNL     1     -11.211  16.404  65.026  1.00  0.00    -0.138 C  
BRANCH  11  12
HETATM   12  C   UNL     1     -10.749  17.601  65.851  1.00  0.00    -0.113 C  
BRANCH  12  13
HETATM   13  C   UNL     1      -9.371  17.373  66.475  1.00  0.00    -0.288 C  
HETATM   14  C   UNL     1      -9.208  18.109  67.822  1.00  0.00    -0.265 C  
HETATM   15  C   UNL     1      -7.768  18.003  68.321  1.00  0.00    -0.285 A  
HETATM   16  C   UNL     1     -10.236  17.629  68.862  1.00  0.00    -0.354 C  
HETATM   17  C   UNL     1      -7.388  16.901  69.115  1.00  0.00    -0.197 A  
HETATM   18  C   UNL     1      -6.097  16.781  69.633  1.00  0.00    -0.223 A  
HETATM   19  C   UNL     1      -5.143  17.750  69.353  1.00  0.00    -0.175 A  
HETATM   20  C   UNL     1      -5.476  18.827  68.537  1.00  0.00    -0.192 A  
HETATM   21  C   UNL     1      -6.773  18.955  68.017  1.00  0.00    -0.228 A  
HETATM   22  I   UNL     1      -7.089  20.628  66.774  1.00  0.00    -0.216 I  
ENDBRANCH  12  13
ENDBRANCH  11  12
ENDBRANCH  10  11
ENDBRANCH   9  10
ENDBRANCH   8   9
ENDBRANCH   7   8
ENDBRANCH   6   7
ENDBRANCH   4   6
ENDBRANCH   3   4
ENDBRANCH   2   3
TORSDOF 10
ENDMDL
MODEL      274
REMARK 921   NORMALIZED FREE ENERGY PREDICTED BY IDOCK:   -3.13 KCAL/MOL
REMARK 922        TOTAL FREE ENERGY PREDICTED BY IDOCK:   -6.35 KCAL/MOL
REMARK 923 INTER-LIGAND FREE ENERGY PREDICTED BY IDOCK:   -4.37 KCAL/MOL
REMARK 924 INTRA-LIGAND FREE ENERGY PREDICTED BY IDOCK:   -1.98 KCAL/MOL
REMARK 927      BINDING AFFINITY PREDICTED BY RF-SCORE:    0.00 PKD
ROOT
HETATM    1  C   UNL     1      -7.969   7.273  71.895  1.00  0.00    -0.091 C  
HETATM    2  C   UNL     1      -6.730   7.574  71.072  1.00  0.00    -0.043 C  
ENDROOT
BRANCH   2   3
HETATM    3  O   UNL     1      -7.080   7.440  69.689  1.00  0.00    -0.068 OA 
BRANCH   3   4
HETATM    4  C   UNL     1      -6.332   8.199  68.840  1.00  0.00    -0.040 C  
HETATM    5  O   UNL     1      -5.802   9.263  69.127  1.00  0.00    -0.036 OA 
BRANCH   4   6
HETATM    6  C   UNL     1      -6.184   7.475  67.528  1.00  0.00    -0.049 C  
BRANCH   6   7
HETATM    7  C   UNL     1      -7.268   7.913  66.550  1.00  0.00    -0.083 C  
BRANCH   7   8
HETATM    8  C   UNL     1      -7.299   9.426  66.373  1.00  0.00    -0.093 C  
BRANCH   8   9
HETATM    9  C   UNL     1      -8.214   9.798  65.208  1.00  0.00    -0.137 C  
BRANCH   9  10
HETATM   10  C   UNL     1      -9.653   9.380  65.478  1.00  0.00    -0.328 C  
BRANCH  10  11
HETATM   11  C   UNL     1     -10.561  10.600  65.634  1.00  0.00    -0.175 C  
BRANCH  11  12
HETATM   12  C   UNL     1     -10.392  11.211  67.021  1.00  0.00    -0.263 C  
BRANCH  12  13
HETATM   13  C   UNL     1     -11.038  10.351  68.111  1.00  0.00    -0.344 C  
HETATM   14  C   UNL     1      -9.996   9.551  68.920  1.00  0.00    -0.187 C  
HETATM   15  C   UNL     1     -10.690   8.577  69.871  1.00  0.00    -0.224 A  
HETATM   16  C   UNL     1      -8.998  10.476  69.638  1.00  0.00     0.035 C  
HETATM   17  C   UNL     1     -11.054   9.009  71.164  1.00  0.00    -0.371 A  
HETATM   18  C   UNL     1     -11.649   8.146  72.086  1.00  0.00    -0.417 A  
HETATM   19  C   UNL     1     -11.915   6.829  71.733  1.00  0.00    -0.382 A  
HETATM   20  C   UNL     1     -11.605   6.385  70.452  1.00  0.00    -0.440 A  
HETATM   21  C   UNL     1     -11.004   7.247  69.522  1.00  0.00    -0.164 A  
HETATM   22  I   UNL     1     -10.640   6.416  67.619  1.00  0.00    -0.473 I  
ENDBRANCH  12  13
ENDBRANCH  11  12
ENDBRANCH  10  11
ENDBRANCH   9  10
ENDBRANCH   8   9
ENDBRANCH   7   8
ENDBRANCH   6   7
ENDBRANCH   4   6
ENDBRANCH   3   4
ENDBRANCH   2   3
TORSDOF 10
ENDMDL
MODEL      275
REMARK 921   NORMALIZED FREE ENERGY PREDICTED BY IDOCK:   -3.12 KCAL/MOL
REMARK 922        TOTAL FREE ENERGY PREDICTED BY IDOCK:   -6.35 KCAL/MOL
REMARK 923 INTER-LIGAND FREE ENERGY PREDICTED BY IDOCK:   -5.04 KCAL/MOL
REMARK 924 INTRA-LIGAND FREE ENERGY PREDICTED BY IDOCK:   -1.31 KCAL/MOL
REMARK 927      BINDING AFFINITY PREDICTED BY RF-SCORE:    0.00 PKD
ROOT
HETATM    1  C   UNL     1     -10.954   7.777  72.871  1.00  0.00    -0.467 C  
HETATM    2  C   UNL     1      -9.723   8.437  72.279  1.00  0.00    -0.316 C  
ENDROOT
BRANCH   2   3
HETATM    3  O   UNL     1      -8.923   7.412  71.677  1.00  0.00    -0.124 OA 
BRANCH   3   4
HETATM    4  C   UNL     1      -9.157   7.218  70.348  1.00  0.00    -0.155 C  
HETATM    5  O   UNL     1      -9.582   6.186  69.850  1.00  0.00    -0.156 OA 
BRANCH   4   6
HETATM    6  C   UNL     1      -8.900   8.506  69.608  1.00  0.00    -0.137 C  
BRANCH   6   7
HETATM    7  C   UNL     1      -7.410   8.828  69.598  1.00  0.00    -0.059 C  
BRANCH   7   8
HETATM    8  C   UNL     1      -6.819   8.749  68.196  1.00  0.00    -0.069 C  
BRANCH   8   9
HETATM    9  C   UNL     1      -7.935   8.586  67.166  1.00  0.00    -0.101 C  
BRANCH   9  10
HETATM   10  C   UNL     1      -7.622   9.346  65.884  1.00  0.00    -0.099 C  
BRANCH  10  11
HETATM   11  C   UNL     1      -8.345  10.692  65.852  1.00  0.00    -0.161 C  
BRANCH  11  12
HETATM   12  C   UNL     1      -9.764  10.543  66.390  1.00  0.00    -0.245 C  
BRANCH  12  13
HETATM   13  C   UNL     1     -10.049  11.514  67.539  1.00  0.00    -0.203 C  
HETATM   14  C   UNL     1     -10.453  12.916  67.035  1.00  0.00    -0.244 C  
HETATM   15  C   UNL     1     -10.552  13.896  68.203  1.00  0.00    -0.258 A  
HETATM   16  C   UNL     1     -11.734  12.869  66.184  1.00  0.00    -0.451 C  
HETATM   17  C   UNL     1     -11.772  14.024  68.900  1.00  0.00    -0.375 A  
HETATM   18  C   UNL     1     -11.928  14.938  69.944  1.00  0.00    -0.376 A  
HETATM   19  C   UNL     1     -10.861  15.736  70.334  1.00  0.00    -0.345 A  
HETATM   20  C   UNL     1      -9.633  15.603  69.693  1.00  0.00    -0.260 A  
HETATM   21  C   UNL     1      -9.471  14.689  68.641  1.00  0.00    -0.211 A  
HETATM   22  I   UNL     1      -7.535  14.596  67.811  1.00  0.00    -0.224 I  
ENDBRANCH  12  13
ENDBRANCH  11  12
ENDBRANCH  10  11
ENDBRANCH   9  10
ENDBRANCH   8   9
ENDBRANCH   7   8
ENDBRANCH   6   7
ENDBRANCH   4   6
ENDBRANCH   3   4
ENDBRANCH   2   3
TORSDOF 10
ENDMDL
MODEL      276
REMARK 921   NORMALIZED FREE ENERGY PREDICTED BY IDOCK:   -3.12 KCAL/MOL
REMARK 922        TOTAL FREE ENERGY PREDICTED BY IDOCK:   -6.34 KCAL/MOL
REMARK 923 INTER-LIGAND FREE ENERGY PREDICTED BY IDOCK:   -5.46 KCAL/MOL
REMARK 924 INTRA-LIGAND FREE ENERGY PREDICTED BY IDOCK:   -0.88 KCAL/MOL
REMARK 927      BINDING AFFINITY PREDICTED BY RF-SCORE:    0.00 PKD
ROOT
HETATM    1  C   UNL     1     -10.822   4.633  73.615  1.00  0.00    -0.375 C  
HETATM    2  C   UNL     1     -10.882   5.291  72.249  1.00  0.00    -0.207 C  
ENDROOT
BRANCH   2   3
HETATM    3  O   UNL     1     -11.896   6.303  72.295  1.00  0.00    -0.311 OA 
BRANCH   3   4
HETATM    4  C   UNL     1     -11.452   7.530  72.692  1.00  0.00    -0.319 C  
HETATM    5  O   UNL     1     -10.309   7.788  73.039  1.00  0.00    -0.295 OA 
BRANCH   4   6
HETATM    6  C   UNL     1     -12.568   8.532  72.542  1.00  0.00    -0.346 C  
BRANCH   6   7
HETATM    7  C   UNL     1     -12.617   9.067  71.116  1.00  0.00    -0.263 C  
BRANCH   7   8
HETATM    8  C   UNL     1     -12.322  10.562  71.058  1.00  0.00    -0.503 C  
BRANCH   8   9
HETATM    9  C   UNL     1     -12.158  11.006  69.606  1.00  0.00    -0.411 C  
BRANCH   9  10
HETATM   10  C   UNL     1     -10.722  10.826  69.131  1.00  0.00    -0.265 C  
BRANCH  10  11
HETATM   11  C   UNL     1     -10.543  11.352  67.707  1.00  0.00    -0.231 C  
BRANCH  11  12
HETATM   12  C   UNL     1      -9.062  11.405  67.346  1.00  0.00    -0.160 C  
BRANCH  12  13
HETATM   13  C   UNL     1      -8.524  10.038  66.917  1.00  0.00    -0.125 C  
HETATM   14  C   UNL     1      -9.516   9.276  66.012  1.00  0.00    -0.311 C  
HETATM   15  C   UNL     1      -9.022   7.853  65.756  1.00  0.00    -0.125 A  
HETATM   16  C   UNL     1      -9.812  10.048  64.714  1.00  0.00    -0.325 C  
HETATM   17  C   UNL     1      -8.160   7.603  64.667  1.00  0.00    -0.112 A  
HETATM   18  C   UNL     1      -7.717   6.314  64.363  1.00  0.00    -0.107 A  
HETATM   19  C   UNL     1      -8.108   5.241  65.152  1.00  0.00    -0.122 A  
HETATM   20  C   UNL     1      -8.925   5.462  66.258  1.00  0.00    -0.137 A  
HETATM   21  C   UNL     1      -9.376   6.754  66.566  1.00  0.00    -0.161 A  
HETATM   22  I   UNL     1     -10.572   6.908  68.295  1.00  0.00    -0.250 I  
ENDBRANCH  12  13
ENDBRANCH  11  12
ENDBRANCH  10  11
ENDBRANCH   9  10
ENDBRANCH   8   9
ENDBRANCH   7   8
ENDBRANCH   6   7
ENDBRANCH   4   6
ENDBRANCH   3   4
ENDBRANCH   2   3
TORSDOF 10
ENDMDL
MODEL      277
REMARK 921   NORMALIZED FREE ENERGY PREDICTED BY IDOCK:   -3.11 KCAL/MOL
REMARK 922        TOTAL FREE ENERGY PREDICTED BY IDOCK:   -6.33 KCAL/MOL
REMARK 923 INTER-LIGAND FREE ENERGY PREDICTED BY IDOCK:   -5.46 KCAL/MOL
REMARK 924 INTRA-LIGAND FREE ENERGY PREDICTED BY IDOCK:   -0.87 KCAL/MOL
REMARK 927      BINDING AFFINITY PREDICTED BY RF-SCORE:    0.00 PKD
ROOT
HETATM    1  C   UNL     1      -5.731   8.666  64.924  1.00  0.00    -0.048 C  
HETATM    2  C   UNL     1      -6.562   9.934  64.975  1.00  0.00    -0.110 C  
ENDROOT
BRANCH   2   3
HETATM    3  O   UNL     1      -7.482   9.898  63.877  1.00  0.00    -0.126 OA 
BRANCH   3   4
HETATM    4  C   UNL     1      -8.773   9.637  64.229  1.00  0.00    -0.206 C  
HETATM    5  O   UNL     1      -9.136   9.214  65.317  1.00  0.00    -0.209 OA 
BRANCH   4   6
HETATM    6  C   UNL     1      -9.686  10.041  63.100  1.00  0.00     0.053 C  
BRANCH   6   7
HETATM    7  C   UNL     1      -9.649  11.552  62.898  1.00  0.00    -0.314 C  
BRANCH   7   8
HETATM    8  C   UNL     1     -10.941  12.219  63.354  1.00  0.00    -0.467 C  
BRANCH   8   9
HETATM    9  C   UNL     1     -10.632  13.332  64.353  1.00  0.00    -0.438 C  
BRANCH   9  10
HETATM   10  C   UNL     1     -11.636  13.345  65.497  1.00  0.00    -0.346 C  
BRANCH  10  11
HETATM   11  C   UNL     1     -11.910  11.930  66.005  1.00  0.00    -0.101 C  
BRANCH  11  12
HETATM   12  C   UNL     1     -10.792  11.478  66.939  1.00  0.00    -0.331 C  
BRANCH  12  13
HETATM   13  C   UNL     1     -11.288  10.485  67.992  1.00  0.00    -0.319 C  
HETATM   14  C   UNL     1     -10.130   9.718  68.666  1.00  0.00    -0.186 C  
HETATM   15  C   UNL     1     -10.673   8.617  69.575  1.00  0.00    -0.189 A  
HETATM   16  C   UNL     1      -9.162  10.669  69.392  1.00  0.00    -0.073 C  
HETATM   17  C   UNL     1     -10.980   8.916  70.919  1.00  0.00    -0.325 A  
HETATM   18  C   UNL     1     -11.436   7.935  71.803  1.00  0.00    -0.313 A  
HETATM   19  C   UNL     1     -11.618   6.632  71.360  1.00  0.00    -0.362 A  
HETATM   20  C   UNL     1     -11.363   6.316  70.029  1.00  0.00    -0.486 A  
HETATM   21  C   UNL     1     -10.901   7.295  69.138  1.00  0.00    -0.136 A  
HETATM   22  I   UNL     1     -10.604   6.648  67.153  1.00  0.00    -0.426 I  
ENDBRANCH  12  13
ENDBRANCH  11  12
ENDBRANCH  10  11
ENDBRANCH   9  10
ENDBRANCH   8   9
ENDBRANCH   7   8
ENDBRANCH   6   7
ENDBRANCH   4   6
ENDBRANCH   3   4
ENDBRANCH   2   3
TORSDOF 10
ENDMDL
MODEL      278
REMARK 921   NORMALIZED FREE ENERGY PREDICTED BY IDOCK:   -3.11 KCAL/MOL
REMARK 922        TOTAL FREE ENERGY PREDICTED BY IDOCK:   -6.32 KCAL/MOL
REMARK 923 INTER-LIGAND FREE ENERGY PREDICTED BY IDOCK:   -5.30 KCAL/MOL
REMARK 924 INTRA-LIGAND FREE ENERGY PREDICTED BY IDOCK:   -1.02 KCAL/MOL
REMARK 927      BINDING AFFINITY PREDICTED BY RF-SCORE:    0.00 PKD
ROOT
HETATM    1  C   UNL     1     -13.974  15.240  71.685  1.00  0.00    -0.627 C  
HETATM    2  C   UNL     1     -12.497  15.584  71.746  1.00  0.00    -0.403 C  
ENDROOT
BRANCH   2   3
HETATM    3  O   UNL     1     -11.800  14.671  70.891  1.00  0.00    -0.298 OA 
BRANCH   3   4
HETATM    4  C   UNL     1     -11.651  15.101  69.606  1.00  0.00    -0.311 C  
HETATM    5  O   UNL     1     -12.353  14.766  68.664  1.00  0.00    -0.131 OA 
BRANCH   4   6
HETATM    6  C   UNL     1     -10.547  16.125  69.552  1.00  0.00    -0.306 C  
BRANCH   6   7
HETATM    7  C   UNL     1     -10.544  16.837  68.204  1.00  0.00    -0.350 C  
BRANCH   7   8
HETATM    8  C   UNL     1      -9.132  17.030  67.663  1.00  0.00    -0.229 C  
BRANCH   8   9
HETATM    9  C   UNL     1      -8.813  15.945  66.635  1.00  0.00    -0.316 C  
BRANCH   9  10
HETATM   10  C   UNL     1      -7.702  15.027  67.126  1.00  0.00    -0.202 C  
BRANCH  10  11
HETATM   11  C   UNL     1      -8.250  13.651  67.502  1.00  0.00    -0.189 C  
BRANCH  11  12
HETATM   12  C   UNL     1      -7.112  12.726  67.921  1.00  0.00    -0.118 C  
BRANCH  12  13
HETATM   13  C   UNL     1      -7.619  11.499  68.684  1.00  0.00    -0.134 C  
HETATM   14  C   UNL     1      -8.438  10.548  67.786  1.00  0.00    -0.114 C  
HETATM   15  C   UNL     1      -9.073   9.437  68.620  1.00  0.00    -0.132 A  
HETATM   16  C   UNL     1      -7.601  10.009  66.612  1.00  0.00    -0.104 C  
HETATM   17  C   UNL     1      -8.349   8.250  68.860  1.00  0.00    -0.127 A  
HETATM   18  C   UNL     1      -8.900   7.187  69.578  1.00  0.00    -0.137 A  
HETATM   19  C   UNL     1     -10.185   7.289  70.094  1.00  0.00    -0.209 A  
HETATM   20  C   UNL     1     -10.908   8.464  69.910  1.00  0.00    -0.207 A  
HETATM   21  C   UNL     1     -10.361   9.534  69.187  1.00  0.00    -0.207 A  
HETATM   22  I   UNL     1     -11.582  11.247  69.039  1.00  0.00    -0.448 I  
ENDBRANCH  12  13
ENDBRANCH  11  12
ENDBRANCH  10  11
ENDBRANCH   9  10
ENDBRANCH   8   9
ENDBRANCH   7   8
ENDBRANCH   6   7
ENDBRANCH   4   6
ENDBRANCH   3   4
ENDBRANCH   2   3
TORSDOF 10
ENDMDL
MODEL      279
REMARK 921   NORMALIZED FREE ENERGY PREDICTED BY IDOCK:   -3.10 KCAL/MOL
REMARK 922        TOTAL FREE ENERGY PREDICTED BY IDOCK:   -6.31 KCAL/MOL
REMARK 923 INTER-LIGAND FREE ENERGY PREDICTED BY IDOCK:   -5.15 KCAL/MOL
REMARK 924 INTRA-LIGAND FREE ENERGY PREDICTED BY IDOCK:   -1.16 KCAL/MOL
REMARK 927      BINDING AFFINITY PREDICTED BY RF-SCORE:    0.00 PKD
ROOT
HETATM    1  C   UNL     1      -7.820   8.671  63.915  1.00  0.00    -0.147 C  
HETATM    2  C   UNL     1      -8.618   9.369  65.002  1.00  0.00    -0.172 C  
ENDROOT
BRANCH   2   3
HETATM    3  O   UNL     1      -9.328   8.364  65.736  1.00  0.00    -0.168 OA 
BRANCH   3   4
HETATM    4  C   UNL     1     -10.191   8.852  66.672  1.00  0.00    -0.268 C  
HETATM    5  O   UNL     1     -10.856   8.172  67.441  1.00  0.00    -0.226 OA 
BRANCH   4   6
HETATM    6  C   UNL     1     -10.123  10.357  66.673  1.00  0.00    -0.279 C  
BRANCH   6   7
HETATM    7  C   UNL     1     -11.227  10.942  67.545  1.00  0.00    -0.364 C  
BRANCH   7   8
HETATM    8  C   UNL     1     -10.667  11.786  68.684  1.00  0.00    -0.252 C  
BRANCH   8   9
HETATM    9  C   UNL     1     -11.790  12.188  69.638  1.00  0.00    -0.391 C  
BRANCH   9  10
HETATM   10  C   UNL     1     -12.597  10.977  70.086  1.00  0.00    -0.281 C  
BRANCH  10  11
HETATM   11  C   UNL     1     -12.059  10.411  71.400  1.00  0.00    -0.424 C  
BRANCH  11  12
HETATM   12  C   UNL     1     -11.847   8.906  71.280  1.00  0.00    -0.371 C  
BRANCH  12  13
HETATM   13  C   UNL     1     -10.741   8.404  72.212  1.00  0.00    -0.417 C  
HETATM   14  C   UNL     1      -9.471   7.984  71.441  1.00  0.00    -0.194 C  
HETATM   15  C   UNL     1      -8.465   7.326  72.384  1.00  0.00    -0.127 A  
HETATM   16  C   UNL     1      -8.868   9.159  70.651  1.00  0.00    -0.278 C  
HETATM   17  C   UNL     1      -7.530   8.129  73.071  1.00  0.00    -0.171 A  
HETATM   18  C   UNL     1      -6.561   7.572  73.909  1.00  0.00    -0.082 A  
HETATM   19  C   UNL     1      -6.514   6.198  74.099  1.00  0.00    -0.071 A  
HETATM   20  C   UNL     1      -7.449   5.384  73.468  1.00  0.00    -0.095 A  
HETATM   21  C   UNL     1      -8.423   5.936  72.622  1.00  0.00    -0.119 A  
HETATM   22  I   UNL     1      -9.779   4.560  71.780  1.00  0.00    -0.253 I  
ENDBRANCH  12  13
ENDBRANCH  11  12
ENDBRANCH  10  11
ENDBRANCH   9  10
ENDBRANCH   8   9
ENDBRANCH   7   8
ENDBRANCH   6   7
ENDBRANCH   4   6
ENDBRANCH   3   4
ENDBRANCH   2   3
TORSDOF 10
ENDMDL
MODEL      280
REMARK 921   NORMALIZED FREE ENERGY PREDICTED BY IDOCK:   -3.10 KCAL/MOL
REMARK 922        TOTAL FREE ENERGY PREDICTED BY IDOCK:   -6.31 KCAL/MOL
REMARK 923 INTER-LIGAND FREE ENERGY PREDICTED BY IDOCK:   -5.09 KCAL/MOL
REMARK 924 INTRA-LIGAND FREE ENERGY PREDICTED BY IDOCK:   -1.23 KCAL/MOL
REMARK 927      BINDING AFFINITY PREDICTED BY RF-SCORE:    0.00 PKD
ROOT
HETATM    1  C   UNL     1      -9.069   8.093  72.687  1.00  0.00    -0.317 C  
HETATM    2  C   UNL     1     -10.004   8.645  71.627  1.00  0.00    -0.282 C  
ENDROOT
BRANCH   2   3
HETATM    3  O   UNL     1     -11.282   8.859  72.239  1.00  0.00    -0.340 OA 
BRANCH   3   4
HETATM    4  C   UNL     1     -12.074   9.761  71.594  1.00  0.00    -0.394 C  
HETATM    5  O   UNL     1     -13.239  10.002  71.871  1.00  0.00    -0.414 OA 
BRANCH   4   6
HETATM    6  C   UNL     1     -11.257  10.481  70.551  1.00  0.00    -0.348 C  
BRANCH   6   7
HETATM    7  C   UNL     1     -12.167  11.179  69.548  1.00  0.00    -0.347 C  
BRANCH   7   8
HETATM    8  C   UNL     1     -11.442  11.498  68.246  1.00  0.00    -0.368 C  
BRANCH   8   9
HETATM    9  C   UNL     1     -10.040  12.027  68.544  1.00  0.00    -0.201 C  
BRANCH   9  10
HETATM   10  C   UNL     1      -9.375  12.571  67.287  1.00  0.00    -0.190 C  
BRANCH  10  11
HETATM   11  C   UNL     1      -9.844  11.816  66.044  1.00  0.00    -0.258 C  
BRANCH  11  12
HETATM   12  C   UNL     1      -8.785  10.811  65.603  1.00  0.00    -0.198 C  
BRANCH  12  13
HETATM   13  C   UNL     1      -9.245   9.365  65.802  1.00  0.00    -0.276 C  
HETATM   14  C   UNL     1      -8.114   8.458  66.332  1.00  0.00    -0.104 C  
HETATM   15  C   UNL     1      -8.560   6.997  66.345  1.00  0.00    -0.136 A  
HETATM   16  C   UNL     1      -7.594   8.935  67.700  1.00  0.00    -0.093 C  
HETATM   17  C   UNL     1      -9.222   6.484  67.481  1.00  0.00    -0.113 A  
HETATM   18  C   UNL     1      -9.609   5.145  67.561  1.00  0.00    -0.159 A  
HETATM   19  C   UNL     1      -9.365   4.286  66.498  1.00  0.00    -0.174 A  
HETATM   20  C   UNL     1      -8.752   4.773  65.347  1.00  0.00    -0.138 A  
HETATM   21  C   UNL     1      -8.357   6.116  65.263  1.00  0.00    -0.144 A  
HETATM   22  I   UNL     1      -7.477   6.689  63.434  1.00  0.00    -0.088 I  
ENDBRANCH  12  13
ENDBRANCH  11  12
ENDBRANCH  10  11
ENDBRANCH   9  10
ENDBRANCH   8   9
ENDBRANCH   7   8
ENDBRANCH   6   7
ENDBRANCH   4   6
ENDBRANCH   3   4
ENDBRANCH   2   3
TORSDOF 10
ENDMDL
MODEL      281
REMARK 921   NORMALIZED FREE ENERGY PREDICTED BY IDOCK:   -3.10 KCAL/MOL
REMARK 922        TOTAL FREE ENERGY PREDICTED BY IDOCK:   -6.31 KCAL/MOL
REMARK 923 INTER-LIGAND FREE ENERGY PREDICTED BY IDOCK:   -5.25 KCAL/MOL
REMARK 924 INTRA-LIGAND FREE ENERGY PREDICTED BY IDOCK:   -1.06 KCAL/MOL
REMARK 927      BINDING AFFINITY PREDICTED BY RF-SCORE:    0.00 PKD
ROOT
HETATM    1  C   UNL     1     -13.247  15.807  73.343  1.00  0.00    -0.653 C  
HETATM    2  C   UNL     1     -13.466  14.595  72.457  1.00  0.00    -0.468 C  
ENDROOT
BRANCH   2   3
HETATM    3  O   UNL     1     -12.208  14.255  71.862  1.00  0.00    -0.299 OA 
BRANCH   3   4
HETATM    4  C   UNL     1     -12.098  14.585  70.544  1.00  0.00    -0.325 C  
HETATM    5  O   UNL     1     -12.228  15.710  70.086  1.00  0.00    -0.379 OA 
BRANCH   4   6
HETATM    6  C   UNL     1     -11.697  13.362  69.759  1.00  0.00    -0.355 C  
BRANCH   6   7
HETATM    7  C   UNL     1     -12.073  13.523  68.291  1.00  0.00    -0.295 C  
BRANCH   7   8
HETATM    8  C   UNL     1     -10.857  13.427  67.377  1.00  0.00    -0.279 C  
BRANCH   8   9
HETATM    9  C   UNL     1     -10.834  12.070  66.677  1.00  0.00    -0.311 C  
BRANCH   9  10
HETATM   10  C   UNL     1      -9.463  11.775  66.084  1.00  0.00    -0.240 C  
BRANCH  10  11
HETATM   11  C   UNL     1      -8.347  12.174  67.050  1.00  0.00    -0.173 C  
BRANCH  11  12
HETATM   12  C   UNL     1      -7.160  11.228  66.906  1.00  0.00    -0.139 C  
BRANCH  12  13
HETATM   13  C   UNL     1      -7.238  10.053  67.884  1.00  0.00    -0.087 C  
HETATM   14  C   UNL     1      -8.231   8.967  67.417  1.00  0.00    -0.108 C  
HETATM   15  C   UNL     1      -8.413   7.905  68.500  1.00  0.00    -0.128 A  
HETATM   16  C   UNL     1      -7.827   8.370  66.057  1.00  0.00    -0.098 C  
HETATM   17  C   UNL     1      -7.542   6.797  68.537  1.00  0.00    -0.104 A  
HETATM   18  C   UNL     1      -7.693   5.776  69.478  1.00  0.00    -0.092 A  
HETATM   19  C   UNL     1      -8.709   5.847  70.423  1.00  0.00    -0.139 A  
HETATM   20  C   UNL     1      -9.558   6.949  70.437  1.00  0.00    -0.171 A  
HETATM   21  C   UNL     1      -9.413   7.976  69.492  1.00  0.00    -0.160 A  
HETATM   22  I   UNL     1     -10.763   9.584  69.686  1.00  0.00    -0.250 I  
ENDBRANCH  12  13
ENDBRANCH  11  12
ENDBRANCH  10  11
ENDBRANCH   9  10
ENDBRANCH   8   9
ENDBRANCH   7   8
ENDBRANCH   6   7
ENDBRANCH   4   6
ENDBRANCH   3   4
ENDBRANCH   2   3
TORSDOF 10
ENDMDL
MODEL      282
REMARK 921   NORMALIZED FREE ENERGY PREDICTED BY IDOCK:   -3.09 KCAL/MOL
REMARK 922        TOTAL FREE ENERGY PREDICTED BY IDOCK:   -6.30 KCAL/MOL
REMARK 923 INTER-LIGAND FREE ENERGY PREDICTED BY IDOCK:   -5.87 KCAL/MOL
REMARK 924 INTRA-LIGAND FREE ENERGY PREDICTED BY IDOCK:   -0.44 KCAL/MOL
REMARK 927      BINDING AFFINITY PREDICTED BY RF-SCORE:    0.00 PKD
ROOT
HETATM    1  C   UNL     1      -6.552  10.729  66.717  1.00  0.00    -0.105 C  
HETATM    2  C   UNL     1      -8.040  10.545  66.484  1.00  0.00    -0.134 C  
ENDROOT
BRANCH   2   3
HETATM    3  O   UNL     1      -8.643  11.844  66.458  1.00  0.00    -0.183 OA 
BRANCH   3   4
HETATM    4  C   UNL     1      -8.875  12.385  67.688  1.00  0.00    -0.177 C  
HETATM    5  O   UNL     1      -8.374  13.417  68.110  1.00  0.00    -0.149 OA 
BRANCH   4   6
HETATM    6  C   UNL     1      -9.917  11.563  68.402  1.00  0.00    -0.206 C  
BRANCH   6   7
HETATM    7  C   UNL     1      -9.279  10.339  69.050  1.00  0.00    -0.188 C  
BRANCH   7   8
HETATM    8  C   UNL     1     -10.321   9.407  69.657  1.00  0.00    -0.229 C  
BRANCH   8   9
HETATM    9  C   UNL     1     -10.481   9.699  71.147  1.00  0.00    -0.281 C  
BRANCH   9  10
HETATM   10  C   UNL     1     -11.920  10.061  71.490  1.00  0.00    -0.438 C  
BRANCH  10  11
HETATM   11  C   UNL     1     -12.524  10.980  70.429  1.00  0.00    -0.397 C  
BRANCH  11  12
HETATM   12  C   UNL     1     -12.647  12.402  70.969  1.00  0.00    -0.349 C  
BRANCH  12  13
HETATM   13  C   UNL     1     -11.721  13.377  70.238  1.00  0.00    -0.231 C  
HETATM   14  C   UNL     1     -12.490  14.569  69.628  1.00  0.00    -0.208 C  
HETATM   15  C   UNL     1     -11.562  15.418  68.761  1.00  0.00    -0.382 A  
HETATM   16  C   UNL     1     -13.216  15.392  70.708  1.00  0.00    -0.440 C  
HETATM   17  C   UNL     1     -10.824  16.465  69.352  1.00  0.00    -0.327 A  
HETATM   18  C   UNL     1      -9.997  17.298  68.596  1.00  0.00    -0.327 A  
HETATM   19  C   UNL     1      -9.869  17.094  67.229  1.00  0.00    -0.265 A  
HETATM   20  C   UNL     1     -10.552  16.043  66.624  1.00  0.00    -0.297 A  
HETATM   21  C   UNL     1     -11.386  15.205  67.378  1.00  0.00    -0.306 A  
HETATM   22  I   UNL     1     -12.312  13.644  66.304  1.00  0.00    -0.244 I  
ENDBRANCH  12  13
ENDBRANCH  11  12
ENDBRANCH  10  11
ENDBRANCH   9  10
ENDBRANCH   8   9
ENDBRANCH   7   8
ENDBRANCH   6   7
ENDBRANCH   4   6
ENDBRANCH   3   4
ENDBRANCH   2   3
TORSDOF 10
ENDMDL
MODEL      283
REMARK 921   NORMALIZED FREE ENERGY PREDICTED BY IDOCK:   -3.09 KCAL/MOL
REMARK 922        TOTAL FREE ENERGY PREDICTED BY IDOCK:   -6.29 KCAL/MOL
REMARK 923 INTER-LIGAND FREE ENERGY PREDICTED BY IDOCK:   -5.43 KCAL/MOL
REMARK 924 INTRA-LIGAND FREE ENERGY PREDICTED BY IDOCK:   -0.86 KCAL/MOL
REMARK 927      BINDING AFFINITY PREDICTED BY RF-SCORE:    0.00 PKD
ROOT
HETATM    1  C   UNL     1     -12.429  12.012  63.389  1.00  0.00    -0.625 C  
HETATM    2  C   UNL     1     -10.961  12.281  63.665  1.00  0.00    -0.471 C  
ENDROOT
BRANCH   2   3
HETATM    3  O   UNL     1     -10.707  11.957  65.038  1.00  0.00    -0.273 OA 
BRANCH   3   4
HETATM    4  C   UNL     1     -11.004  12.954  65.918  1.00  0.00    -0.276 C  
HETATM    5  O   UNL     1     -10.722  14.134  65.769  1.00  0.00    -0.285 OA 
BRANCH   4   6
HETATM    6  C   UNL     1     -11.814  12.386  67.055  1.00  0.00    -0.368 C  
BRANCH   6   7
HETATM    7  C   UNL     1     -11.130  12.661  68.389  1.00  0.00    -0.297 C  
BRANCH   7   8
HETATM    8  C   UNL     1     -10.668  11.378  69.068  1.00  0.00    -0.245 C  
BRANCH   8   9
HETATM    9  C   UNL     1     -11.180  10.163  68.295  1.00  0.00    -0.246 C  
BRANCH   9  10
HETATM   10  C   UNL     1     -10.081   9.128  68.100  1.00  0.00    -0.225 C  
BRANCH  10  11
HETATM   11  C   UNL     1     -10.406   8.193  66.935  1.00  0.00    -0.401 C  
BRANCH  11  12
HETATM   12  C   UNL     1     -11.021   6.897  67.453  1.00  0.00    -0.374 C  
BRANCH  12  13
HETATM   13  C   UNL     1     -10.631   5.691  66.595  1.00  0.00    -0.361 C  
HETATM   14  C   UNL     1      -9.220   5.164  66.931  1.00  0.00    -0.118 C  
HETATM   15  C   UNL     1      -8.801   4.082  65.937  1.00  0.00    -0.123 A  
HETATM   16  C   UNL     1      -9.118   4.701  68.396  1.00  0.00    -0.154 C  
HETATM   17  C   UNL     1      -9.137   2.737  66.194  1.00  0.00    -0.124 A  
HETATM   18  C   UNL     1      -8.739   1.706  65.340  1.00  0.00    -0.117 A  
HETATM   19  C   UNL     1      -8.010   1.995  64.195  1.00  0.00    -0.073 A  
HETATM   20  C   UNL     1      -7.699   3.317  63.893  1.00  0.00    -0.076 A  
HETATM   21  C   UNL     1      -8.093   4.357  64.749  1.00  0.00    -0.099 A  
HETATM   22  I   UNL     1      -7.568   6.299  64.117  1.00  0.00    -0.104 I  
ENDBRANCH  12  13
ENDBRANCH  11  12
ENDBRANCH  10  11
ENDBRANCH   9  10
ENDBRANCH   8   9
ENDBRANCH   7   8
ENDBRANCH   6   7
ENDBRANCH   4   6
ENDBRANCH   3   4
ENDBRANCH   2   3
TORSDOF 10
ENDMDL
MODEL      284
REMARK 921   NORMALIZED FREE ENERGY PREDICTED BY IDOCK:   -3.08 KCAL/MOL
REMARK 922        TOTAL FREE ENERGY PREDICTED BY IDOCK:   -6.27 KCAL/MOL
REMARK 923 INTER-LIGAND FREE ENERGY PREDICTED BY IDOCK:   -5.37 KCAL/MOL
REMARK 924 INTRA-LIGAND FREE ENERGY PREDICTED BY IDOCK:   -0.90 KCAL/MOL
REMARK 927      BINDING AFFINITY PREDICTED BY RF-SCORE:    0.00 PKD
ROOT
HETATM    1  C   UNL     1      -8.896  10.436  64.579  1.00  0.00    -0.225 C  
HETATM    2  C   UNL     1      -9.611  11.146  63.445  1.00  0.00    -0.332 C  
ENDROOT
BRANCH   2   3
HETATM    3  O   UNL     1     -11.010  11.168  63.755  1.00  0.00    -0.363 OA 
BRANCH   3   4
HETATM    4  C   UNL     1     -11.581  12.405  63.708  1.00  0.00    -0.473 C  
HETATM    5  O   UNL     1     -12.688  12.654  63.253  1.00  0.00    -0.669 OA 
BRANCH   4   6
HETATM    6  C   UNL     1     -10.673  13.395  64.390  1.00  0.00    -0.423 C  
BRANCH   6   7
HETATM    7  C   UNL     1     -11.426  14.147  65.481  1.00  0.00    -0.324 C  
BRANCH   7   8
HETATM    8  C   UNL     1     -12.005  13.203  66.529  1.00  0.00    -0.459 C  
BRANCH   8   9
HETATM    9  C   UNL     1     -10.877  12.461  67.244  1.00  0.00    -0.279 C  
BRANCH   9  10
HETATM   10  C   UNL     1     -11.254  11.011  67.516  1.00  0.00    -0.372 C  
BRANCH  10  11
HETATM   11  C   UNL     1     -10.219  10.332  68.413  1.00  0.00    -0.189 C  
BRANCH  11  12
HETATM   12  C   UNL     1      -9.767   9.013  67.794  1.00  0.00    -0.190 C  
BRANCH  12  13
HETATM   13  C   UNL     1      -9.536   7.930  68.851  1.00  0.00    -0.155 C  
HETATM   14  C   UNL     1      -8.185   7.207  68.663  1.00  0.00    -0.125 C  
HETATM   15  C   UNL     1      -8.074   6.022  69.621  1.00  0.00    -0.107 A  
HETATM   16  C   UNL     1      -6.997   8.179  68.776  1.00  0.00    -0.067 C  
HETATM   17  C   UNL     1      -7.550   6.223  70.915  1.00  0.00    -0.096 A  
HETATM   18  C   UNL     1      -7.386   5.165  71.812  1.00  0.00    -0.085 A  
HETATM   19  C   UNL     1      -7.762   3.879  71.446  1.00  0.00    -0.060 A  
HETATM   20  C   UNL     1      -8.320   3.657  70.191  1.00  0.00    -0.085 A  
HETATM   21  C   UNL     1      -8.484   4.715  69.285  1.00  0.00    -0.079 A  
HETATM   22  I   UNL     1      -9.380   4.203  67.446  1.00  0.00    -0.216 I  
ENDBRANCH  12  13
ENDBRANCH  11  12
ENDBRANCH  10  11
ENDBRANCH   9  10
ENDBRANCH   8   9
ENDBRANCH   7   8
ENDBRANCH   6   7
ENDBRANCH   4   6
ENDBRANCH   3   4
ENDBRANCH   2   3
TORSDOF 10
ENDMDL
MODEL      285
REMARK 921   NORMALIZED FREE ENERGY PREDICTED BY IDOCK:   -3.07 KCAL/MOL
REMARK 922        TOTAL FREE ENERGY PREDICTED BY IDOCK:   -6.27 KCAL/MOL
REMARK 923 INTER-LIGAND FREE ENERGY PREDICTED BY IDOCK:   -5.64 KCAL/MOL
REMARK 924 INTRA-LIGAND FREE ENERGY PREDICTED BY IDOCK:   -0.63 KCAL/MOL
REMARK 927      BINDING AFFINITY PREDICTED BY RF-SCORE:    0.00 PKD
ROOT
HETATM    1  C   UNL     1      -6.434  19.347  65.488  1.00  0.00    -0.288 C  
HETATM    2  C   UNL     1      -7.551  18.907  66.416  1.00  0.00    -0.262 C  
ENDROOT
BRANCH   2   3
HETATM    3  O   UNL     1      -8.779  19.446  65.910  1.00  0.00    -0.427 OA 
BRANCH   3   4
HETATM    4  C   UNL     1      -9.903  18.841  66.389  1.00  0.00    -0.373 C  
HETATM    5  O   UNL     1     -10.659  18.139  65.734  1.00  0.00    -0.541 OA 
BRANCH   4   6
HETATM    6  C   UNL     1     -10.009  19.096  67.870  1.00  0.00    -0.445 C  
BRANCH   6   7
HETATM    7  C   UNL     1     -10.406  17.820  68.604  1.00  0.00    -0.351 C  
BRANCH   7   8
HETATM    8  C   UNL     1      -9.189  17.020  69.056  1.00  0.00    -0.154 C  
BRANCH   8   9
HETATM    9  C   UNL     1      -9.573  15.557  69.264  1.00  0.00    -0.266 C  
BRANCH   9  10
HETATM   10  C   UNL     1     -10.947  15.257  68.681  1.00  0.00    -0.257 C  
BRANCH  10  11
HETATM   11  C   UNL     1     -10.871  14.148  67.632  1.00  0.00    -0.266 C  
BRANCH  11  12
HETATM   12  C   UNL     1     -10.865  12.780  68.307  1.00  0.00    -0.270 C  
BRANCH  12  13
HETATM   13  C   UNL     1      -9.714  11.901  67.815  1.00  0.00    -0.189 C  
HETATM   14  C   UNL     1     -10.176  10.854  66.779  1.00  0.00    -0.277 C  
HETATM   15  C   UNL     1      -9.041   9.887  66.450  1.00  0.00    -0.179 A  
HETATM   16  C   UNL     1     -10.776  11.518  65.526  1.00  0.00    -0.328 C  
HETATM   17  C   UNL     1      -8.136  10.204  65.416  1.00  0.00    -0.149 A  
HETATM   18  C   UNL     1      -7.109   9.333  65.047  1.00  0.00    -0.097 A  
HETATM   19  C   UNL     1      -6.945   8.128  65.717  1.00  0.00    -0.064 A  
HETATM   20  C   UNL     1      -7.797   7.806  66.769  1.00  0.00    -0.106 A  
HETATM   21  C   UNL     1      -8.833   8.675  67.142  1.00  0.00    -0.129 A  
HETATM   22  I   UNL     1     -10.001   8.044  68.780  1.00  0.00    -0.218 I  
ENDBRANCH  12  13
ENDBRANCH  11  12
ENDBRANCH  10  11
ENDBRANCH   9  10
ENDBRANCH   8   9
ENDBRANCH   7   8
ENDBRANCH   6   7
ENDBRANCH   4   6
ENDBRANCH   3   4
ENDBRANCH   2   3
TORSDOF 10
ENDMDL
MODEL      286
REMARK 921   NORMALIZED FREE ENERGY PREDICTED BY IDOCK:   -3.07 KCAL/MOL
REMARK 922        TOTAL FREE ENERGY PREDICTED BY IDOCK:   -6.26 KCAL/MOL
REMARK 923 INTER-LIGAND FREE ENERGY PREDICTED BY IDOCK:   -5.44 KCAL/MOL
REMARK 924 INTRA-LIGAND FREE ENERGY PREDICTED BY IDOCK:   -0.82 KCAL/MOL
REMARK 927      BINDING AFFINITY PREDICTED BY RF-SCORE:    0.00 PKD
ROOT
HETATM    1  C   UNL     1     -13.891  13.917  72.023  1.00  0.00    -0.588 C  
HETATM    2  C   UNL     1     -13.332  15.104  71.260  1.00  0.00    -0.477 C  
ENDROOT
BRANCH   2   3
HETATM    3  O   UNL     1     -11.968  14.810  70.931  1.00  0.00    -0.288 OA 
BRANCH   3   4
HETATM    4  C   UNL     1     -11.756  14.506  69.619  1.00  0.00    -0.307 C  
HETATM    5  O   UNL     1     -11.590  15.321  68.724  1.00  0.00    -0.326 OA 
BRANCH   4   6
HETATM    6  C   UNL     1     -11.663  13.009  69.466  1.00  0.00    -0.381 C  
BRANCH   6   7
HETATM    7  C   UNL     1     -10.864  12.648  68.219  1.00  0.00    -0.261 C  
BRANCH   7   8
HETATM    8  C   UNL     1     -11.337  11.339  67.598  1.00  0.00    -0.352 C  
BRANCH   8   9
HETATM    9  C   UNL     1     -10.181  10.657  66.870  1.00  0.00    -0.272 C  
BRANCH   9  10
HETATM   10  C   UNL     1     -10.309   9.141  66.923  1.00  0.00    -0.321 C  
BRANCH  10  11
HETATM   11  C   UNL     1      -9.065   8.504  67.541  1.00  0.00    -0.146 C  
BRANCH  11  12
HETATM   12  C   UNL     1      -8.080   9.583  67.978  1.00  0.00    -0.102 C  
BRANCH  12  13
HETATM   13  C   UNL     1      -7.865   9.587  69.493  1.00  0.00    -0.103 C  
HETATM   14  C   UNL     1      -7.684   8.164  70.063  1.00  0.00    -0.086 C  
HETATM   15  C   UNL     1      -7.652   8.198  71.590  1.00  0.00    -0.097 A  
HETATM   16  C   UNL     1      -6.459   7.457  69.456  1.00  0.00    -0.036 C  
HETATM   17  C   UNL     1      -6.423   8.395  72.254  1.00  0.00    -0.080 A  
HETATM   18  C   UNL     1      -6.334   8.389  73.648  1.00  0.00    -0.132 A  
HETATM   19  C   UNL     1      -7.475   8.207  74.417  1.00  0.00    -0.252 A  
HETATM   20  C   UNL     1      -8.708   8.052  73.791  1.00  0.00    -0.329 A  
HETATM   21  C   UNL     1      -8.804   8.053  72.391  1.00  0.00    -0.173 A  
HETATM   22  I   UNL     1     -10.754   7.844  71.616  1.00  0.00    -0.328 I  
ENDBRANCH  12  13
ENDBRANCH  11  12
ENDBRANCH  10  11
ENDBRANCH   9  10
ENDBRANCH   8   9
ENDBRANCH   7   8
ENDBRANCH   6   7
ENDBRANCH   4   6
ENDBRANCH   3   4
ENDBRANCH   2   3
TORSDOF 10
ENDMDL
MODEL      287
REMARK 921   NORMALIZED FREE ENERGY PREDICTED BY IDOCK:   -3.04 KCAL/MOL
REMARK 922        TOTAL FREE ENERGY PREDICTED BY IDOCK:   -6.22 KCAL/MOL
REMARK 923 INTER-LIGAND FREE ENERGY PREDICTED BY IDOCK:   -5.44 KCAL/MOL
REMARK 924 INTRA-LIGAND FREE ENERGY PREDICTED BY IDOCK:   -0.78 KCAL/MOL
REMARK 927      BINDING AFFINITY PREDICTED BY RF-SCORE:    0.00 PKD
ROOT
HETATM    1  C   UNL     1     -10.076  16.492  69.043  1.00  0.00    -0.279 C  
HETATM    2  C   UNL     1     -10.475  15.814  67.745  1.00  0.00    -0.283 C  
ENDROOT
BRANCH   2   3
HETATM    3  O   UNL     1     -11.770  15.232  67.936  1.00  0.00    -0.328 OA 
BRANCH   3   4
HETATM    4  C   UNL     1     -11.752  13.917  68.294  1.00  0.00    -0.361 C  
HETATM    5  O   UNL     1     -11.698  13.499  69.441  1.00  0.00    -0.286 OA 
BRANCH   4   6
HETATM    6  C   UNL     1     -11.907  13.065  67.060  1.00  0.00    -0.437 C  
BRANCH   6   7
HETATM    7  C   UNL     1     -12.685  13.817  65.986  1.00  0.00    -0.407 C  
BRANCH   7   8
HETATM    8  C   UNL     1     -12.059  13.648  64.606  1.00  0.00    -0.449 C  
BRANCH   8   9
HETATM    9  C   UNL     1     -10.585  13.270  64.743  1.00  0.00    -0.402 C  
BRANCH   9  10
HETATM   10  C   UNL     1     -10.251  12.038  63.914  1.00  0.00    -0.424 C  
BRANCH  10  11
HETATM   11  C   UNL     1     -10.492  10.756  64.710  1.00  0.00    -0.335 C  
BRANCH  11  12
HETATM   12  C   UNL     1      -9.272   9.844  64.626  1.00  0.00    -0.313 C  
BRANCH  12  13
HETATM   13  C   UNL     1      -9.205   8.862  65.799  1.00  0.00    -0.283 C  
HETATM   14  C   UNL     1      -7.764   8.666  66.317  1.00  0.00    -0.098 C  
HETATM   15  C   UNL     1      -7.717   7.552  67.361  1.00  0.00    -0.117 A  
HETATM   16  C   UNL     1      -7.156   9.986  66.825  1.00  0.00    -0.091 C  
HETATM   17  C   UNL     1      -7.941   7.863  68.719  1.00  0.00    -0.124 A  
HETATM   18  C   UNL     1      -7.864   6.889  69.716  1.00  0.00    -0.115 A  
HETATM   19  C   UNL     1      -7.582   5.571  69.381  1.00  0.00    -0.078 A  
HETATM   20  C   UNL     1      -7.398   5.226  68.046  1.00  0.00    -0.072 A  
HETATM   21  C   UNL     1      -7.470   6.201  67.039  1.00  0.00    -0.087 A  
HETATM   22  I   UNL     1      -7.202   5.493  65.071  1.00  0.00    -0.072 I  
ENDBRANCH  12  13
ENDBRANCH  11  12
ENDBRANCH  10  11
ENDBRANCH   9  10
ENDBRANCH   8   9
ENDBRANCH   7   8
ENDBRANCH   6   7
ENDBRANCH   4   6
ENDBRANCH   3   4
ENDBRANCH   2   3
TORSDOF 10
ENDMDL
MODEL      288
REMARK 921   NORMALIZED FREE ENERGY PREDICTED BY IDOCK:   -3.03 KCAL/MOL
REMARK 922        TOTAL FREE ENERGY PREDICTED BY IDOCK:   -6.20 KCAL/MOL
REMARK 923 INTER-LIGAND FREE ENERGY PREDICTED BY IDOCK:   -5.47 KCAL/MOL
REMARK 924 INTRA-LIGAND FREE ENERGY PREDICTED BY IDOCK:   -0.73 KCAL/MOL
REMARK 927      BINDING AFFINITY PREDICTED BY RF-SCORE:    0.00 PKD
ROOT
HETATM    1  C   UNL     1     -10.596  18.695  66.770  1.00  0.00    -0.422 C  
HETATM    2  C   UNL     1     -10.381  18.347  68.231  1.00  0.00    -0.355 C  
ENDROOT
BRANCH   2   3
HETATM    3  O   UNL     1     -10.167  16.933  68.317  1.00  0.00    -0.283 OA 
BRANCH   3   4
HETATM    4  C   UNL     1      -8.859  16.553  68.251  1.00  0.00    -0.210 C  
HETATM    5  O   UNL     1      -7.930  17.128  68.799  1.00  0.00    -0.260 OA 
BRANCH   4   6
HETATM    6  C   UNL     1      -8.756  15.264  67.478  1.00  0.00    -0.189 C  
BRANCH   6   7
HETATM    7  C   UNL     1      -9.709  14.220  68.050  1.00  0.00    -0.223 C  
BRANCH   7   8
HETATM    8  C   UNL     1     -10.306  13.336  66.962  1.00  0.00    -0.246 C  
BRANCH   8   9
HETATM    9  C   UNL     1     -10.055  11.865  67.288  1.00  0.00    -0.213 C  
BRANCH   9  10
HETATM   10  C   UNL     1     -11.362  11.115  67.508  1.00  0.00    -0.351 C  
BRANCH  10  11
HETATM   11  C   UNL     1     -11.114   9.754  68.157  1.00  0.00    -0.169 C  
BRANCH  11  12
HETATM   12  C   UNL     1      -9.827   9.138  67.618  1.00  0.00    -0.217 C  
BRANCH  12  13
HETATM   13  C   UNL     1      -9.383   7.923  68.436  1.00  0.00    -0.140 C  
HETATM   14  C   UNL     1     -10.367   6.741  68.311  1.00  0.00    -0.215 C  
HETATM   15  C   UNL     1      -9.985   5.621  69.278  1.00  0.00    -0.251 A  
HETATM   16  C   UNL     1     -10.494   6.256  66.856  1.00  0.00    -0.337 C  
HETATM   17  C   UNL     1      -9.068   4.631  68.865  1.00  0.00    -0.163 A  
HETATM   18  C   UNL     1      -8.721   3.562  69.694  1.00  0.00    -0.127 A  
HETATM   19  C   UNL     1      -9.265   3.465  70.967  1.00  0.00    -0.197 A  
HETATM   20  C   UNL     1     -10.140   4.449  71.418  1.00  0.00    -0.210 A  
HETATM   21  C   UNL     1     -10.496   5.523  70.589  1.00  0.00    -0.272 A  
HETATM   22  I   UNL     1     -11.802   6.938  71.448  1.00  0.00    -0.418 I  
ENDBRANCH  12  13
ENDBRANCH  11  12
ENDBRANCH  10  11
ENDBRANCH   9  10
ENDBRANCH   8   9
ENDBRANCH   7   8
ENDBRANCH   6   7
ENDBRANCH   4   6
ENDBRANCH   3   4
ENDBRANCH   2   3
TORSDOF 10
ENDMDL
MODEL      289
REMARK 921   NORMALIZED FREE ENERGY PREDICTED BY IDOCK:   -3.03 KCAL/MOL
REMARK 922        TOTAL FREE ENERGY PREDICTED BY IDOCK:   -6.20 KCAL/MOL
REMARK 923 INTER-LIGAND FREE ENERGY PREDICTED BY IDOCK:   -4.89 KCAL/MOL
REMARK 924 INTRA-LIGAND FREE ENERGY PREDICTED BY IDOCK:   -1.31 KCAL/MOL
REMARK 927      BINDING AFFINITY PREDICTED BY RF-SCORE:    0.00 PKD
ROOT
HETATM    1  C   UNL     1      -6.368   5.377  68.260  1.00  0.00    -0.035 C  
HETATM    2  C   UNL     1      -6.009   6.456  69.265  1.00  0.00    -0.021 C  
ENDROOT
BRANCH   2   3
HETATM    3  O   UNL     1      -7.228   6.925  69.856  1.00  0.00    -0.072 OA 
BRANCH   3   4
HETATM    4  C   UNL     1      -7.844   6.024  70.672  1.00  0.00    -0.106 C  
HETATM    5  O   UNL     1      -7.316   5.447  71.611  1.00  0.00    -0.084 OA 
BRANCH   4   6
HETATM    6  C   UNL     1      -9.299   5.926  70.292  1.00  0.00    -0.181 C  
BRANCH   6   7
HETATM    7  C   UNL     1      -9.704   7.110  69.422  1.00  0.00    -0.160 C  
BRANCH   7   8
HETATM    8  C   UNL     1     -10.966   6.820  68.617  1.00  0.00    -0.261 C  
BRANCH   8   9
HETATM    9  C   UNL     1     -10.667   6.916  67.122  1.00  0.00    -0.436 C  
BRANCH   9  10
HETATM   10  C   UNL     1      -9.231   7.358  66.872  1.00  0.00    -0.183 C  
BRANCH  10  11
HETATM   11  C   UNL     1      -9.181   8.556  65.925  1.00  0.00    -0.245 C  
BRANCH  11  12
HETATM   12  C   UNL     1     -10.387   9.462  66.152  1.00  0.00    -0.162 C  
BRANCH  12  13
HETATM   13  C   UNL     1      -9.976  10.907  66.442  1.00  0.00    -0.266 C  
HETATM   14  C   UNL     1     -11.052  11.674  67.240  1.00  0.00    -0.346 C  
HETATM   15  C   UNL     1     -10.684  13.152  67.352  1.00  0.00    -0.262 A  
HETATM   16  C   UNL     1     -11.322  11.021  68.607  1.00  0.00    -0.346 C  
HETATM   17  C   UNL     1      -9.877  13.587  68.424  1.00  0.00    -0.225 A  
HETATM   18  C   UNL     1      -9.550  14.934  68.597  1.00  0.00    -0.222 A  
HETATM   19  C   UNL     1     -10.005  15.881  67.690  1.00  0.00    -0.237 A  
HETATM   20  C   UNL     1     -10.768  15.477  66.598  1.00  0.00    -0.306 A  
HETATM   21  C   UNL     1     -11.102  14.126  66.421  1.00  0.00    -0.320 A  
HETATM   22  I   UNL     1     -12.232  13.691  64.695  1.00  0.00    -0.413 I  
ENDBRANCH  12  13
ENDBRANCH  11  12
ENDBRANCH  10  11
ENDBRANCH   9  10
ENDBRANCH   8   9
ENDBRANCH   7   8
ENDBRANCH   6   7
ENDBRANCH   4   6
ENDBRANCH   3   4
ENDBRANCH   2   3
TORSDOF 10
ENDMDL
MODEL      290
REMARK 921   NORMALIZED FREE ENERGY PREDICTED BY IDOCK:   -3.03 KCAL/MOL
REMARK 922        TOTAL FREE ENERGY PREDICTED BY IDOCK:   -6.20 KCAL/MOL
REMARK 923 INTER-LIGAND FREE ENERGY PREDICTED BY IDOCK:   -5.57 KCAL/MOL
REMARK 924 INTRA-LIGAND FREE ENERGY PREDICTED BY IDOCK:   -0.63 KCAL/MOL
REMARK 927      BINDING AFFINITY PREDICTED BY RF-SCORE:    0.00 PKD
ROOT
HETATM    1  C   UNL     1      -6.731   8.510  65.682  1.00  0.00    -0.060 C  
HETATM    2  C   UNL     1      -6.920   8.508  67.188  1.00  0.00    -0.075 C  
ENDROOT
BRANCH   2   3
HETATM    3  O   UNL     1      -8.165   7.858  67.472  1.00  0.00    -0.121 OA 
BRANCH   3   4
HETATM    4  C   UNL     1      -9.042   8.607  68.198  1.00  0.00    -0.141 C  
HETATM    5  O   UNL     1      -8.865   8.983  69.348  1.00  0.00    -0.137 OA 
BRANCH   4   6
HETATM    6  C   UNL     1     -10.216   8.977  67.329  1.00  0.00    -0.323 C  
BRANCH   6   7
HETATM    7  C   UNL     1     -10.129  10.439  66.907  1.00  0.00    -0.269 C  
BRANCH   7   8
HETATM    8  C   UNL     1     -11.393  11.212  67.264  1.00  0.00    -0.302 C  
BRANCH   8   9
HETATM    9  C   UNL     1     -11.681  12.266  66.197  1.00  0.00    -0.440 C  
BRANCH   9  10
HETATM   10  C   UNL     1     -11.310  13.661  66.683  1.00  0.00    -0.343 C  
BRANCH  10  11
HETATM   11  C   UNL     1      -9.856  13.993  66.347  1.00  0.00    -0.306 C  
BRANCH  11  12
HETATM   12  C   UNL     1      -9.384  15.188  67.169  1.00  0.00    -0.223 C  
BRANCH  12  13
HETATM   13  C   UNL     1      -8.591  16.189  66.326  1.00  0.00    -0.373 C  
HETATM   14  C   UNL     1      -7.717  17.122  67.192  1.00  0.00    -0.205 C  
HETATM   15  C   UNL     1      -7.085  18.215  66.332  1.00  0.00    -0.274 A  
HETATM   16  C   UNL     1      -6.680  16.334  68.012  1.00  0.00    -0.143 C  
HETATM   17  C   UNL     1      -5.843  17.976  65.707  1.00  0.00    -0.238 A  
HETATM   18  C   UNL     1      -5.203  18.957  64.948  1.00  0.00    -0.222 A  
HETATM   19  C   UNL     1      -5.797  20.200  64.776  1.00  0.00    -0.265 A  
HETATM   20  C   UNL     1      -7.041  20.452  65.345  1.00  0.00    -0.209 A  
HETATM   21  C   UNL     1      -7.688  19.471  66.112  1.00  0.00    -0.313 A  
HETATM   22  I   UNL     1      -9.581  20.013  66.866  1.00  0.00    -0.590 I  
ENDBRANCH  12  13
ENDBRANCH  11  12
ENDBRANCH  10  11
ENDBRANCH   9  10
ENDBRANCH   8   9
ENDBRANCH   7   8
ENDBRANCH   6   7
ENDBRANCH   4   6
ENDBRANCH   3   4
ENDBRANCH   2   3
TORSDOF 10
ENDMDL
MODEL      291
REMARK 921   NORMALIZED FREE ENERGY PREDICTED BY IDOCK:   -3.02 KCAL/MOL
REMARK 922        TOTAL FREE ENERGY PREDICTED BY IDOCK:   -6.19 KCAL/MOL
REMARK 923 INTER-LIGAND FREE ENERGY PREDICTED BY IDOCK:   -4.98 KCAL/MOL
REMARK 924 INTRA-LIGAND FREE ENERGY PREDICTED BY IDOCK:   -1.21 KCAL/MOL
REMARK 927      BINDING AFFINITY PREDICTED BY RF-SCORE:    0.00 PKD
ROOT
HETATM    1  C   UNL     1     -10.715   7.769  71.454  1.00  0.00    -0.250 C  
HETATM    2  C   UNL     1     -11.420   6.425  71.428  1.00  0.00    -0.308 C  
ENDROOT
BRANCH   2   3
HETATM    3  O   UNL     1     -10.476   5.428  71.840  1.00  0.00    -0.212 OA 
BRANCH   3   4
HETATM    4  C   UNL     1      -9.698   4.936  70.836  1.00  0.00    -0.195 C  
HETATM    5  O   UNL     1     -10.115   4.442  69.798  1.00  0.00    -0.214 OA 
BRANCH   4   6
HETATM    6  C   UNL     1      -8.249   5.184  71.165  1.00  0.00    -0.116 C  
BRANCH   6   7
HETATM    7  C   UNL     1      -7.513   5.743  69.952  1.00  0.00    -0.079 C  
BRANCH   7   8
HETATM    8  C   UNL     1      -7.353   7.257  70.030  1.00  0.00    -0.083 C  
BRANCH   8   9
HETATM    9  C   UNL     1      -7.463   7.867  68.634  1.00  0.00    -0.099 C  
BRANCH   9  10
HETATM   10  C   UNL     1      -8.250   6.963  67.695  1.00  0.00    -0.117 C  
BRANCH  10  11
HETATM   11  C   UNL     1      -9.720   7.375  67.636  1.00  0.00    -0.178 C  
BRANCH  11  12
HETATM   12  C   UNL     1      -9.937   8.672  68.409  1.00  0.00    -0.204 C  
BRANCH  12  13
HETATM   13  C   UNL     1     -10.644   9.735  67.565  1.00  0.00    -0.335 C  
HETATM   14  C   UNL     1      -9.870  11.070  67.534  1.00  0.00    -0.190 C  
HETATM   15  C   UNL     1     -10.692  12.151  66.834  1.00  0.00    -0.271 A  
HETATM   16  C   UNL     1      -8.466  10.901  66.926  1.00  0.00    -0.135 C  
HETATM   17  C   UNL     1     -10.593  12.301  65.435  1.00  0.00    -0.309 A  
HETATM   18  C   UNL     1     -11.289  13.302  64.754  1.00  0.00    -0.350 A  
HETATM   19  C   UNL     1     -12.120  14.168  65.452  1.00  0.00    -0.415 A  
HETATM   20  C   UNL     1     -12.270  14.018  66.827  1.00  0.00    -0.439 A  
HETATM   21  C   UNL     1     -11.571  13.017  67.517  1.00  0.00    -0.356 A  
HETATM   22  I   UNL     1     -11.948  12.912  69.589  1.00  0.00    -0.126 I  
ENDBRANCH  12  13
ENDBRANCH  11  12
ENDBRANCH  10  11
ENDBRANCH   9  10
ENDBRANCH   8   9
ENDBRANCH   7   8
ENDBRANCH   6   7
ENDBRANCH   4   6
ENDBRANCH   3   4
ENDBRANCH   2   3
TORSDOF 10
ENDMDL
MODEL      292
REMARK 921   NORMALIZED FREE ENERGY PREDICTED BY IDOCK:   -3.02 KCAL/MOL
REMARK 922        TOTAL FREE ENERGY PREDICTED BY IDOCK:   -6.18 KCAL/MOL
REMARK 923 INTER-LIGAND FREE ENERGY PREDICTED BY IDOCK:   -3.92 KCAL/MOL
REMARK 924 INTRA-LIGAND FREE ENERGY PREDICTED BY IDOCK:   -2.26 KCAL/MOL
REMARK 927      BINDING AFFINITY PREDICTED BY RF-SCORE:    0.00 PKD
ROOT
HETATM    1  C   UNL     1      -8.748   5.386  65.442  1.00  0.00    -0.154 C  
HETATM    2  C   UNL     1      -7.818   5.252  66.634  1.00  0.00    -0.100 C  
ENDROOT
BRANCH   2   3
HETATM    3  O   UNL     1      -8.622   5.272  67.820  1.00  0.00    -0.105 OA 
BRANCH   3   4
HETATM    4  C   UNL     1      -7.955   5.643  68.949  1.00  0.00    -0.097 C  
HETATM    5  O   UNL     1      -6.750   5.535  69.124  1.00  0.00    -0.049 OA 
BRANCH   4   6
HETATM    6  C   UNL     1      -8.922   6.293  69.905  1.00  0.00    -0.141 C  
BRANCH   6   7
HETATM    7  C   UNL     1     -10.308   5.674  69.765  1.00  0.00    -0.352 C  
BRANCH   7   8
HETATM    8  C   UNL     1     -11.215   6.038  70.935  1.00  0.00    -0.335 C  
BRANCH   8   9
HETATM    9  C   UNL     1     -10.798   7.384  71.522  1.00  0.00    -0.247 C  
BRANCH   9  10
HETATM   10  C   UNL     1     -11.592   8.528  70.904  1.00  0.00    -0.295 C  
BRANCH  10  11
HETATM   11  C   UNL     1     -10.663   9.576  70.293  1.00  0.00    -0.315 C  
BRANCH  11  12
HETATM   12  C   UNL     1     -11.330  10.236  69.090  1.00  0.00    -0.244 C  
BRANCH  12  13
HETATM   13  C   UNL     1     -10.388  10.328  67.887  1.00  0.00    -0.234 C  
HETATM   14  C   UNL     1      -9.804   8.954  67.495  1.00  0.00    -0.237 C  
HETATM   15  C   UNL     1      -8.738   9.115  66.413  1.00  0.00    -0.147 A  
HETATM   16  C   UNL     1     -10.907   7.955  67.103  1.00  0.00    -0.187 C  
HETATM   17  C   UNL     1      -9.121   9.106  65.055  1.00  0.00    -0.215 A  
HETATM   18  C   UNL     1      -8.181   9.204  64.027  1.00  0.00    -0.168 A  
HETATM   19  C   UNL     1      -6.832   9.334  64.329  1.00  0.00    -0.090 A  
HETATM   20  C   UNL     1      -6.428   9.387  65.659  1.00  0.00    -0.069 A  
HETATM   21  C   UNL     1      -7.367   9.286  66.696  1.00  0.00    -0.086 A  
HETATM   22  I   UNL     1      -6.581   9.424  68.648  1.00  0.00    -0.052 I  
ENDBRANCH  12  13
ENDBRANCH  11  12
ENDBRANCH  10  11
ENDBRANCH   9  10
ENDBRANCH   8   9
ENDBRANCH   7   8
ENDBRANCH   6   7
ENDBRANCH   4   6
ENDBRANCH   3   4
ENDBRANCH   2   3
TORSDOF 10
ENDMDL
MODEL      293
REMARK 921   NORMALIZED FREE ENERGY PREDICTED BY IDOCK:   -3.01 KCAL/MOL
REMARK 922        TOTAL FREE ENERGY PREDICTED BY IDOCK:   -6.17 KCAL/MOL
REMARK 923 INTER-LIGAND FREE ENERGY PREDICTED BY IDOCK:   -4.94 KCAL/MOL
REMARK 924 INTRA-LIGAND FREE ENERGY PREDICTED BY IDOCK:   -1.23 KCAL/MOL
REMARK 927      BINDING AFFINITY PREDICTED BY RF-SCORE:    0.00 PKD
ROOT
HETATM    1  C   UNL     1      -6.060  13.936  69.957  1.00  0.00    -0.146 C  
HETATM    2  C   UNL     1      -6.829  14.675  68.877  1.00  0.00    -0.104 C  
ENDROOT
BRANCH   2   3
HETATM    3  O   UNL     1      -7.868  15.427  69.516  1.00  0.00    -0.220 OA 
BRANCH   3   4
HETATM    4  C   UNL     1      -8.227  16.567  68.861  1.00  0.00    -0.241 C  
HETATM    5  O   UNL     1      -7.450  17.403  68.423  1.00  0.00    -0.214 OA 
BRANCH   4   6
HETATM    6  C   UNL     1      -9.723  16.583  68.679  1.00  0.00    -0.247 C  
BRANCH   6   7
HETATM    7  C   UNL     1     -10.245  15.175  68.417  1.00  0.00    -0.221 C  
BRANCH   7   8
HETATM    8  C   UNL     1     -11.309  15.155  67.326  1.00  0.00    -0.305 C  
BRANCH   8   9
HETATM    9  C   UNL     1     -10.695  15.562  65.988  1.00  0.00    -0.331 C  
BRANCH   9  10
HETATM   10  C   UNL     1     -10.849  14.459  64.950  1.00  0.00    -0.430 C  
BRANCH  10  11
HETATM   11  C   UNL     1     -10.196  13.161  65.424  1.00  0.00    -0.301 C  
BRANCH  11  12
HETATM   12  C   UNL     1     -11.199  12.013  65.367  1.00  0.00    -0.374 C  
BRANCH  12  13
HETATM   13  C   UNL     1     -10.631  10.722  65.962  1.00  0.00    -0.224 C  
HETATM   14  C   UNL     1     -10.359  10.845  67.476  1.00  0.00    -0.237 C  
HETATM   15  C   UNL     1      -9.630   9.605  67.992  1.00  0.00    -0.161 A  
HETATM   16  C   UNL     1     -11.645  11.152  68.264  1.00  0.00    -0.359 C  
HETATM   17  C   UNL     1     -10.379   8.491  68.428  1.00  0.00    -0.241 A  
HETATM   18  C   UNL     1      -9.762   7.352  68.950  1.00  0.00    -0.150 A  
HETATM   19  C   UNL     1      -8.378   7.287  69.031  1.00  0.00    -0.126 A  
HETATM   20  C   UNL     1      -7.611   8.353  68.570  1.00  0.00    -0.096 A  
HETATM   21  C   UNL     1      -8.225   9.501  68.048  1.00  0.00    -0.114 A  
HETATM   22  I   UNL     1      -6.909  11.000  67.363  1.00  0.00    -0.103 I  
ENDBRANCH  12  13
ENDBRANCH  11  12
ENDBRANCH  10  11
ENDBRANCH   9  10
ENDBRANCH   8   9
ENDBRANCH   7   8
ENDBRANCH   6   7
ENDBRANCH   4   6
ENDBRANCH   3   4
ENDBRANCH   2   3
TORSDOF 10
ENDMDL
MODEL      294
REMARK 921   NORMALIZED FREE ENERGY PREDICTED BY IDOCK:   -3.00 KCAL/MOL
REMARK 922        TOTAL FREE ENERGY PREDICTED BY IDOCK:   -6.16 KCAL/MOL
REMARK 923 INTER-LIGAND FREE ENERGY PREDICTED BY IDOCK:   -5.65 KCAL/MOL
REMARK 924 INTRA-LIGAND FREE ENERGY PREDICTED BY IDOCK:   -0.51 KCAL/MOL
REMARK 927      BINDING AFFINITY PREDICTED BY RF-SCORE:    0.00 PKD
ROOT
HETATM    1  C   UNL     1     -10.527   8.132  66.928  1.00  0.00    -0.379 C  
HETATM    2  C   UNL     1      -9.121   8.491  67.373  1.00  0.00    -0.133 C  
ENDROOT
BRANCH   2   3
HETATM    3  O   UNL     1      -8.496   9.217  66.308  1.00  0.00    -0.119 OA 
BRANCH   3   4
HETATM    4  C   UNL     1      -8.351   8.510  65.151  1.00  0.00    -0.169 C  
HETATM    5  O   UNL     1      -8.108   7.315  65.081  1.00  0.00    -0.123 OA 
BRANCH   4   6
HETATM    6  C   UNL     1      -8.632   9.415  63.979  1.00  0.00    -0.222 C  
BRANCH   6   7
HETATM    7  C   UNL     1      -9.860  10.277  64.252  1.00  0.00    -0.357 C  
BRANCH   7   8
HETATM    8  C   UNL     1      -9.906  11.506  63.352  1.00  0.00    -0.422 C  
BRANCH   8   9
HETATM    9  C   UNL     1     -10.821  12.566  63.960  1.00  0.00    -0.446 C  
BRANCH   9  10
HETATM   10  C   UNL     1     -11.363  12.120  65.312  1.00  0.00    -0.386 C  
BRANCH  10  11
HETATM   11  C   UNL     1     -10.481  12.624  66.453  1.00  0.00    -0.267 C  
BRANCH  11  12
HETATM   12  C   UNL     1     -10.792  14.087  66.756  1.00  0.00    -0.294 C  
BRANCH  12  13
HETATM   13  C   UNL     1      -9.674  15.022  66.287  1.00  0.00    -0.316 C  
HETATM   14  C   UNL     1      -9.193  15.968  67.408  1.00  0.00    -0.214 C  
HETATM   15  C   UNL     1      -8.211  16.999  66.854  1.00  0.00    -0.245 A  
HETATM   16  C   UNL     1      -8.627  15.188  68.608  1.00  0.00    -0.172 C  
HETATM   17  C   UNL     1      -6.835  16.691  66.809  1.00  0.00    -0.252 A  
HETATM   18  C   UNL     1      -5.892  17.615  66.354  1.00  0.00    -0.243 A  
HETATM   19  C   UNL     1      -6.301  18.866  65.913  1.00  0.00    -0.252 A  
HETATM   20  C   UNL     1      -7.656  19.183  65.907  1.00  0.00    -0.239 A  
HETATM   21  C   UNL     1      -8.608  18.261  66.366  1.00  0.00    -0.242 A  
HETATM   22  I   UNL     1     -10.615  18.896  66.250  1.00  0.00    -0.154 I  
ENDBRANCH  12  13
ENDBRANCH  11  12
ENDBRANCH  10  11
ENDBRANCH   9  10
ENDBRANCH   8   9
ENDBRANCH   7   8
ENDBRANCH   6   7
ENDBRANCH   4   6
ENDBRANCH   3   4
ENDBRANCH   2   3
TORSDOF 10
ENDMDL
MODEL      295
REMARK 921   NORMALIZED FREE ENERGY PREDICTED BY IDOCK:   -3.00 KCAL/MOL
REMARK 922        TOTAL FREE ENERGY PREDICTED BY IDOCK:   -6.14 KCAL/MOL
REMARK 923 INTER-LIGAND FREE ENERGY PREDICTED BY IDOCK:   -4.18 KCAL/MOL
REMARK 924 INTRA-LIGAND FREE ENERGY PREDICTED BY IDOCK:   -1.97 KCAL/MOL
REMARK 927      BINDING AFFINITY PREDICTED BY RF-SCORE:    0.00 PKD
ROOT
HETATM    1  C   UNL     1      -8.803   8.570  71.964  1.00  0.00    -0.286 C  
HETATM    2  C   UNL     1      -9.460   9.221  70.761  1.00  0.00    -0.271 C  
ENDROOT
BRANCH   2   3
HETATM    3  O   UNL     1     -10.749   9.694  71.170  1.00  0.00    -0.329 OA 
BRANCH   3   4
HETATM    4  C   UNL     1     -11.464  10.309  70.185  1.00  0.00    -0.309 C  
HETATM    5  O   UNL     1     -12.659  10.562  70.234  1.00  0.00    -0.310 OA 
BRANCH   4   6
HETATM    6  C   UNL     1     -10.531  10.711  69.073  1.00  0.00    -0.237 C  
BRANCH   6   7
HETATM    7  C   UNL     1     -11.143  10.384  67.716  1.00  0.00    -0.365 C  
BRANCH   7   8
HETATM    8  C   UNL     1     -10.084  10.002  66.689  1.00  0.00    -0.289 C  
BRANCH   8   9
HETATM    9  C   UNL     1      -8.835  10.861  66.882  1.00  0.00    -0.145 C  
BRANCH   9  10
HETATM   10  C   UNL     1      -7.637  10.268  66.153  1.00  0.00    -0.124 C  
BRANCH  10  11
HETATM   11  C   UNL     1      -7.661   8.741  66.206  1.00  0.00    -0.091 C  
BRANCH  11  12
HETATM   12  C   UNL     1      -6.563   8.227  67.132  1.00  0.00    -0.058 C  
BRANCH  12  13
HETATM   13  C   UNL     1      -7.133   7.595  68.404  1.00  0.00    -0.081 C  
HETATM   14  C   UNL     1      -7.449   6.096  68.223  1.00  0.00    -0.087 C  
HETATM   15  C   UNL     1      -8.178   5.550  69.450  1.00  0.00    -0.098 A  
HETATM   16  C   UNL     1      -6.190   5.286  67.867  1.00  0.00    -0.038 C  
HETATM   17  C   UNL     1      -7.429   5.046  70.534  1.00  0.00    -0.062 A  
HETATM   18  C   UNL     1      -8.047   4.495  71.659  1.00  0.00    -0.101 A  
HETATM   19  C   UNL     1      -9.432   4.450  71.739  1.00  0.00    -0.206 A  
HETATM   20  C   UNL     1     -10.198   4.977  70.703  1.00  0.00    -0.306 A  
HETATM   21  C   UNL     1      -9.583   5.529  69.569  1.00  0.00    -0.151 A  
HETATM   22  I   UNL     1     -10.896   6.313  68.117  1.00  0.00    -0.237 I  
ENDBRANCH  12  13
ENDBRANCH  11  12
ENDBRANCH  10  11
ENDBRANCH   9  10
ENDBRANCH   8   9
ENDBRANCH   7   8
ENDBRANCH   6   7
ENDBRANCH   4   6
ENDBRANCH   3   4
ENDBRANCH   2   3
TORSDOF 10
ENDMDL
MODEL      296
REMARK 921   NORMALIZED FREE ENERGY PREDICTED BY IDOCK:   -2.99 KCAL/MOL
REMARK 922        TOTAL FREE ENERGY PREDICTED BY IDOCK:   -6.13 KCAL/MOL
REMARK 923 INTER-LIGAND FREE ENERGY PREDICTED BY IDOCK:   -5.22 KCAL/MOL
REMARK 924 INTRA-LIGAND FREE ENERGY PREDICTED BY IDOCK:   -0.91 KCAL/MOL
REMARK 927      BINDING AFFINITY PREDICTED BY RF-SCORE:    0.00 PKD
ROOT
HETATM    1  C   UNL     1      -6.575  19.573  68.163  1.00  0.00    -0.289 C  
HETATM    2  C   UNL     1      -7.353  18.712  67.184  1.00  0.00    -0.210 C  
ENDROOT
BRANCH   2   3
HETATM    3  O   UNL     1      -8.637  19.318  66.992  1.00  0.00    -0.272 OA 
BRANCH   3   4
HETATM    4  C   UNL     1      -9.601  18.887  67.855  1.00  0.00    -0.316 C  
HETATM    5  O   UNL     1     -10.171  19.584  68.681  1.00  0.00    -0.428 OA 
BRANCH   4   6
HETATM    6  C   UNL     1      -9.916  17.443  67.563  1.00  0.00    -0.298 C  
BRANCH   6   7
HETATM    7  C   UNL     1      -9.732  16.592  68.814  1.00  0.00    -0.251 C  
BRANCH   7   8
HETATM    8  C   UNL     1      -9.292  15.172  68.478  1.00  0.00    -0.192 C  
BRANCH   8   9
HETATM    9  C   UNL     1     -10.436  14.414  67.808  1.00  0.00    -0.245 C  
BRANCH   9  10
HETATM   10  C   UNL     1     -10.010  13.847  66.460  1.00  0.00    -0.288 C  
BRANCH  10  11
HETATM   11  C   UNL     1      -9.552  12.395  66.594  1.00  0.00    -0.230 C  
BRANCH  11  12
HETATM   12  C   UNL     1     -10.723  11.447  66.357  1.00  0.00    -0.325 C  
BRANCH  12  13
HETATM   13  C   UNL     1     -10.531  10.105  67.068  1.00  0.00    -0.302 C  
HETATM   14  C   UNL     1     -10.141  10.279  68.552  1.00  0.00    -0.181 C  
HETATM   15  C   UNL     1      -9.785   8.930  69.174  1.00  0.00    -0.168 A  
HETATM   16  C   UNL     1     -11.225  11.034  69.342  1.00  0.00    -0.332 C  
HETATM   17  C   UNL     1     -10.803   8.142  69.750  1.00  0.00    -0.190 A  
HETATM   18  C   UNL     1     -10.524   6.923  70.371  1.00  0.00    -0.229 A  
HETATM   19  C   UNL     1      -9.220   6.448  70.416  1.00  0.00    -0.159 A  
HETATM   20  C   UNL     1      -8.200   7.184  69.819  1.00  0.00    -0.131 A  
HETATM   21  C   UNL     1      -8.474   8.411  69.197  1.00  0.00    -0.123 A  
HETATM   22  I   UNL     1      -6.816   9.370  68.315  1.00  0.00    -0.063 I  
ENDBRANCH  12  13
ENDBRANCH  11  12
ENDBRANCH  10  11
ENDBRANCH   9  10
ENDBRANCH   8   9
ENDBRANCH   7   8
ENDBRANCH   6   7
ENDBRANCH   4   6
ENDBRANCH   3   4
ENDBRANCH   2   3
TORSDOF 10
ENDMDL
MODEL      297
REMARK 921   NORMALIZED FREE ENERGY PREDICTED BY IDOCK:   -2.99 KCAL/MOL
REMARK 922        TOTAL FREE ENERGY PREDICTED BY IDOCK:   -6.13 KCAL/MOL
REMARK 923 INTER-LIGAND FREE ENERGY PREDICTED BY IDOCK:   -5.17 KCAL/MOL
REMARK 924 INTRA-LIGAND FREE ENERGY PREDICTED BY IDOCK:   -0.96 KCAL/MOL
REMARK 927      BINDING AFFINITY PREDICTED BY RF-SCORE:    0.00 PKD
ROOT
HETATM    1  C   UNL     1      -6.886   6.091  63.250  1.00  0.00    -0.044 C  
HETATM    2  C   UNL     1      -8.136   5.358  62.799  1.00  0.00    -0.099 C  
ENDROOT
BRANCH   2   3
HETATM    3  O   UNL     1      -8.753   4.790  63.961  1.00  0.00    -0.141 OA 
BRANCH   3   4
HETATM    4  C   UNL     1      -8.379   3.507  64.230  1.00  0.00    -0.090 C  
HETATM    5  O   UNL     1      -7.899   2.728  63.419  1.00  0.00    -0.069 OA 
BRANCH   4   6
HETATM    6  C   UNL     1      -8.562   3.235  65.700  1.00  0.00    -0.115 C  
BRANCH   6   7
HETATM    7  C   UNL     1      -7.993   4.380  66.530  1.00  0.00    -0.099 C  
BRANCH   7   8
HETATM    8  C   UNL     1      -8.942   4.801  67.647  1.00  0.00    -0.120 C  
BRANCH   8   9
HETATM    9  C   UNL     1     -10.046   5.695  67.086  1.00  0.00    -0.215 C  
BRANCH   9  10
HETATM   10  C   UNL     1      -9.642   7.163  67.122  1.00  0.00    -0.191 C  
BRANCH  10  11
HETATM   11  C   UNL     1     -10.341   7.899  68.265  1.00  0.00    -0.239 C  
BRANCH  11  12
HETATM   12  C   UNL     1      -9.968   9.378  68.248  1.00  0.00    -0.197 C  
BRANCH  12  13
HETATM   13  C   UNL     1     -10.810  10.173  67.247  1.00  0.00    -0.295 C  
HETATM   14  C   UNL     1      -9.996  11.283  66.549  1.00  0.00    -0.247 C  
HETATM   15  C   UNL     1     -10.910  12.163  65.698  1.00  0.00    -0.323 A  
HETATM   16  C   UNL     1      -8.811  10.707  65.753  1.00  0.00    -0.198 C  
HETATM   17  C   UNL     1     -11.172  11.801  64.360  1.00  0.00    -0.383 A  
HETATM   18  C   UNL     1     -11.963  12.595  63.527  1.00  0.00    -0.630 A  
HETATM   19  C   UNL     1     -12.533  13.763  64.016  1.00  0.00    -0.280 A  
HETATM   20  C   UNL     1     -12.327  14.124  65.344  1.00  0.00    -0.475 A  
HETATM   21  C   UNL     1     -11.530  13.333  66.184  1.00  0.00    -0.328 A  
HETATM   22  I   UNL     1     -11.357  14.012  68.173  1.00  0.00    -0.391 I  
ENDBRANCH  12  13
ENDBRANCH  11  12
ENDBRANCH  10  11
ENDBRANCH   9  10
ENDBRANCH   8   9
ENDBRANCH   7   8
ENDBRANCH   6   7
ENDBRANCH   4   6
ENDBRANCH   3   4
ENDBRANCH   2   3
TORSDOF 10
ENDMDL
MODEL      298
REMARK 921   NORMALIZED FREE ENERGY PREDICTED BY IDOCK:   -2.99 KCAL/MOL
REMARK 922        TOTAL FREE ENERGY PREDICTED BY IDOCK:   -6.13 KCAL/MOL
REMARK 923 INTER-LIGAND FREE ENERGY PREDICTED BY IDOCK:   -4.59 KCAL/MOL
REMARK 924 INTRA-LIGAND FREE ENERGY PREDICTED BY IDOCK:   -1.54 KCAL/MOL
REMARK 927      BINDING AFFINITY PREDICTED BY RF-SCORE:    0.00 PKD
ROOT
HETATM    1  C   UNL     1     -13.648   7.467  71.356  1.00  0.00    -0.410 C  
HETATM    2  C   UNL     1     -12.537   8.293  71.978  1.00  0.00    -0.349 C  
ENDROOT
BRANCH   2   3
HETATM    3  O   UNL     1     -12.572   9.595  71.379  1.00  0.00    -0.324 OA 
BRANCH   3   4
HETATM    4  C   UNL     1     -11.436   9.940  70.710  1.00  0.00    -0.354 C  
HETATM    5  O   UNL     1     -10.302   9.867  71.161  1.00  0.00    -0.154 OA 
BRANCH   4   6
HETATM    6  C   UNL     1     -11.792  10.333  69.300  1.00  0.00    -0.081 C  
BRANCH   6   7
HETATM    7  C   UNL     1     -10.874  11.446  68.808  1.00  0.00    -0.251 C  
BRANCH   7   8
HETATM    8  C   UNL     1     -11.420  12.124  67.556  1.00  0.00    -0.410 C  
BRANCH   8   9
HETATM    9  C   UNL     1     -10.375  12.085  66.443  1.00  0.00    -0.246 C  
BRANCH   9  10
HETATM   10  C   UNL     1      -9.008  11.684  66.980  1.00  0.00    -0.182 C  
BRANCH  10  11
HETATM   11  C   UNL     1      -8.507  10.404  66.311  1.00  0.00    -0.145 C  
BRANCH  11  12
HETATM   12  C   UNL     1      -7.508   9.690  67.216  1.00  0.00    -0.088 C  
BRANCH  12  13
HETATM   13  C   UNL     1      -8.175   9.109  68.465  1.00  0.00    -0.115 C  
HETATM   14  C   UNL     1      -7.680   7.682  68.783  1.00  0.00    -0.118 C  
HETATM   15  C   UNL     1      -8.496   7.073  69.922  1.00  0.00    -0.140 A  
HETATM   16  C   UNL     1      -6.165   7.650  69.051  1.00  0.00    -0.035 C  
HETATM   17  C   UNL     1      -8.091   7.287  71.257  1.00  0.00    -0.102 A  
HETATM   18  C   UNL     1      -8.776   6.715  72.331  1.00  0.00    -0.129 A  
HETATM   19  C   UNL     1      -9.898   5.930  72.102  1.00  0.00    -0.185 A  
HETATM   20  C   UNL     1     -10.346   5.736  70.799  1.00  0.00    -0.301 A  
HETATM   21  C   UNL     1      -9.660   6.304  69.715  1.00  0.00    -0.151 A  
HETATM   22  I   UNL     1     -10.501   5.936  67.816  1.00  0.00    -0.321 I  
ENDBRANCH  12  13
ENDBRANCH  11  12
ENDBRANCH  10  11
ENDBRANCH   9  10
ENDBRANCH   8   9
ENDBRANCH   7   8
ENDBRANCH   6   7
ENDBRANCH   4   6
ENDBRANCH   3   4
ENDBRANCH   2   3
TORSDOF 10
ENDMDL
MODEL      299
REMARK 921   NORMALIZED FREE ENERGY PREDICTED BY IDOCK:   -2.99 KCAL/MOL
REMARK 922        TOTAL FREE ENERGY PREDICTED BY IDOCK:   -6.13 KCAL/MOL
REMARK 923 INTER-LIGAND FREE ENERGY PREDICTED BY IDOCK:   -5.76 KCAL/MOL
REMARK 924 INTRA-LIGAND FREE ENERGY PREDICTED BY IDOCK:   -0.36 KCAL/MOL
REMARK 927      BINDING AFFINITY PREDICTED BY RF-SCORE:    0.00 PKD
ROOT
HETATM    1  C   UNL     1     -13.873  13.811  72.422  1.00  0.00    -0.681 C  
HETATM    2  C   UNL     1     -13.276  15.172  72.114  1.00  0.00    -0.376 C  
ENDROOT
BRANCH   2   3
HETATM    3  O   UNL     1     -11.899  14.978  71.769  1.00  0.00    -0.350 OA 
BRANCH   3   4
HETATM    4  C   UNL     1     -11.572  15.371  70.505  1.00  0.00    -0.326 C  
HETATM    5  O   UNL     1     -10.967  16.394  70.219  1.00  0.00    -0.343 OA 
BRANCH   4   6
HETATM    6  C   UNL     1     -11.989  14.301  69.530  1.00  0.00    -0.384 C  
BRANCH   6   7
HETATM    7  C   UNL     1     -11.074  14.304  68.310  1.00  0.00    -0.276 C  
BRANCH   7   8
HETATM    8  C   UNL     1     -11.792  13.814  67.058  1.00  0.00    -0.445 C  
BRANCH   8   9
HETATM    9  C   UNL     1     -10.785  13.208  66.082  1.00  0.00    -0.289 C  
BRANCH   9  10
HETATM   10  C   UNL     1     -11.410  12.081  65.271  1.00  0.00    -0.366 C  
BRANCH  10  11
HETATM   11  C   UNL     1     -10.464  10.886  65.168  1.00  0.00    -0.316 C  
BRANCH  11  12
HETATM   12  C   UNL     1      -9.119  11.219  65.807  1.00  0.00    -0.216 C  
BRANCH  12  13
HETATM   13  C   UNL     1      -8.349   9.962  66.218  1.00  0.00    -0.125 C  
HETATM   14  C   UNL     1      -8.627   8.771  65.277  1.00  0.00    -0.212 C  
HETATM   15  C   UNL     1      -7.985   7.496  65.823  1.00  0.00    -0.117 A  
HETATM   16  C   UNL     1      -8.208   9.077  63.829  1.00  0.00    -0.173 C  
HETATM   17  C   UNL     1      -6.653   7.188  65.478  1.00  0.00    -0.048 A  
HETATM   18  C   UNL     1      -6.035   6.014  65.913  1.00  0.00    -0.029 A  
HETATM   19  C   UNL     1      -6.727   5.123  66.723  1.00  0.00    -0.061 A  
HETATM   20  C   UNL     1      -8.029   5.420  67.114  1.00  0.00    -0.101 A  
HETATM   21  C   UNL     1      -8.656   6.596  66.677  1.00  0.00    -0.123 A  
HETATM   22  I   UNL     1     -10.615   6.901  67.397  1.00  0.00    -0.407 I  
ENDBRANCH  12  13
ENDBRANCH  11  12
ENDBRANCH  10  11
ENDBRANCH   9  10
ENDBRANCH   8   9
ENDBRANCH   7   8
ENDBRANCH   6   7
ENDBRANCH   4   6
ENDBRANCH   3   4
ENDBRANCH   2   3
TORSDOF 10
ENDMDL
MODEL      300
REMARK 921   NORMALIZED FREE ENERGY PREDICTED BY IDOCK:   -2.98 KCAL/MOL
REMARK 922        TOTAL FREE ENERGY PREDICTED BY IDOCK:   -6.13 KCAL/MOL
REMARK 923 INTER-LIGAND FREE ENERGY PREDICTED BY IDOCK:   -5.61 KCAL/MOL
REMARK 924 INTRA-LIGAND FREE ENERGY PREDICTED BY IDOCK:   -0.52 KCAL/MOL
REMARK 927      BINDING AFFINITY PREDICTED BY RF-SCORE:    0.00 PKD
ROOT
HETATM    1  C   UNL     1     -14.040  15.488  71.943  1.00  0.00    -0.586 C  
HETATM    2  C   UNL     1     -12.673  15.404  72.596  1.00  0.00    -0.392 C  
ENDROOT
BRANCH   2   3
HETATM    3  O   UNL     1     -11.862  14.528  71.802  1.00  0.00    -0.306 OA 
BRANCH   3   4
HETATM    4  C   UNL     1     -12.013  14.684  70.456  1.00  0.00    -0.310 C  
HETATM    5  O   UNL     1     -12.871  14.142  69.776  1.00  0.00    -0.101 OA 
BRANCH   4   6
HETATM    6  C   UNL     1     -11.017  15.700  69.961  1.00  0.00    -0.336 C  
BRANCH   6   7
HETATM    7  C   UNL     1     -11.493  16.321  68.653  1.00  0.00    -0.288 C  
BRANCH   7   8
HETATM    8  C   UNL     1     -10.354  16.492  67.654  1.00  0.00    -0.291 C  
BRANCH   8   9
HETATM    9  C   UNL     1     -10.301  15.292  66.711  1.00  0.00    -0.279 C  
BRANCH   9  10
HETATM   10  C   UNL     1      -8.949  14.594  66.778  1.00  0.00    -0.283 C  
BRANCH  10  11
HETATM   11  C   UNL     1      -9.108  13.077  66.695  1.00  0.00    -0.181 C  
BRANCH  11  12
HETATM   12  C   UNL     1     -10.506  12.666  67.145  1.00  0.00    -0.245 C  
BRANCH  12  13
HETATM   13  C   UNL     1     -10.730  11.157  67.021  1.00  0.00    -0.316 C  
HETATM   14  C   UNL     1      -9.597  10.339  67.677  1.00  0.00    -0.173 C  
HETATM   15  C   UNL     1      -9.766   8.851  67.375  1.00  0.00    -0.227 A  
HETATM   16  C   UNL     1      -9.479  10.634  69.183  1.00  0.00    -0.185 C  
HETATM   17  C   UNL     1     -10.554   8.055  68.233  1.00  0.00    -0.155 A  
HETATM   18  C   UNL     1     -10.703   6.682  68.028  1.00  0.00    -0.330 A  
HETATM   19  C   UNL     1     -10.085   6.070  66.946  1.00  0.00    -0.229 A  
HETATM   20  C   UNL     1      -9.336   6.837  66.058  1.00  0.00    -0.030 A  
HETATM   21  C   UNL     1      -9.179   8.216  66.262  1.00  0.00    -0.191 A  
HETATM   22  I   UNL     1      -8.043   9.225  64.799  1.00  0.00    -0.175 I  
ENDBRANCH  12  13
ENDBRANCH  11  12
ENDBRANCH  10  11
ENDBRANCH   9  10
ENDBRANCH   8   9
ENDBRANCH   7   8
ENDBRANCH   6   7
ENDBRANCH   4   6
ENDBRANCH   3   4
ENDBRANCH   2   3
TORSDOF 10
ENDMDL
MODEL      301
REMARK 921   NORMALIZED FREE ENERGY PREDICTED BY IDOCK:   -2.98 KCAL/MOL
REMARK 922        TOTAL FREE ENERGY PREDICTED BY IDOCK:   -6.12 KCAL/MOL
REMARK 923 INTER-LIGAND FREE ENERGY PREDICTED BY IDOCK:   -6.01 KCAL/MOL
REMARK 924 INTRA-LIGAND FREE ENERGY PREDICTED BY IDOCK:   -0.11 KCAL/MOL
REMARK 927      BINDING AFFINITY PREDICTED BY RF-SCORE:    0.00 PKD
ROOT
HETATM    1  C   UNL     1     -14.083   8.641  72.305  1.00  0.00    -0.491 C  
HETATM    2  C   UNL     1     -12.986   9.631  71.956  1.00  0.00    -0.428 C  
ENDROOT
BRANCH   2   3
HETATM    3  O   UNL     1     -11.959   8.918  71.257  1.00  0.00    -0.288 OA 
BRANCH   3   4
HETATM    4  C   UNL     1     -11.929   7.578  71.508  1.00  0.00    -0.307 C  
HETATM    5  O   UNL     1     -12.147   7.059  72.593  1.00  0.00    -0.066 OA 
BRANCH   4   6
HETATM    6  C   UNL     1     -11.681   6.838  70.219  1.00  0.00    -0.397 C  
BRANCH   6   7
HETATM    7  C   UNL     1     -10.679   5.710  70.435  1.00  0.00    -0.352 C  
BRANCH   7   8
HETATM    8  C   UNL     1      -9.422   5.896  69.593  1.00  0.00    -0.172 C  
BRANCH   8   9
HETATM    9  C   UNL     1      -8.768   7.238  69.918  1.00  0.00    -0.141 C  
BRANCH   9  10
HETATM   10  C   UNL     1      -7.283   7.226  69.580  1.00  0.00    -0.080 C  
BRANCH  10  11
HETATM   11  C   UNL     1      -6.932   8.349  68.605  1.00  0.00    -0.068 C  
BRANCH  11  12
HETATM   12  C   UNL     1      -7.598   8.105  67.254  1.00  0.00    -0.097 C  
BRANCH  12  13
HETATM   13  C   UNL     1      -8.314   9.352  66.731  1.00  0.00    -0.123 C  
HETATM   14  C   UNL     1      -9.665   9.016  66.064  1.00  0.00    -0.339 C  
HETATM   15  C   UNL     1     -10.259  10.257  65.401  1.00  0.00    -0.312 A  
HETATM   16  C   UNL     1     -10.637   8.343  67.051  1.00  0.00    -0.316 C  
HETATM   17  C   UNL     1     -11.083  11.119  66.155  1.00  0.00    -0.152 A  
HETATM   18  C   UNL     1     -11.687  12.241  65.583  1.00  0.00    -0.440 A  
HETATM   19  C   UNL     1     -11.466  12.544  64.247  1.00  0.00    -0.423 A  
HETATM   20  C   UNL     1     -10.624  11.736  63.489  1.00  0.00    -0.499 A  
HETATM   21  C   UNL     1     -10.018  10.605  64.056  1.00  0.00    -0.337 A  
HETATM   22  I   UNL     1      -8.747   9.518  62.772  1.00  0.00    -0.184 I  
ENDBRANCH  12  13
ENDBRANCH  11  12
ENDBRANCH  10  11
ENDBRANCH   9  10
ENDBRANCH   8   9
ENDBRANCH   7   8
ENDBRANCH   6   7
ENDBRANCH   4   6
ENDBRANCH   3   4
ENDBRANCH   2   3
TORSDOF 10
ENDMDL
MODEL      302
REMARK 921   NORMALIZED FREE ENERGY PREDICTED BY IDOCK:   -2.98 KCAL/MOL
REMARK 922        TOTAL FREE ENERGY PREDICTED BY IDOCK:   -6.12 KCAL/MOL
REMARK 923 INTER-LIGAND FREE ENERGY PREDICTED BY IDOCK:   -5.54 KCAL/MOL
REMARK 924 INTRA-LIGAND FREE ENERGY PREDICTED BY IDOCK:   -0.58 KCAL/MOL
REMARK 927      BINDING AFFINITY PREDICTED BY RF-SCORE:    0.00 PKD
ROOT
HETATM    1  C   UNL     1     -12.395  15.683  74.290  1.00  0.00    -0.813 C  
HETATM    2  C   UNL     1     -12.159  15.879  72.804  1.00  0.00    -0.505 C  
ENDROOT
BRANCH   2   3
HETATM    3  O   UNL     1     -13.358  15.502  72.116  1.00  0.00    -0.402 OA 
BRANCH   3   4
HETATM    4  C   UNL     1     -13.430  14.182  71.787  1.00  0.00    -0.390 C  
HETATM    5  O   UNL     1     -13.922  13.306  72.484  1.00  0.00    -0.701 OA 
BRANCH   4   6
HETATM    6  C   UNL     1     -12.894  13.990  70.391  1.00  0.00    -0.231 C  
BRANCH   6   7
HETATM    7  C   UNL     1     -11.817  12.911  70.376  1.00  0.00    -0.239 C  
BRANCH   7   8
HETATM    8  C   UNL     1     -12.265  11.668  69.618  1.00  0.00    -0.271 C  
BRANCH   8   9
HETATM    9  C   UNL     1     -12.504  10.517  70.593  1.00  0.00    -0.456 C  
BRANCH   9  10
HETATM   10  C   UNL     1     -11.194   9.863  71.009  1.00  0.00    -0.435 C  
BRANCH  10  11
HETATM   11  C   UNL     1     -10.754   8.813  69.989  1.00  0.00    -0.236 C  
BRANCH  11  12
HETATM   12  C   UNL     1      -9.338   8.336  70.298  1.00  0.00    -0.159 C  
BRANCH  12  13
HETATM   13  C   UNL     1      -9.168   6.836  70.044  1.00  0.00    -0.158 C  
HETATM   14  C   UNL     1      -7.856   6.286  70.641  1.00  0.00    -0.107 C  
HETATM   15  C   UNL     1      -7.639   4.835  70.213  1.00  0.00    -0.057 A  
HETATM   16  C   UNL     1      -7.802   6.471  72.168  1.00  0.00    -0.098 C  
HETATM   17  C   UNL     1      -8.186   3.793  70.990  1.00  0.00    -0.077 A  
HETATM   18  C   UNL     1      -7.978   2.451  70.667  1.00  0.00    -0.050 A  
HETATM   19  C   UNL     1      -7.234   2.113  69.545  1.00  0.00    -0.043 A  
HETATM   20  C   UNL     1      -6.717   3.120  68.735  1.00  0.00    -0.040 A  
HETATM   21  C   UNL     1      -6.919   4.470  69.056  1.00  0.00    -0.051 A  
HETATM   22  I   UNL     1      -6.096   5.858  67.699  1.00  0.00    -0.024 I  
ENDBRANCH  12  13
ENDBRANCH  11  12
ENDBRANCH  10  11
ENDBRANCH   9  10
ENDBRANCH   8   9
ENDBRANCH   7   8
ENDBRANCH   6   7
ENDBRANCH   4   6
ENDBRANCH   3   4
ENDBRANCH   2   3
TORSDOF 10
ENDMDL
MODEL      303
REMARK 921   NORMALIZED FREE ENERGY PREDICTED BY IDOCK:   -2.97 KCAL/MOL
REMARK 922        TOTAL FREE ENERGY PREDICTED BY IDOCK:   -6.11 KCAL/MOL
REMARK 923 INTER-LIGAND FREE ENERGY PREDICTED BY IDOCK:   -4.87 KCAL/MOL
REMARK 924 INTRA-LIGAND FREE ENERGY PREDICTED BY IDOCK:   -1.24 KCAL/MOL
REMARK 927      BINDING AFFINITY PREDICTED BY RF-SCORE:    0.00 PKD
ROOT
HETATM    1  C   UNL     1     -12.150  13.034  63.494  1.00  0.00    -0.617 C  
HETATM    2  C   UNL     1     -12.420  13.436  64.932  1.00  0.00    -0.396 C  
ENDROOT
BRANCH   2   3
HETATM    3  O   UNL     1     -12.289  12.264  65.747  1.00  0.00    -0.622 OA 
BRANCH   3   4
HETATM    4  C   UNL     1     -11.664  12.471  66.940  1.00  0.00    -0.377 C  
HETATM    5  O   UNL     1     -12.042  13.242  67.810  1.00  0.00    -0.331 OA 
BRANCH   4   6
HETATM    6  C   UNL     1     -10.490  11.533  67.054  1.00  0.00    -0.263 C  
BRANCH   6   7
HETATM    7  C   UNL     1     -10.332  10.718  65.775  1.00  0.00    -0.295 C  
BRANCH   7   8
HETATM    8  C   UNL     1      -9.221   9.681  65.894  1.00  0.00    -0.246 C  
BRANCH   8   9
HETATM    9  C   UNL     1      -8.228  10.100  66.976  1.00  0.00    -0.118 C  
BRANCH   9  10
HETATM   10  C   UNL     1      -7.850   8.923  67.866  1.00  0.00    -0.102 C  
BRANCH  10  11
HETATM   11  C   UNL     1      -8.561   9.004  69.217  1.00  0.00    -0.136 C  
BRANCH  11  12
HETATM   12  C   UNL     1      -9.814   8.134  69.208  1.00  0.00    -0.182 C  
BRANCH  12  13
HETATM   13  C   UNL     1      -9.561   6.766  68.570  1.00  0.00    -0.130 C  
HETATM   14  C   UNL     1      -9.175   5.695  69.612  1.00  0.00    -0.163 C  
HETATM   15  C   UNL     1      -8.759   4.399  68.919  1.00  0.00    -0.114 A  
HETATM   16  C   UNL     1     -10.290   5.485  70.653  1.00  0.00    -0.332 C  
HETATM   17  C   UNL     1      -9.740   3.436  68.601  1.00  0.00    -0.004 A  
HETATM   18  C   UNL     1      -9.405   2.217  68.009  1.00  0.00    -0.244 A  
HETATM   19  C   UNL     1      -8.082   1.934  67.700  1.00  0.00    -0.068 A  
HETATM   20  C   UNL     1      -7.097   2.881  67.964  1.00  0.00    -0.049 A  
HETATM   21  C   UNL     1      -7.426   4.106  68.562  1.00  0.00    -0.059 A  
HETATM   22  I   UNL     1      -5.814   5.434  68.855  1.00  0.00    -0.022 I  
ENDBRANCH  12  13
ENDBRANCH  11  12
ENDBRANCH  10  11
ENDBRANCH   9  10
ENDBRANCH   8   9
ENDBRANCH   7   8
ENDBRANCH   6   7
ENDBRANCH   4   6
ENDBRANCH   3   4
ENDBRANCH   2   3
TORSDOF 10
ENDMDL
MODEL      304
REMARK 921   NORMALIZED FREE ENERGY PREDICTED BY IDOCK:   -2.97 KCAL/MOL
REMARK 922        TOTAL FREE ENERGY PREDICTED BY IDOCK:   -6.11 KCAL/MOL
REMARK 923 INTER-LIGAND FREE ENERGY PREDICTED BY IDOCK:   -4.98 KCAL/MOL
REMARK 924 INTRA-LIGAND FREE ENERGY PREDICTED BY IDOCK:   -1.13 KCAL/MOL
REMARK 927      BINDING AFFINITY PREDICTED BY RF-SCORE:    0.00 PKD
ROOT
HETATM    1  C   UNL     1     -10.626   7.910  66.992  1.00  0.00    -0.381 C  
HETATM    2  C   UNL     1      -9.457   8.645  67.622  1.00  0.00    -0.141 C  
ENDROOT
BRANCH   2   3
HETATM    3  O   UNL     1      -8.764   9.342  66.579  1.00  0.00    -0.127 OA 
BRANCH   3   4
HETATM    4  C   UNL     1      -8.177   8.533  65.652  1.00  0.00    -0.130 C  
HETATM    5  O   UNL     1      -7.861   7.366  65.833  1.00  0.00    -0.094 OA 
BRANCH   4   6
HETATM    6  C   UNL     1      -8.067   9.276  64.346  1.00  0.00    -0.142 C  
BRANCH   6   7
HETATM    7  C   UNL     1      -9.390   9.950  64.001  1.00  0.00    -0.280 C  
BRANCH   7   8
HETATM    8  C   UNL     1      -9.185  11.341  63.412  1.00  0.00    -0.189 C  
BRANCH   8   9
HETATM    9  C   UNL     1     -10.361  12.243  63.780  1.00  0.00    -0.464 C  
BRANCH   9  10
HETATM   10  C   UNL     1     -11.400  11.492  64.601  1.00  0.00    -0.226 C  
BRANCH  10  11
HETATM   11  C   UNL     1     -11.194  11.726  66.097  1.00  0.00    -0.363 C  
BRANCH  11  12
HETATM   12  C   UNL     1     -11.608  13.146  66.472  1.00  0.00    -0.402 C  
BRANCH  12  13
HETATM   13  C   UNL     1     -10.606  13.806  67.422  1.00  0.00    -0.260 C  
HETATM   14  C   UNL     1      -9.415  14.437  66.671  1.00  0.00    -0.300 C  
HETATM   15  C   UNL     1      -8.356  14.924  67.658  1.00  0.00    -0.178 A  
HETATM   16  C   UNL     1      -9.873  15.537  65.696  1.00  0.00    -0.377 C  
HETATM   17  C   UNL     1      -8.446  16.230  68.185  1.00  0.00    -0.174 A  
HETATM   18  C   UNL     1      -7.480  16.738  69.055  1.00  0.00    -0.228 A  
HETATM   19  C   UNL     1      -6.406  15.947  69.439  1.00  0.00    -0.160 A  
HETATM   20  C   UNL     1      -6.311  14.641  68.969  1.00  0.00    -0.094 A  
HETATM   21  C   UNL     1      -7.277  14.126  68.092  1.00  0.00    -0.128 A  
HETATM   22  I   UNL     1      -6.995  12.118  67.511  1.00  0.00    -0.143 I  
ENDBRANCH  12  13
ENDBRANCH  11  12
ENDBRANCH  10  11
ENDBRANCH   9  10
ENDBRANCH   8   9
ENDBRANCH   7   8
ENDBRANCH   6   7
ENDBRANCH   4   6
ENDBRANCH   3   4
ENDBRANCH   2   3
TORSDOF 10
ENDMDL
MODEL      305
REMARK 921   NORMALIZED FREE ENERGY PREDICTED BY IDOCK:   -2.97 KCAL/MOL
REMARK 922        TOTAL FREE ENERGY PREDICTED BY IDOCK:   -6.11 KCAL/MOL
REMARK 923 INTER-LIGAND FREE ENERGY PREDICTED BY IDOCK:   -4.79 KCAL/MOL
REMARK 924 INTRA-LIGAND FREE ENERGY PREDICTED BY IDOCK:   -1.32 KCAL/MOL
REMARK 927      BINDING AFFINITY PREDICTED BY RF-SCORE:    0.00 PKD
ROOT
HETATM    1  C   UNL     1      -9.204   7.995  72.755  1.00  0.00    -0.318 C  
HETATM    2  C   UNL     1     -10.257   7.404  73.674  1.00  0.00    -0.329 C  
ENDROOT
BRANCH   2   3
HETATM    3  O   UNL     1      -9.889   6.046  73.945  1.00  0.00    -0.164 OA 
BRANCH   3   4
HETATM    4  C   UNL     1     -10.610   5.116  73.258  1.00  0.00    -0.239 C  
HETATM    5  O   UNL     1     -11.767   5.253  72.888  1.00  0.00    -0.295 OA 
BRANCH   4   6
HETATM    6  C   UNL     1      -9.726   3.937  72.944  1.00  0.00    -0.179 C  
BRANCH   6   7
HETATM    7  C   UNL     1      -9.768   3.619  71.453  1.00  0.00    -0.241 C  
BRANCH   7   8
HETATM    8  C   UNL     1      -9.066   4.688  70.623  1.00  0.00    -0.181 C  
BRANCH   8   9
HETATM    9  C   UNL     1     -10.050   5.313  69.636  1.00  0.00    -0.327 C  
BRANCH   9  10
HETATM   10  C   UNL     1      -9.344   5.773  68.367  1.00  0.00    -0.130 C  
BRANCH  10  11
HETATM   11  C   UNL     1     -10.270   5.676  67.156  1.00  0.00    -0.255 C  
BRANCH  11  12
HETATM   12  C   UNL     1     -10.869   7.042  66.836  1.00  0.00    -0.350 C  
BRANCH  12  13
HETATM   13  C   UNL     1      -9.838   8.167  66.965  1.00  0.00    -0.299 C  
HETATM   14  C   UNL     1     -10.421   9.418  67.656  1.00  0.00    -0.328 C  
HETATM   15  C   UNL     1      -9.421  10.573  67.603  1.00  0.00    -0.164 A  
HETATM   16  C   UNL     1     -10.903   9.110  69.085  1.00  0.00    -0.131 C  
HETATM   17  C   UNL     1      -8.464  10.708  68.630  1.00  0.00    -0.142 A  
HETATM   18  C   UNL     1      -7.558  11.771  68.653  1.00  0.00    -0.125 A  
HETATM   19  C   UNL     1      -7.572  12.717  67.637  1.00  0.00    -0.152 A  
HETATM   20  C   UNL     1      -8.477  12.587  66.588  1.00  0.00    -0.006 A  
HETATM   21  C   UNL     1      -9.392  11.524  66.562  1.00  0.00    -0.197 A  
HETATM   22  I   UNL     1     -10.664  11.463  64.881  1.00  0.00    -0.241 I  
ENDBRANCH  12  13
ENDBRANCH  11  12
ENDBRANCH  10  11
ENDBRANCH   9  10
ENDBRANCH   8   9
ENDBRANCH   7   8
ENDBRANCH   6   7
ENDBRANCH   4   6
ENDBRANCH   3   4
ENDBRANCH   2   3
TORSDOF 10
ENDMDL
MODEL      306
REMARK 921   NORMALIZED FREE ENERGY PREDICTED BY IDOCK:   -2.96 KCAL/MOL
REMARK 922        TOTAL FREE ENERGY PREDICTED BY IDOCK:   -6.09 KCAL/MOL
REMARK 923 INTER-LIGAND FREE ENERGY PREDICTED BY IDOCK:   -4.71 KCAL/MOL
REMARK 924 INTRA-LIGAND FREE ENERGY PREDICTED BY IDOCK:   -1.38 KCAL/MOL
REMARK 927      BINDING AFFINITY PREDICTED BY RF-SCORE:    0.00 PKD
ROOT
HETATM    1  C   UNL     1      -9.013   8.189  72.680  1.00  0.00    -0.299 C  
HETATM    2  C   UNL     1      -9.195   8.926  71.366  1.00  0.00    -0.258 C  
ENDROOT
BRANCH   2   3
HETATM    3  O   UNL     1     -10.466   9.586  71.407  1.00  0.00    -0.317 OA 
BRANCH   3   4
HETATM    4  C   UNL     1     -10.872  10.106  70.214  1.00  0.00    -0.310 C  
HETATM    5  O   UNL     1     -11.942  10.663  70.015  1.00  0.00    -0.289 OA 
BRANCH   4   6
HETATM    6  C   UNL     1      -9.757   9.970  69.210  1.00  0.00    -0.227 C  
BRANCH   6   7
HETATM    7  C   UNL     1     -10.317   9.922  67.793  1.00  0.00    -0.268 C  
BRANCH   7   8
HETATM    8  C   UNL     1      -9.874   8.668  67.047  1.00  0.00    -0.284 C  
BRANCH   8   9
HETATM    9  C   UNL     1      -8.541   8.172  67.604  1.00  0.00    -0.130 C  
BRANCH   9  10
HETATM   10  C   UNL     1      -7.794   7.327  66.581  1.00  0.00    -0.102 C  
BRANCH  10  11
HETATM   11  C   UNL     1      -8.666   6.180  66.071  1.00  0.00    -0.157 C  
BRANCH  11  12
HETATM   12  C   UNL     1      -8.041   4.837  66.437  1.00  0.00    -0.107 C  
BRANCH  12  13
HETATM   13  C   UNL     1      -8.061   4.585  67.946  1.00  0.00    -0.092 C  
HETATM   14  C   UNL     1      -9.271   3.732  68.382  1.00  0.00    -0.213 C  
HETATM   15  C   UNL     1      -9.351   3.655  69.906  1.00  0.00    -0.246 A  
HETATM   16  C   UNL     1      -9.261   2.345  67.714  1.00  0.00    -0.235 C  
HETATM   17  C   UNL     1      -8.652   2.637  70.587  1.00  0.00    -0.104 A  
HETATM   18  C   UNL     1      -8.730   2.496  71.974  1.00  0.00    -0.099 A  
HETATM   19  C   UNL     1      -9.493   3.383  72.721  1.00  0.00    -0.153 A  
HETATM   20  C   UNL     1     -10.160   4.424  72.082  1.00  0.00    -0.262 A  
HETATM   21  C   UNL     1     -10.089   4.568  70.688  1.00  0.00    -0.162 A  
HETATM   22  I   UNL     1     -11.131   6.220  69.894  1.00  0.00    -0.398 I  
ENDBRANCH  12  13
ENDBRANCH  11  12
ENDBRANCH  10  11
ENDBRANCH   9  10
ENDBRANCH   8   9
ENDBRANCH   7   8
ENDBRANCH   6   7
ENDBRANCH   4   6
ENDBRANCH   3   4
ENDBRANCH   2   3
TORSDOF 10
ENDMDL
MODEL      307
REMARK 921   NORMALIZED FREE ENERGY PREDICTED BY IDOCK:   -2.96 KCAL/MOL
REMARK 922        TOTAL FREE ENERGY PREDICTED BY IDOCK:   -6.09 KCAL/MOL
REMARK 923 INTER-LIGAND FREE ENERGY PREDICTED BY IDOCK:   -4.92 KCAL/MOL
REMARK 924 INTRA-LIGAND FREE ENERGY PREDICTED BY IDOCK:   -1.17 KCAL/MOL
REMARK 927      BINDING AFFINITY PREDICTED BY RF-SCORE:    0.00 PKD
ROOT
HETATM    1  C   UNL     1      -7.773   6.317  66.219  1.00  0.00    -0.099 C  
HETATM    2  C   UNL     1      -7.391   7.485  65.329  1.00  0.00    -0.072 C  
ENDROOT
BRANCH   2   3
HETATM    3  O   UNL     1      -7.965   8.671  65.894  1.00  0.00    -0.099 OA 
BRANCH   3   4
HETATM    4  C   UNL     1      -8.334   9.611  64.979  1.00  0.00    -0.141 C  
HETATM    5  O   UNL     1      -7.617  10.056  64.095  1.00  0.00    -0.136 OA 
BRANCH   4   6
HETATM    6  C   UNL     1      -9.792   9.944  65.172  1.00  0.00    -0.348 C  
BRANCH   6   7
HETATM    7  C   UNL     1     -10.259  10.933  64.111  1.00  0.00    -0.424 C  
BRANCH   7   8
HETATM    8  C   UNL     1     -11.712  11.345  64.316  1.00  0.00    -0.015 C  
BRANCH   8   9
HETATM    9  C   UNL     1     -12.027  12.585  63.482  1.00  0.00    -0.629 C  
BRANCH   9  10
HETATM   10  C   UNL     1     -11.311  13.815  64.025  1.00  0.00    -0.179 C  
BRANCH  10  11
HETATM   11  C   UNL     1     -12.271  14.709  64.809  1.00  0.00    -0.403 C  
BRANCH  11  12
HETATM   12  C   UNL     1     -12.033  14.553  66.308  1.00  0.00    -0.335 C  
BRANCH  12  13
HETATM   13  C   UNL     1     -11.049  13.423  66.620  1.00  0.00    -0.310 C  
HETATM   14  C   UNL     1     -10.666  13.376  68.115  1.00  0.00    -0.267 C  
HETATM   15  C   UNL     1      -9.552  12.357  68.351  1.00  0.00    -0.180 A  
HETATM   16  C   UNL     1     -11.893  13.137  69.012  1.00  0.00    -0.358 C  
HETATM   17  C   UNL     1      -9.887  11.011  68.609  1.00  0.00    -0.197 A  
HETATM   18  C   UNL     1      -8.910  10.050  68.876  1.00  0.00    -0.148 A  
HETATM   19  C   UNL     1      -7.567  10.405  68.871  1.00  0.00    -0.103 A  
HETATM   20  C   UNL     1      -7.204  11.716  68.579  1.00  0.00    -0.094 A  
HETATM   21  C   UNL     1      -8.181  12.686  68.313  1.00  0.00    -0.164 A  
HETATM   22  I   UNL     1      -7.449  14.609  67.854  1.00  0.00    -0.220 I  
ENDBRANCH  12  13
ENDBRANCH  11  12
ENDBRANCH  10  11
ENDBRANCH   9  10
ENDBRANCH   8   9
ENDBRANCH   7   8
ENDBRANCH   6   7
ENDBRANCH   4   6
ENDBRANCH   3   4
ENDBRANCH   2   3
TORSDOF 10
ENDMDL
MODEL      308
REMARK 921   NORMALIZED FREE ENERGY PREDICTED BY IDOCK:   -2.95 KCAL/MOL
REMARK 922        TOTAL FREE ENERGY PREDICTED BY IDOCK:   -6.08 KCAL/MOL
REMARK 923 INTER-LIGAND FREE ENERGY PREDICTED BY IDOCK:   -5.22 KCAL/MOL
REMARK 924 INTRA-LIGAND FREE ENERGY PREDICTED BY IDOCK:   -0.86 KCAL/MOL
REMARK 927      BINDING AFFINITY PREDICTED BY RF-SCORE:    0.00 PKD
ROOT
HETATM    1  C   UNL     1      -8.444   8.362  64.969  1.00  0.00    -0.160 C  
HETATM    2  C   UNL     1      -7.697   7.339  64.132  1.00  0.00    -0.120 C  
ENDROOT
BRANCH   2   3
HETATM    3  O   UNL     1      -7.301   6.270  65.000  1.00  0.00    -0.070 OA 
BRANCH   3   4
HETATM    4  C   UNL     1      -8.267   5.333  65.219  1.00  0.00    -0.130 C  
HETATM    5  O   UNL     1      -9.048   4.915  64.377  1.00  0.00    -0.130 OA 
BRANCH   4   6
HETATM    6  C   UNL     1      -8.154   4.828  66.634  1.00  0.00    -0.107 C  
BRANCH   6   7
HETATM    7  C   UNL     1      -9.087   5.606  67.555  1.00  0.00    -0.106 C  
BRANCH   7   8
HETATM    8  C   UNL     1      -8.769   5.364  69.026  1.00  0.00    -0.103 C  
BRANCH   8   9
HETATM    9  C   UNL     1      -8.644   6.697  69.761  1.00  0.00    -0.136 C  
BRANCH   9  10
HETATM   10  C   UNL     1      -9.757   6.870  70.786  1.00  0.00    -0.176 C  
BRANCH  10  11
HETATM   11  C   UNL     1     -10.067   8.348  71.017  1.00  0.00    -0.242 C  
BRANCH  11  12
HETATM   12  C   UNL     1     -10.681   8.962  69.763  1.00  0.00    -0.230 C  
BRANCH  12  13
HETATM   13  C   UNL     1     -10.628  10.492  69.785  1.00  0.00    -0.274 C  
HETATM   14  C   UNL     1     -12.010  11.130  69.532  1.00  0.00    -0.425 C  
HETATM   15  C   UNL     1     -11.881  12.645  69.384  1.00  0.00    -0.356 A  
HETATM   16  C   UNL     1     -13.033  10.720  70.605  1.00  0.00    -0.313 C  
HETATM   17  C   UNL     1     -11.946  13.462  70.532  1.00  0.00    -0.332 A  
HETATM   18  C   UNL     1     -11.880  14.855  70.446  1.00  0.00    -0.352 A  
HETATM   19  C   UNL     1     -11.725  15.468  69.210  1.00  0.00    -0.380 A  
HETATM   20  C   UNL     1     -11.616  14.686  68.064  1.00  0.00    -0.366 A  
HETATM   21  C   UNL     1     -11.686  13.288  68.143  1.00  0.00    -0.362 A  
HETATM   22  I   UNL     1     -11.465  12.263  66.313  1.00  0.00    -0.354 I  
ENDBRANCH  12  13
ENDBRANCH  11  12
ENDBRANCH  10  11
ENDBRANCH   9  10
ENDBRANCH   8   9
ENDBRANCH   7   8
ENDBRANCH   6   7
ENDBRANCH   4   6
ENDBRANCH   3   4
ENDBRANCH   2   3
TORSDOF 10
ENDMDL
MODEL      309
REMARK 921   NORMALIZED FREE ENERGY PREDICTED BY IDOCK:   -2.94 KCAL/MOL
REMARK 922        TOTAL FREE ENERGY PREDICTED BY IDOCK:   -6.06 KCAL/MOL
REMARK 923 INTER-LIGAND FREE ENERGY PREDICTED BY IDOCK:   -4.90 KCAL/MOL
REMARK 924 INTRA-LIGAND FREE ENERGY PREDICTED BY IDOCK:   -1.16 KCAL/MOL
REMARK 927      BINDING AFFINITY PREDICTED BY RF-SCORE:    0.00 PKD
ROOT
HETATM    1  C   UNL     1      -8.820   1.485  66.071  1.00  0.00    -0.118 C  
HETATM    2  C   UNL     1      -8.520   2.839  66.685  1.00  0.00    -0.102 C  
ENDROOT
BRANCH   2   3
HETATM    3  O   UNL     1      -9.771   3.470  66.988  1.00  0.00    -0.176 OA 
BRANCH   3   4
HETATM    4  C   UNL     1      -9.662   4.738  67.476  1.00  0.00    -0.171 C  
HETATM    5  O   UNL     1     -10.116   5.124  68.543  1.00  0.00    -0.171 OA 
BRANCH   4   6
HETATM    6  C   UNL     1      -8.812   5.557  66.540  1.00  0.00    -0.121 C  
BRANCH   6   7
HETATM    7  C   UNL     1      -7.764   6.344  67.319  1.00  0.00    -0.100 C  
BRANCH   7   8
HETATM    8  C   UNL     1      -8.275   7.719  67.734  1.00  0.00    -0.126 C  
BRANCH   8   9
HETATM    9  C   UNL     1      -9.300   8.224  66.720  1.00  0.00    -0.232 C  
BRANCH   9  10
HETATM   10  C   UNL     1     -10.559   8.730  67.411  1.00  0.00    -0.304 C  
BRANCH  10  11
HETATM   11  C   UNL     1     -10.364   8.805  68.925  1.00  0.00    -0.229 C  
BRANCH  11  12
HETATM   12  C   UNL     1     -10.342  10.260  69.384  1.00  0.00    -0.256 C  
BRANCH  12  13
HETATM   13  C   UNL     1     -10.751  11.223  68.266  1.00  0.00    -0.231 C  
HETATM   14  C   UNL     1      -9.659  12.271  67.967  1.00  0.00    -0.206 C  
HETATM   15  C   UNL     1     -10.174  13.315  66.978  1.00  0.00    -0.244 A  
HETATM   16  C   UNL     1      -8.345  11.612  67.509  1.00  0.00    -0.151 C  
HETATM   17  C   UNL     1     -10.039  13.085  65.593  1.00  0.00    -0.276 A  
HETATM   18  C   UNL     1     -10.453  14.028  64.650  1.00  0.00    -0.398 A  
HETATM   19  C   UNL     1     -11.033  15.219  65.065  1.00  0.00    -0.450 A  
HETATM   20  C   UNL     1     -11.218  15.456  66.424  1.00  0.00    -0.164 A  
HETATM   21  C   UNL     1     -10.801  14.515  67.377  1.00  0.00    -0.291 A  
HETATM   22  I   UNL     1     -11.193  15.023  69.385  1.00  0.00    -0.381 I  
ENDBRANCH  12  13
ENDBRANCH  11  12
ENDBRANCH  10  11
ENDBRANCH   9  10
ENDBRANCH   8   9
ENDBRANCH   7   8
ENDBRANCH   6   7
ENDBRANCH   4   6
ENDBRANCH   3   4
ENDBRANCH   2   3
TORSDOF 10
ENDMDL
MODEL      310
REMARK 921   NORMALIZED FREE ENERGY PREDICTED BY IDOCK:   -2.94 KCAL/MOL
REMARK 922        TOTAL FREE ENERGY PREDICTED BY IDOCK:   -6.06 KCAL/MOL
REMARK 923 INTER-LIGAND FREE ENERGY PREDICTED BY IDOCK:   -5.16 KCAL/MOL
REMARK 924 INTRA-LIGAND FREE ENERGY PREDICTED BY IDOCK:   -0.90 KCAL/MOL
REMARK 927      BINDING AFFINITY PREDICTED BY RF-SCORE:    0.00 PKD
ROOT
HETATM    1  C   UNL     1      -9.660  15.469  68.682  1.00  0.00    -0.203 C  
HETATM    2  C   UNL     1      -9.435  15.083  67.232  1.00  0.00    -0.208 C  
ENDROOT
BRANCH   2   3
HETATM    3  O   UNL     1     -10.542  15.579  66.470  1.00  0.00    -0.299 OA 
BRANCH   3   4
HETATM    4  C   UNL     1     -11.360  14.612  65.965  1.00  0.00    -0.344 C  
HETATM    5  O   UNL     1     -12.402  14.232  66.477  1.00  0.00    -0.445 OA 
BRANCH   4   6
HETATM    6  C   UNL     1     -10.825  14.159  64.631  1.00  0.00    -0.401 C  
BRANCH   6   7
HETATM    7  C   UNL     1     -11.914  13.453  63.831  1.00  0.00    -0.520 C  
BRANCH   7   8
HETATM    8  C   UNL     1     -12.077  11.997  64.252  1.00  0.00    -0.414 C  
BRANCH   8   9
HETATM    9  C   UNL     1     -10.765  11.243  64.046  1.00  0.00    -0.444 C  
BRANCH   9  10
HETATM   10  C   UNL     1     -10.351  10.496  65.307  1.00  0.00    -0.300 C  
BRANCH  10  11
HETATM   11  C   UNL     1      -8.993  10.980  65.814  1.00  0.00    -0.208 C  
BRANCH  11  12
HETATM   12  C   UNL     1      -7.869  10.335  65.010  1.00  0.00    -0.133 C  
BRANCH  12  13
HETATM   13  C   UNL     1      -7.478   8.963  65.564  1.00  0.00    -0.086 C  
HETATM   14  C   UNL     1      -8.162   7.807  64.803  1.00  0.00    -0.100 C  
HETATM   15  C   UNL     1      -7.890   6.473  65.497  1.00  0.00    -0.104 A  
HETATM   16  C   UNL     1      -7.774   7.796  63.314  1.00  0.00    -0.135 C  
HETATM   17  C   UNL     1      -6.736   5.737  65.156  1.00  0.00    -0.044 A  
HETATM   18  C   UNL     1      -6.465   4.492  65.728  1.00  0.00    -0.040 A  
HETATM   19  C   UNL     1      -7.331   3.958  66.672  1.00  0.00    -0.072 A  
HETATM   20  C   UNL     1      -8.456   4.679  67.059  1.00  0.00    -0.105 A  
HETATM   21  C   UNL     1      -8.736   5.929  66.486  1.00  0.00    -0.126 A  
HETATM   22  I   UNL     1     -10.460   6.897  67.217  1.00  0.00    -0.427 I  
ENDBRANCH  12  13
ENDBRANCH  11  12
ENDBRANCH  10  11
ENDBRANCH   9  10
ENDBRANCH   8   9
ENDBRANCH   7   8
ENDBRANCH   6   7
ENDBRANCH   4   6
ENDBRANCH   3   4
ENDBRANCH   2   3
TORSDOF 10
ENDMDL
MODEL      311
REMARK 921   NORMALIZED FREE ENERGY PREDICTED BY IDOCK:   -2.94 KCAL/MOL
REMARK 922        TOTAL FREE ENERGY PREDICTED BY IDOCK:   -6.06 KCAL/MOL
REMARK 923 INTER-LIGAND FREE ENERGY PREDICTED BY IDOCK:   -5.16 KCAL/MOL
REMARK 924 INTRA-LIGAND FREE ENERGY PREDICTED BY IDOCK:   -0.90 KCAL/MOL
REMARK 927      BINDING AFFINITY PREDICTED BY RF-SCORE:    0.00 PKD
ROOT
HETATM    1  C   UNL     1      -8.199  20.467  67.323  1.00  0.00    -0.390 C  
HETATM    2  C   UNL     1      -8.550  19.067  67.794  1.00  0.00    -0.298 C  
ENDROOT
BRANCH   2   3
HETATM    3  O   UNL     1      -8.972  18.314  66.650  1.00  0.00    -0.273 OA 
BRANCH   3   4
HETATM    4  C   UNL     1      -8.107  17.332  66.269  1.00  0.00    -0.280 C  
HETATM    5  O   UNL     1      -6.912  17.486  66.064  1.00  0.00    -0.285 OA 
BRANCH   4   6
HETATM    6  C   UNL     1      -8.837  16.015  66.232  1.00  0.00    -0.379 C  
BRANCH   6   7
HETATM    7  C   UNL     1     -10.289  16.220  65.814  1.00  0.00    -0.393 C  
BRANCH   7   8
HETATM    8  C   UNL     1     -11.023  14.896  65.636  1.00  0.00    -0.347 C  
BRANCH   8   9
HETATM    9  C   UNL     1     -10.129  13.739  66.075  1.00  0.00    -0.320 C  
BRANCH   9  10
HETATM   10  C   UNL     1     -10.216  12.572  65.100  1.00  0.00    -0.299 C  
BRANCH  10  11
HETATM   11  C   UNL     1     -11.192  11.508  65.601  1.00  0.00    -0.212 C  
BRANCH  11  12
HETATM   12  C   UNL     1     -10.549  10.679  66.708  1.00  0.00    -0.297 C  
BRANCH  12  13
HETATM   13  C   UNL     1     -10.013   9.342  66.190  1.00  0.00    -0.351 C  
HETATM   14  C   UNL     1      -8.499   9.393  65.894  1.00  0.00    -0.135 C  
HETATM   15  C   UNL     1      -8.042   8.104  65.214  1.00  0.00    -0.136 A  
HETATM   16  C   UNL     1      -7.681   9.726  67.154  1.00  0.00    -0.095 C  
HETATM   17  C   UNL     1      -7.638   7.008  66.005  1.00  0.00    -0.096 A  
HETATM   18  C   UNL     1      -7.170   5.823  65.433  1.00  0.00    -0.070 A  
HETATM   19  C   UNL     1      -7.112   5.694  64.052  1.00  0.00    -0.052 A  
HETATM   20  C   UNL     1      -7.543   6.743  63.245  1.00  0.00    -0.089 A  
HETATM   21  C   UNL     1      -8.011   7.937  63.814  1.00  0.00    -0.119 A  
HETATM   22  I   UNL     1      -8.657   9.402  62.442  1.00  0.00    -0.242 I  
ENDBRANCH  12  13
ENDBRANCH  11  12
ENDBRANCH  10  11
ENDBRANCH   9  10
ENDBRANCH   8   9
ENDBRANCH   7   8
ENDBRANCH   6   7
ENDBRANCH   4   6
ENDBRANCH   3   4
ENDBRANCH   2   3
TORSDOF 10
ENDMDL
MODEL      312
REMARK 921   NORMALIZED FREE ENERGY PREDICTED BY IDOCK:   -2.92 KCAL/MOL
REMARK 922        TOTAL FREE ENERGY PREDICTED BY IDOCK:   -6.03 KCAL/MOL
REMARK 923 INTER-LIGAND FREE ENERGY PREDICTED BY IDOCK:   -5.39 KCAL/MOL
REMARK 924 INTRA-LIGAND FREE ENERGY PREDICTED BY IDOCK:   -0.64 KCAL/MOL
REMARK 927      BINDING AFFINITY PREDICTED BY RF-SCORE:    0.00 PKD
ROOT
HETATM    1  C   UNL     1      -8.145  16.622  66.242  1.00  0.00    -0.361 C  
HETATM    2  C   UNL     1      -8.104  17.838  67.149  1.00  0.00    -0.214 C  
ENDROOT
BRANCH   2   3
HETATM    3  O   UNL     1      -8.852  17.526  68.332  1.00  0.00    -0.262 OA 
BRANCH   3   4
HETATM    4  C   UNL     1     -10.158  17.915  68.293  1.00  0.00    -0.375 C  
HETATM    5  O   UNL     1     -10.562  18.989  67.873  1.00  0.00    -0.399 OA 
BRANCH   4   6
HETATM    6  C   UNL     1     -11.027  16.776  68.761  1.00  0.00    -0.275 C  
BRANCH   6   7
HETATM    7  C   UNL     1     -10.170  15.598  69.207  1.00  0.00    -0.250 C  
BRANCH   7   8
HETATM    8  C   UNL     1     -10.934  14.280  69.144  1.00  0.00    -0.286 C  
BRANCH   8   9
HETATM    9  C   UNL     1     -12.110  14.404  68.178  1.00  0.00    -0.258 C  
BRANCH   9  10
HETATM   10  C   UNL     1     -11.992  13.407  67.033  1.00  0.00    -0.429 C  
BRANCH  10  11
HETATM   11  C   UNL     1     -10.844  12.427  67.271  1.00  0.00    -0.279 C  
BRANCH  11  12
HETATM   12  C   UNL     1     -11.384  11.010  67.439  1.00  0.00    -0.306 C  
BRANCH  12  13
HETATM   13  C   UNL     1     -10.726  10.279  68.612  1.00  0.00    -0.255 C  
HETATM   14  C   UNL     1      -9.403   9.594  68.207  1.00  0.00    -0.138 C  
HETATM   15  C   UNL     1      -8.875   8.731  69.352  1.00  0.00    -0.143 A  
HETATM   16  C   UNL     1      -8.367  10.612  67.698  1.00  0.00    -0.114 C  
HETATM   17  C   UNL     1      -8.035   9.310  70.326  1.00  0.00    -0.155 A  
HETATM   18  C   UNL     1      -7.489   8.555  71.366  1.00  0.00    -0.116 A  
HETATM   19  C   UNL     1      -7.785   7.203  71.473  1.00  0.00    -0.089 A  
HETATM   20  C   UNL     1      -8.644   6.613  70.550  1.00  0.00    -0.143 A  
HETATM   21  C   UNL     1      -9.193   7.365  69.501  1.00  0.00    -0.146 A  
HETATM   22  I   UNL     1     -10.501   6.318  68.221  1.00  0.00    -0.399 I  
ENDBRANCH  12  13
ENDBRANCH  11  12
ENDBRANCH  10  11
ENDBRANCH   9  10
ENDBRANCH   8   9
ENDBRANCH   7   8
ENDBRANCH   6   7
ENDBRANCH   4   6
ENDBRANCH   3   4
ENDBRANCH   2   3
TORSDOF 10
ENDMDL
MODEL      313
REMARK 921   NORMALIZED FREE ENERGY PREDICTED BY IDOCK:   -2.92 KCAL/MOL
REMARK 922        TOTAL FREE ENERGY PREDICTED BY IDOCK:   -6.03 KCAL/MOL
REMARK 923 INTER-LIGAND FREE ENERGY PREDICTED BY IDOCK:   -4.74 KCAL/MOL
REMARK 924 INTRA-LIGAND FREE ENERGY PREDICTED BY IDOCK:   -1.29 KCAL/MOL
REMARK 927      BINDING AFFINITY PREDICTED BY RF-SCORE:    0.00 PKD
ROOT
HETATM    1  C   UNL     1      -6.918   6.815  66.448  1.00  0.00    -0.062 C  
HETATM    2  C   UNL     1      -7.385   8.258  66.513  1.00  0.00    -0.081 C  
ENDROOT
BRANCH   2   3
HETATM    3  O   UNL     1      -8.626   8.284  67.230  1.00  0.00    -0.122 OA 
BRANCH   3   4
HETATM    4  C   UNL     1      -9.673   8.806  66.530  1.00  0.00    -0.259 C  
HETATM    5  O   UNL     1     -10.849   8.523  66.705  1.00  0.00    -0.090 OA 
BRANCH   4   6
HETATM    6  C   UNL     1      -9.158   9.854  65.577  1.00  0.00    -0.232 C  
BRANCH   6   7
HETATM    7  C   UNL     1     -10.023  11.107  65.644  1.00  0.00    -0.297 C  
BRANCH   7   8
HETATM    8  C   UNL     1      -9.346  12.225  66.430  1.00  0.00    -0.219 C  
BRANCH   8   9
HETATM    9  C   UNL     1     -10.396  13.062  67.158  1.00  0.00    -0.243 C  
BRANCH   9  10
HETATM   10  C   UNL     1     -11.369  12.181  67.930  1.00  0.00    -0.361 C  
BRANCH  10  11
HETATM   11  C   UNL     1     -10.836  11.865  69.327  1.00  0.00    -0.157 C  
BRANCH  11  12
HETATM   12  C   UNL     1     -11.720  10.825  70.007  1.00  0.00    -0.417 C  
BRANCH  12  13
HETATM   13  C   UNL     1     -11.146   9.411  69.882  1.00  0.00    -0.223 C  
HETATM   14  C   UNL     1     -10.546   8.903  71.210  1.00  0.00    -0.351 C  
HETATM   15  C   UNL     1      -9.828   7.571  70.999  1.00  0.00    -0.182 A  
HETATM   16  C   UNL     1     -11.602   8.841  72.328  1.00  0.00    -0.391 C  
HETATM   17  C   UNL     1     -10.554   6.367  71.108  1.00  0.00    -0.282 A  
HETATM   18  C   UNL     1      -9.936   5.122  70.968  1.00  0.00    -0.274 A  
HETATM   19  C   UNL     1      -8.577   5.048  70.695  1.00  0.00    -0.125 A  
HETATM   20  C   UNL     1      -7.842   6.220  70.541  1.00  0.00    -0.106 A  
HETATM   21  C   UNL     1      -8.457   7.473  70.684  1.00  0.00    -0.132 A  
HETATM   22  I   UNL     1      -7.200   9.139  70.380  1.00  0.00    -0.132 I  
ENDBRANCH  12  13
ENDBRANCH  11  12
ENDBRANCH  10  11
ENDBRANCH   9  10
ENDBRANCH   8   9
ENDBRANCH   7   8
ENDBRANCH   6   7
ENDBRANCH   4   6
ENDBRANCH   3   4
ENDBRANCH   2   3
TORSDOF 10
ENDMDL
MODEL      314
REMARK 921   NORMALIZED FREE ENERGY PREDICTED BY IDOCK:   -2.92 KCAL/MOL
REMARK 922        TOTAL FREE ENERGY PREDICTED BY IDOCK:   -6.02 KCAL/MOL
REMARK 923 INTER-LIGAND FREE ENERGY PREDICTED BY IDOCK:   -4.63 KCAL/MOL
REMARK 924 INTRA-LIGAND FREE ENERGY PREDICTED BY IDOCK:   -1.38 KCAL/MOL
REMARK 927      BINDING AFFINITY PREDICTED BY RF-SCORE:    0.00 PKD
ROOT
HETATM    1  C   UNL     1     -11.237   8.366  72.325  1.00  0.00    -0.446 C  
HETATM    2  C   UNL     1      -9.844   8.549  71.752  1.00  0.00    -0.269 C  
ENDROOT
BRANCH   2   3
HETATM    3  O   UNL     1      -9.330   7.251  71.430  1.00  0.00    -0.150 OA 
BRANCH   3   4
HETATM    4  C   UNL     1      -9.594   6.838  70.158  1.00  0.00    -0.161 C  
HETATM    5  O   UNL     1     -10.226   5.836  69.859  1.00  0.00    -0.195 OA 
BRANCH   4   6
HETATM    6  C   UNL     1      -9.066   7.861  69.185  1.00  0.00    -0.145 C  
BRANCH   6   7
HETATM    7  C   UNL     1      -7.544   7.807  69.127  1.00  0.00    -0.099 C  
BRANCH   7   8
HETATM    8  C   UNL     1      -7.043   7.300  67.779  1.00  0.00    -0.089 C  
BRANCH   8   9
HETATM    9  C   UNL     1      -8.220   7.088  66.830  1.00  0.00    -0.111 C  
BRANCH   9  10
HETATM   10  C   UNL     1      -7.903   7.600  65.431  1.00  0.00    -0.115 C  
BRANCH  10  11
HETATM   11  C   UNL     1      -8.666   8.889  65.130  1.00  0.00    -0.213 C  
BRANCH  11  12
HETATM   12  C   UNL     1      -9.910   8.985  66.007  1.00  0.00    -0.312 C  
BRANCH  12  13
HETATM   13  C   UNL     1     -10.338  10.435  66.243  1.00  0.00    -0.270 C  
HETATM   14  C   UNL     1      -9.616  11.071  67.450  1.00  0.00    -0.180 C  
HETATM   15  C   UNL     1     -10.200  12.449  67.759  1.00  0.00    -0.212 A  
HETATM   16  C   UNL     1      -8.090  11.100  67.252  1.00  0.00    -0.137 C  
HETATM   17  C   UNL     1      -9.674  13.586  67.111  1.00  0.00    -0.244 A  
HETATM   18  C   UNL     1     -10.141  14.872  67.391  1.00  0.00    -0.228 A  
HETATM   19  C   UNL     1     -11.163  15.054  68.313  1.00  0.00    -0.309 A  
HETATM   20  C   UNL     1     -11.731  13.947  68.937  1.00  0.00    -0.373 A  
HETATM   21  C   UNL     1     -11.263  12.654  68.663  1.00  0.00    -0.282 A  
HETATM   22  I   UNL     1     -12.263  11.095  69.671  1.00  0.00    -0.093 I  
ENDBRANCH  12  13
ENDBRANCH  11  12
ENDBRANCH  10  11
ENDBRANCH   9  10
ENDBRANCH   8   9
ENDBRANCH   7   8
ENDBRANCH   6   7
ENDBRANCH   4   6
ENDBRANCH   3   4
ENDBRANCH   2   3
TORSDOF 10
ENDMDL
MODEL      315
REMARK 921   NORMALIZED FREE ENERGY PREDICTED BY IDOCK:   -2.91 KCAL/MOL
REMARK 922        TOTAL FREE ENERGY PREDICTED BY IDOCK:   -6.01 KCAL/MOL
REMARK 923 INTER-LIGAND FREE ENERGY PREDICTED BY IDOCK:   -5.49 KCAL/MOL
REMARK 924 INTRA-LIGAND FREE ENERGY PREDICTED BY IDOCK:   -0.52 KCAL/MOL
REMARK 927      BINDING AFFINITY PREDICTED BY RF-SCORE:    0.00 PKD
ROOT
HETATM    1  C   UNL     1     -10.083  16.483  69.103  1.00  0.00    -0.287 C  
HETATM    2  C   UNL     1     -10.688  15.647  67.990  1.00  0.00    -0.287 C  
ENDROOT
BRANCH   2   3
HETATM    3  O   UNL     1     -11.965  15.177  68.441  1.00  0.00    -0.299 OA 
BRANCH   3   4
HETATM    4  C   UNL     1     -11.925  13.998  69.123  1.00  0.00    -0.360 C  
HETATM    5  O   UNL     1     -12.093  13.873  70.327  1.00  0.00    -0.312 OA 
BRANCH   4   6
HETATM    6  C   UNL     1     -11.736  12.867  68.146  1.00  0.00    -0.395 C  
BRANCH   6   7
HETATM    7  C   UNL     1     -12.140  13.301  66.741  1.00  0.00    -0.403 C  
BRANCH   7   8
HETATM    8  C   UNL     1     -11.234  12.697  65.675  1.00  0.00    -0.344 C  
BRANCH   8   9
HETATM    9  C   UNL     1      -9.962  12.148  66.318  1.00  0.00    -0.249 C  
BRANCH   9  10
HETATM   10  C   UNL     1      -9.684  10.721  65.865  1.00  0.00    -0.272 C  
BRANCH  10  11
HETATM   11  C   UNL     1     -10.585   9.726  66.596  1.00  0.00    -0.178 C  
BRANCH  11  12
HETATM   12  C   UNL     1      -9.741   8.668  67.301  1.00  0.00    -0.241 C  
BRANCH  12  13
HETATM   13  C   UNL     1     -10.503   7.992  68.443  1.00  0.00    -0.205 C  
HETATM   14  C   UNL     1      -9.656   7.885  69.729  1.00  0.00    -0.167 C  
HETATM   15  C   UNL     1     -10.383   7.049  70.782  1.00  0.00    -0.222 A  
HETATM   16  C   UNL     1      -9.235   9.269  70.253  1.00  0.00    -0.273 C  
HETATM   17  C   UNL     1     -11.277   7.680  71.672  1.00  0.00    -0.282 A  
HETATM   18  C   UNL     1     -11.931   6.969  72.680  1.00  0.00    -0.002 A  
HETATM   19  C   UNL     1     -11.726   5.603  72.813  1.00  0.00    -0.233 A  
HETATM   20  C   UNL     1     -10.882   4.945  71.923  1.00  0.00    -0.058 A  
HETATM   21  C   UNL     1     -10.219   5.654  70.910  1.00  0.00    -0.223 A  
HETATM   22  I   UNL     1      -9.010   4.492  69.632  1.00  0.00    -0.199 I  
ENDBRANCH  12  13
ENDBRANCH  11  12
ENDBRANCH  10  11
ENDBRANCH   9  10
ENDBRANCH   8   9
ENDBRANCH   7   8
ENDBRANCH   6   7
ENDBRANCH   4   6
ENDBRANCH   3   4
ENDBRANCH   2   3
TORSDOF 10
ENDMDL
MODEL      316
REMARK 921   NORMALIZED FREE ENERGY PREDICTED BY IDOCK:   -2.91 KCAL/MOL
REMARK 922        TOTAL FREE ENERGY PREDICTED BY IDOCK:   -6.01 KCAL/MOL
REMARK 923 INTER-LIGAND FREE ENERGY PREDICTED BY IDOCK:   -5.01 KCAL/MOL
REMARK 924 INTRA-LIGAND FREE ENERGY PREDICTED BY IDOCK:   -1.00 KCAL/MOL
REMARK 927      BINDING AFFINITY PREDICTED BY RF-SCORE:    0.00 PKD
ROOT
HETATM    1  C   UNL     1      -5.865  13.882  69.995  1.00  0.00    -0.135 C  
HETATM    2  C   UNL     1      -6.537  14.673  68.887  1.00  0.00    -0.093 C  
ENDROOT
BRANCH   2   3
HETATM    3  O   UNL     1      -7.326  15.700  69.500  1.00  0.00    -0.208 OA 
BRANCH   3   4
HETATM    4  C   UNL     1      -7.665  16.725  68.667  1.00  0.00    -0.232 C  
HETATM    5  O   UNL     1      -6.886  17.348  67.962  1.00  0.00    -0.173 OA 
BRANCH   4   6
HETATM    6  C   UNL     1      -9.162  16.901  68.684  1.00  0.00    -0.265 C  
BRANCH   6   7
HETATM    7  C   UNL     1      -9.851  15.585  69.029  1.00  0.00    -0.235 C  
BRANCH   7   8
HETATM    8  C   UNL     1     -10.597  15.002  67.835  1.00  0.00    -0.259 C  
BRANCH   8   9
HETATM    9  C   UNL     1      -9.603  14.485  66.797  1.00  0.00    -0.274 C  
BRANCH   9  10
HETATM   10  C   UNL     1      -9.968  13.082  66.331  1.00  0.00    -0.277 C  
BRANCH  10  11
HETATM   11  C   UNL     1      -9.768  12.060  67.449  1.00  0.00    -0.185 C  
BRANCH  11  12
HETATM   12  C   UNL     1     -10.988  11.151  67.560  1.00  0.00    -0.331 C  
BRANCH  12  13
HETATM   13  C   UNL     1     -10.773  10.019  68.567  1.00  0.00    -0.264 C  
HETATM   14  C   UNL     1     -10.657  10.537  70.016  1.00  0.00    -0.223 C  
HETATM   15  C   UNL     1     -10.266   9.402  70.962  1.00  0.00    -0.369 A  
HETATM   16  C   UNL     1     -11.933  11.273  70.462  1.00  0.00    -0.467 C  
HETATM   17  C   UNL     1     -11.275   8.609  71.547  1.00  0.00    -0.360 A  
HETATM   18  C   UNL     1     -10.973   7.589  72.453  1.00  0.00    -0.333 A  
HETATM   19  C   UNL     1      -9.651   7.322  72.782  1.00  0.00    -0.198 A  
HETATM   20  C   UNL     1      -8.632   8.060  72.188  1.00  0.00    -0.206 A  
HETATM   21  C   UNL     1      -8.929   9.088  71.281  1.00  0.00    -0.211 A  
HETATM   22  I   UNL     1      -7.261  10.076  70.452  1.00  0.00     0.288 I  
ENDBRANCH  12  13
ENDBRANCH  11  12
ENDBRANCH  10  11
ENDBRANCH   9  10
ENDBRANCH   8   9
ENDBRANCH   7   8
ENDBRANCH   6   7
ENDBRANCH   4   6
ENDBRANCH   3   4
ENDBRANCH   2   3
TORSDOF 10
ENDMDL
MODEL      317
REMARK 921   NORMALIZED FREE ENERGY PREDICTED BY IDOCK:   -2.91 KCAL/MOL
REMARK 922        TOTAL FREE ENERGY PREDICTED BY IDOCK:   -6.00 KCAL/MOL
REMARK 923 INTER-LIGAND FREE ENERGY PREDICTED BY IDOCK:   -5.18 KCAL/MOL
REMARK 924 INTRA-LIGAND FREE ENERGY PREDICTED BY IDOCK:   -0.83 KCAL/MOL
REMARK 927      BINDING AFFINITY PREDICTED BY RF-SCORE:    0.00 PKD
ROOT
HETATM    1  C   UNL     1     -10.726   6.005  69.325  1.00  0.00    -0.401 C  
HETATM    2  C   UNL     1     -10.737   7.414  69.890  1.00  0.00    -0.243 C  
ENDROOT
BRANCH   2   3
HETATM    3  O   UNL     1      -9.453   7.661  70.475  1.00  0.00    -0.164 OA 
BRANCH   3   4
HETATM    4  C   UNL     1      -9.293   8.917  70.980  1.00  0.00    -0.249 C  
HETATM    5  O   UNL     1      -9.105   9.184  72.158  1.00  0.00    -0.312 OA 
BRANCH   4   6
HETATM    6  C   UNL     1      -9.290   9.910  69.847  1.00  0.00    -0.250 C  
BRANCH   6   7
HETATM    7  C   UNL     1      -8.042   9.738  68.990  1.00  0.00    -0.101 C  
BRANCH   7   8
HETATM    8  C   UNL     1      -6.765   9.990  69.784  1.00  0.00    -0.086 C  
BRANCH   8   9
HETATM    9  C   UNL     1      -6.314  11.438  69.604  1.00  0.00    -0.127 C  
BRANCH   9  10
HETATM   10  C   UNL     1      -6.981  12.080  68.394  1.00  0.00    -0.080 C  
BRANCH  10  11
HETATM   11  C   UNL     1      -7.769  13.326  68.796  1.00  0.00    -0.022 C  
BRANCH  11  12
HETATM   12  C   UNL     1      -7.534  14.448  67.790  1.00  0.00    -0.182 C  
BRANCH  12  13
HETATM   13  C   UNL     1      -8.458  14.335  66.575  1.00  0.00     0.221 C  
HETATM   14  C   UNL     1      -9.835  13.741  66.939  1.00  0.00    -0.264 C  
HETATM   15  C   UNL     1     -10.656  13.480  65.678  1.00  0.00    -0.284 A  
HETATM   16  C   UNL     1     -10.579  14.613  67.966  1.00  0.00    -0.240 C  
HETATM   17  C   UNL     1     -11.470  14.506  65.155  1.00  0.00    -0.368 A  
HETATM   18  C   UNL     1     -12.275  14.304  64.032  1.00  0.00    -0.336 A  
HETATM   19  C   UNL     1     -12.271  13.075  63.387  1.00  0.00    -0.552 A  
HETATM   20  C   UNL     1     -11.447  12.056  63.854  1.00  0.00    -0.518 A  
HETATM   21  C   UNL     1     -10.640  12.251  64.985  1.00  0.00    -0.287 A  
HETATM   22  I   UNL     1      -9.429  10.613  65.529  1.00  0.00    -0.331 I  
ENDBRANCH  12  13
ENDBRANCH  11  12
ENDBRANCH  10  11
ENDBRANCH   9  10
ENDBRANCH   8   9
ENDBRANCH   7   8
ENDBRANCH   6   7
ENDBRANCH   4   6
ENDBRANCH   3   4
ENDBRANCH   2   3
TORSDOF 10
ENDMDL
MODEL      318
REMARK 921   NORMALIZED FREE ENERGY PREDICTED BY IDOCK:   -2.89 KCAL/MOL
REMARK 922        TOTAL FREE ENERGY PREDICTED BY IDOCK:   -5.97 KCAL/MOL
REMARK 923 INTER-LIGAND FREE ENERGY PREDICTED BY IDOCK:   -5.39 KCAL/MOL
REMARK 924 INTRA-LIGAND FREE ENERGY PREDICTED BY IDOCK:   -0.58 KCAL/MOL
REMARK 927      BINDING AFFINITY PREDICTED BY RF-SCORE:    0.00 PKD
ROOT
HETATM    1  C   UNL     1     -10.238   5.642  68.156  1.00  0.00    -0.236 C  
HETATM    2  C   UNL     1     -11.044   6.379  69.209  1.00  0.00    -0.373 C  
ENDROOT
BRANCH   2   3
HETATM    3  O   UNL     1     -10.900   5.672  70.447  1.00  0.00    -0.292 OA 
BRANCH   3   4
HETATM    4  C   UNL     1     -11.455   6.296  71.524  1.00  0.00    -0.293 C  
HETATM    5  O   UNL     1     -11.904   5.733  72.511  1.00  0.00    -0.297 OA 
BRANCH   4   6
HETATM    6  C   UNL     1     -11.338   7.788  71.345  1.00  0.00    -0.281 C  
BRANCH   6   7
HETATM    7  C   UNL     1     -12.485   8.502  72.052  1.00  0.00    -0.417 C  
BRANCH   7   8
HETATM    8  C   UNL     1     -12.358  10.018  71.956  1.00  0.00    -0.222 C  
BRANCH   8   9
HETATM    9  C   UNL     1     -11.178  10.389  71.060  1.00  0.00    -0.089 C  
BRANCH   9  10
HETATM   10  C   UNL     1     -11.646  10.809  69.673  1.00  0.00    -0.388 C  
BRANCH  10  11
HETATM   11  C   UNL     1     -10.460  11.091  68.753  1.00  0.00    -0.222 C  
BRANCH  11  12
HETATM   12  C   UNL     1     -10.935  11.258  67.313  1.00  0.00    -0.342 C  
BRANCH  12  13
HETATM   13  C   UNL     1     -11.117  12.730  66.935  1.00  0.00    -0.308 C  
HETATM   14  C   UNL     1     -10.019  13.227  65.971  1.00  0.00    -0.297 C  
HETATM   15  C   UNL     1     -10.133  14.737  65.761  1.00  0.00    -0.364 A  
HETATM   16  C   UNL     1     -10.021  12.440  64.648  1.00  0.00    -0.198 C  
HETATM   17  C   UNL     1     -10.966  15.234  64.737  1.00  0.00    -0.403 A  
HETATM   18  C   UNL     1     -11.069  16.602  64.475  1.00  0.00     0.081 A  
HETATM   19  C   UNL     1     -10.359  17.512  65.245  1.00  0.00     0.293 A  
HETATM   20  C   UNL     1      -9.561  17.054  66.290  1.00  0.00    -0.289 A  
HETATM   21  C   UNL     1      -9.450  15.681  66.555  1.00  0.00    -0.274 A  
HETATM   22  I   UNL     1      -8.229  15.171  68.197  1.00  0.00    -0.181 I  
ENDBRANCH  12  13
ENDBRANCH  11  12
ENDBRANCH  10  11
ENDBRANCH   9  10
ENDBRANCH   8   9
ENDBRANCH   7   8
ENDBRANCH   6   7
ENDBRANCH   4   6
ENDBRANCH   3   4
ENDBRANCH   2   3
TORSDOF 10
ENDMDL
MODEL      319
REMARK 921   NORMALIZED FREE ENERGY PREDICTED BY IDOCK:   -2.88 KCAL/MOL
REMARK 922        TOTAL FREE ENERGY PREDICTED BY IDOCK:   -5.97 KCAL/MOL
REMARK 923 INTER-LIGAND FREE ENERGY PREDICTED BY IDOCK:   -4.75 KCAL/MOL
REMARK 924 INTRA-LIGAND FREE ENERGY PREDICTED BY IDOCK:   -1.22 KCAL/MOL
REMARK 927      BINDING AFFINITY PREDICTED BY RF-SCORE:    0.00 PKD
ROOT
HETATM    1  C   UNL     1      -7.880   8.441  63.716  1.00  0.00    -0.151 C  
HETATM    2  C   UNL     1      -7.376   7.028  63.949  1.00  0.00    -0.084 C  
ENDROOT
BRANCH   2   3
HETATM    3  O   UNL     1      -6.707   7.005  65.216  1.00  0.00    -0.049 OA 
BRANCH   3   4
HETATM    4  C   UNL     1      -7.246   6.143  66.124  1.00  0.00    -0.076 C  
HETATM    5  O   UNL     1      -7.961   5.189  65.853  1.00  0.00    -0.104 OA 
BRANCH   4   6
HETATM    6  C   UNL     1      -6.745   6.496  67.500  1.00  0.00    -0.067 C  
BRANCH   6   7
HETATM    7  C   UNL     1      -7.363   7.806  67.975  1.00  0.00    -0.102 C  
BRANCH   7   8
HETATM    8  C   UNL     1      -8.750   7.599  68.570  1.00  0.00    -0.128 C  
BRANCH   8   9
HETATM    9  C   UNL     1      -8.886   8.393  69.869  1.00  0.00    -0.137 C  
BRANCH   9  10
HETATM   10  C   UNL     1     -10.301   8.306  70.426  1.00  0.00    -0.214 C  
BRANCH  10  11
HETATM   11  C   UNL     1     -11.174   9.440  69.891  1.00  0.00    -0.180 C  
BRANCH  11  12
HETATM   12  C   UNL     1     -10.303  10.596  69.409  1.00  0.00    -0.234 C  
BRANCH  12  13
HETATM   13  C   UNL     1     -11.036  11.490  68.406  1.00  0.00    -0.288 C  
HETATM   14  C   UNL     1     -10.285  11.602  67.062  1.00  0.00    -0.240 C  
HETATM   15  C   UNL     1     -10.953  12.639  66.160  1.00  0.00    -0.313 A  
HETATM   16  C   UNL     1     -10.127  10.231  66.381  1.00  0.00    -0.296 C  
HETATM   17  C   UNL     1     -12.000  12.241  65.303  1.00  0.00    -0.391 A  
HETATM   18  C   UNL     1     -12.613  13.140  64.427  1.00  0.00    -0.315 A  
HETATM   19  C   UNL     1     -12.208  14.468  64.399  1.00  0.00    -0.480 A  
HETATM   20  C   UNL     1     -11.205  14.899  65.262  1.00  0.00    -0.369 A  
HETATM   21  C   UNL     1     -10.584  14.000  66.142  1.00  0.00    -0.290 A  
HETATM   22  I   UNL     1      -9.114  14.835  67.402  1.00  0.00    -0.243 I  
ENDBRANCH  12  13
ENDBRANCH  11  12
ENDBRANCH  10  11
ENDBRANCH   9  10
ENDBRANCH   8   9
ENDBRANCH   7   8
ENDBRANCH   6   7
ENDBRANCH   4   6
ENDBRANCH   3   4
ENDBRANCH   2   3
TORSDOF 10
ENDMDL
MODEL      320
REMARK 921   NORMALIZED FREE ENERGY PREDICTED BY IDOCK:   -2.88 KCAL/MOL
REMARK 922        TOTAL FREE ENERGY PREDICTED BY IDOCK:   -5.97 KCAL/MOL
REMARK 923 INTER-LIGAND FREE ENERGY PREDICTED BY IDOCK:   -4.79 KCAL/MOL
REMARK 924 INTRA-LIGAND FREE ENERGY PREDICTED BY IDOCK:   -1.18 KCAL/MOL
REMARK 927      BINDING AFFINITY PREDICTED BY RF-SCORE:    0.00 PKD
ROOT
HETATM    1  C   UNL     1      -7.245  11.212  69.168  1.00  0.00    -0.123 C  
HETATM    2  C   UNL     1      -8.436  10.278  69.268  1.00  0.00    -0.166 C  
ENDROOT
BRANCH   2   3
HETATM    3  O   UNL     1      -8.246   9.223  68.317  1.00  0.00    -0.113 OA 
BRANCH   3   4
HETATM    4  C   UNL     1      -9.391   8.782  67.724  1.00  0.00    -0.141 C  
HETATM    5  O   UNL     1     -10.139   7.931  68.181  1.00  0.00    -0.178 OA 
BRANCH   4   6
HETATM    6  C   UNL     1      -9.636   9.578  66.468  1.00  0.00    -0.259 C  
BRANCH   6   7
HETATM    7  C   UNL     1      -8.322   9.856  65.747  1.00  0.00    -0.131 C  
BRANCH   7   8
HETATM    8  C   UNL     1      -8.526  10.704  64.496  1.00  0.00    -0.080 C  
BRANCH   8   9
HETATM    9  C   UNL     1      -9.677  10.141  63.665  1.00  0.00    -0.168 C  
BRANCH   9  10
HETATM   10  C   UNL     1     -10.861  11.098  63.640  1.00  0.00    -0.319 C  
BRANCH  10  11
HETATM   11  C   UNL     1     -10.441  12.506  64.060  1.00  0.00    -0.449 C  
BRANCH  11  12
HETATM   12  C   UNL     1     -10.993  12.832  65.444  1.00  0.00    -0.313 C  
BRANCH  12  13
HETATM   13  C   UNL     1     -10.693  14.274  65.859  1.00  0.00    -0.304 C  
HETATM   14  C   UNL     1      -9.728  14.349  67.061  1.00  0.00    -0.256 C  
HETATM   15  C   UNL     1      -9.598  15.790  67.554  1.00  0.00    -0.224 A  
HETATM   16  C   UNL     1      -8.369  13.701  66.743  1.00  0.00     0.089 C  
HETATM   17  C   UNL     1      -8.621  16.632  66.983  1.00  0.00    -0.220 A  
HETATM   18  C   UNL     1      -8.430  17.941  67.429  1.00  0.00    -0.236 A  
HETATM   19  C   UNL     1      -9.227  18.452  68.445  1.00  0.00    -0.341 A  
HETATM   20  C   UNL     1     -10.227  17.659  68.999  1.00  0.00    -0.314 A  
HETATM   21  C   UNL     1     -10.421  16.341  68.557  1.00  0.00    -0.278 A  
HETATM   22  I   UNL     1     -12.004  15.299  69.481  1.00  0.00    -0.262 I  
ENDBRANCH  12  13
ENDBRANCH  11  12
ENDBRANCH  10  11
ENDBRANCH   9  10
ENDBRANCH   8   9
ENDBRANCH   7   8
ENDBRANCH   6   7
ENDBRANCH   4   6
ENDBRANCH   3   4
ENDBRANCH   2   3
TORSDOF 10
ENDMDL
MODEL      321
REMARK 921   NORMALIZED FREE ENERGY PREDICTED BY IDOCK:   -2.88 KCAL/MOL
REMARK 922        TOTAL FREE ENERGY PREDICTED BY IDOCK:   -5.96 KCAL/MOL
REMARK 923 INTER-LIGAND FREE ENERGY PREDICTED BY IDOCK:   -5.39 KCAL/MOL
REMARK 924 INTRA-LIGAND FREE ENERGY PREDICTED BY IDOCK:   -0.56 KCAL/MOL
REMARK 927      BINDING AFFINITY PREDICTED BY RF-SCORE:    0.00 PKD
ROOT
HETATM    1  C   UNL     1      -9.420   5.078  68.312  1.00  0.00    -0.173 C  
HETATM    2  C   UNL     1     -10.071   5.050  69.683  1.00  0.00    -0.251 C  
ENDROOT
BRANCH   2   3
HETATM    3  O   UNL     1      -9.688   3.828  70.325  1.00  0.00    -0.194 OA 
BRANCH   3   4
HETATM    4  C   UNL     1      -9.925   3.795  71.667  1.00  0.00    -0.141 C  
HETATM    5  O   UNL     1     -10.276   2.808  72.297  1.00  0.00    -0.166 OA 
BRANCH   4   6
HETATM    6  C   UNL     1      -9.595   5.139  72.261  1.00  0.00    -0.182 C  
BRANCH   6   7
HETATM    7  C   UNL     1     -10.493   5.430  73.458  1.00  0.00    -0.282 C  
BRANCH   7   8
HETATM    8  C   UNL     1     -10.255   6.825  74.024  1.00  0.00    -0.399 C  
BRANCH   8   9
HETATM    9  C   UNL     1      -9.103   7.501  73.283  1.00  0.00    -0.242 C  
BRANCH   9  10
HETATM   10  C   UNL     1      -9.588   8.186  72.012  1.00  0.00    -0.284 C  
BRANCH  10  11
HETATM   11  C   UNL     1      -8.419   8.525  71.088  1.00  0.00    -0.191 C  
BRANCH  11  12
HETATM   12  C   UNL     1      -8.904   8.658  69.648  1.00  0.00    -0.137 C  
BRANCH  12  13
HETATM   13  C   UNL     1      -9.220  10.110  69.279  1.00  0.00    -0.220 C  
HETATM   14  C   UNL     1     -10.650  10.276  68.724  1.00  0.00    -0.231 C  
HETATM   15  C   UNL     1     -10.861  11.696  68.203  1.00  0.00    -0.260 A  
HETATM   16  C   UNL     1     -11.714   9.853  69.753  1.00  0.00    -0.079 C  
HETATM   17  C   UNL     1     -11.312  12.700  69.087  1.00  0.00    -0.339 A  
HETATM   18  C   UNL     1     -11.563  14.002  68.650  1.00  0.00    -0.360 A  
HETATM   19  C   UNL     1     -11.352  14.343  67.321  1.00  0.00    -0.357 A  
HETATM   20  C   UNL     1     -10.868  13.385  66.435  1.00  0.00    -0.294 A  
HETATM   21  C   UNL     1     -10.617  12.074  66.866  1.00  0.00    -0.229 A  
HETATM   22  I   UNL     1      -9.853  10.768  65.398  1.00  0.00    -0.383 I  
ENDBRANCH  12  13
ENDBRANCH  11  12
ENDBRANCH  10  11
ENDBRANCH   9  10
ENDBRANCH   8   9
ENDBRANCH   7   8
ENDBRANCH   6   7
ENDBRANCH   4   6
ENDBRANCH   3   4
ENDBRANCH   2   3
TORSDOF 10
ENDMDL
MODEL      322
REMARK 921   NORMALIZED FREE ENERGY PREDICTED BY IDOCK:   -2.86 KCAL/MOL
REMARK 922        TOTAL FREE ENERGY PREDICTED BY IDOCK:   -5.94 KCAL/MOL
REMARK 923 INTER-LIGAND FREE ENERGY PREDICTED BY IDOCK:   -4.75 KCAL/MOL
REMARK 924 INTRA-LIGAND FREE ENERGY PREDICTED BY IDOCK:   -1.18 KCAL/MOL
REMARK 927      BINDING AFFINITY PREDICTED BY RF-SCORE:    0.00 PKD
ROOT
HETATM    1  C   UNL     1     -10.239   5.653  68.131  1.00  0.00    -0.236 C  
HETATM    2  C   UNL     1     -11.165   6.440  69.041  1.00  0.00    -0.331 C  
ENDROOT
BRANCH   2   3
HETATM    3  O   UNL     1     -11.152   5.810  70.328  1.00  0.00    -0.311 OA 
BRANCH   3   4
HETATM    4  C   UNL     1     -11.887   6.453  71.279  1.00  0.00    -0.273 C  
HETATM    5  O   UNL     1     -12.435   5.914  72.230  1.00  0.00    -0.150 OA 
BRANCH   4   6
HETATM    6  C   UNL     1     -11.835   7.937  71.026  1.00  0.00    -0.285 C  
BRANCH   6   7
HETATM    7  C   UNL     1     -13.143   8.597  71.446  1.00  0.00    -0.277 C  
BRANCH   7   8
HETATM    8  C   UNL     1     -13.089  10.114  71.302  1.00  0.00    -0.490 C  
BRANCH   8   9
HETATM    9  C   UNL     1     -11.747  10.535  70.705  1.00  0.00    -0.454 C  
BRANCH   9  10
HETATM   10  C   UNL     1     -11.880  10.872  69.226  1.00  0.00    -0.395 C  
BRANCH  10  11
HETATM   11  C   UNL     1     -10.538  11.300  68.636  1.00  0.00    -0.231 C  
BRANCH  11  12
HETATM   12  C   UNL     1      -9.471  10.251  68.932  1.00  0.00    -0.190 C  
BRANCH  12  13
HETATM   13  C   UNL     1      -9.312   9.250  67.785  1.00  0.00    -0.145 C  
HETATM   14  C   UNL     1      -8.028   9.498  66.965  1.00  0.00    -0.109 C  
HETATM   15  C   UNL     1      -7.998   8.599  65.730  1.00  0.00    -0.106 A  
HETATM   16  C   UNL     1      -6.763   9.363  67.832  1.00  0.00    -0.067 C  
HETATM   17  C   UNL     1      -7.439   7.307  65.825  1.00  0.00    -0.084 A  
HETATM   18  C   UNL     1      -7.348   6.465  64.715  1.00  0.00    -0.076 A  
HETATM   19  C   UNL     1      -7.832   6.883  63.483  1.00  0.00    -0.103 A  
HETATM   20  C   UNL     1      -8.427   8.135  63.368  1.00  0.00     0.091 A  
HETATM   21  C   UNL     1      -8.518   8.988  64.478  1.00  0.00    -0.175 A  
HETATM   22  I   UNL     1      -9.482  10.831  64.129  1.00  0.00    -0.357 I  
ENDBRANCH  12  13
ENDBRANCH  11  12
ENDBRANCH  10  11
ENDBRANCH   9  10
ENDBRANCH   8   9
ENDBRANCH   7   8
ENDBRANCH   6   7
ENDBRANCH   4   6
ENDBRANCH   3   4
ENDBRANCH   2   3
TORSDOF 10
ENDMDL
MODEL      323
REMARK 921   NORMALIZED FREE ENERGY PREDICTED BY IDOCK:   -2.86 KCAL/MOL
REMARK 922        TOTAL FREE ENERGY PREDICTED BY IDOCK:   -5.93 KCAL/MOL
REMARK 923 INTER-LIGAND FREE ENERGY PREDICTED BY IDOCK:   -4.98 KCAL/MOL
REMARK 924 INTRA-LIGAND FREE ENERGY PREDICTED BY IDOCK:   -0.95 KCAL/MOL
REMARK 927      BINDING AFFINITY PREDICTED BY RF-SCORE:    0.00 PKD
ROOT
HETATM    1  C   UNL     1     -10.668   6.401  70.277  1.00  0.00    -0.322 C  
HETATM    2  C   UNL     1     -10.775   6.938  68.862  1.00  0.00    -0.222 C  
ENDROOT
BRANCH   2   3
HETATM    3  O   UNL     1      -9.705   6.369  68.096  1.00  0.00    -0.122 OA 
BRANCH   3   4
HETATM    4  C   UNL     1      -8.596   7.157  68.001  1.00  0.00    -0.128 C  
HETATM    5  O   UNL     1      -7.443   6.765  68.098  1.00  0.00    -0.094 OA 
BRANCH   4   6
HETATM    6  C   UNL     1      -9.016   8.564  67.664  1.00  0.00    -0.141 C  
BRANCH   6   7
HETATM    7  C   UNL     1      -9.057   8.763  66.154  1.00  0.00    -0.251 C  
BRANCH   7   8
HETATM    8  C   UNL     1     -10.000   9.890  65.752  1.00  0.00    -0.347 C  
BRANCH   8   9
HETATM    9  C   UNL     1     -10.315  10.766  66.963  1.00  0.00    -0.275 C  
BRANCH   9  10
HETATM   10  C   UNL     1      -9.769  12.176  66.783  1.00  0.00    -0.215 C  
BRANCH  10  11
HETATM   11  C   UNL     1      -8.834  12.556  67.931  1.00  0.00    -0.185 C  
BRANCH  11  12
HETATM   12  C   UNL     1      -7.493  13.035  67.384  1.00  0.00    -0.136 C  
BRANCH  12  13
HETATM   13  C   UNL     1      -7.378  14.561  67.395  1.00  0.00    -0.183 C  
HETATM   14  C   UNL     1      -7.664  15.160  68.789  1.00  0.00    -0.143 C  
HETATM   15  C   UNL     1      -7.716  16.685  68.717  1.00  0.00    -0.233 A  
HETATM   16  C   UNL     1      -6.670  14.646  69.846  1.00  0.00    -0.157 C  
HETATM   17  C   UNL     1      -6.527  17.428  68.871  1.00  0.00    -0.208 A  
HETATM   18  C   UNL     1      -6.528  18.824  68.859  1.00  0.00    -0.282 A  
HETATM   19  C   UNL     1      -7.716  19.517  68.670  1.00  0.00    -0.390 A  
HETATM   20  C   UNL     1      -8.899  18.811  68.473  1.00  0.00    -0.378 A  
HETATM   21  C   UNL     1      -8.905  17.408  68.488  1.00  0.00    -0.277 A  
HETATM   22  I   UNL     1     -10.778  16.506  68.136  1.00  0.00    -0.292 I  
ENDBRANCH  12  13
ENDBRANCH  11  12
ENDBRANCH  10  11
ENDBRANCH   9  10
ENDBRANCH   8   9
ENDBRANCH   7   8
ENDBRANCH   6   7
ENDBRANCH   4   6
ENDBRANCH   3   4
ENDBRANCH   2   3
TORSDOF 10
ENDMDL
MODEL      324
REMARK 921   NORMALIZED FREE ENERGY PREDICTED BY IDOCK:   -2.86 KCAL/MOL
REMARK 922        TOTAL FREE ENERGY PREDICTED BY IDOCK:   -5.93 KCAL/MOL
REMARK 923 INTER-LIGAND FREE ENERGY PREDICTED BY IDOCK:   -4.74 KCAL/MOL
REMARK 924 INTRA-LIGAND FREE ENERGY PREDICTED BY IDOCK:   -1.19 KCAL/MOL
REMARK 927      BINDING AFFINITY PREDICTED BY RF-SCORE:    0.00 PKD
ROOT
HETATM    1  C   UNL     1      -6.825   5.687  68.626  1.00  0.00    -0.059 C  
HETATM    2  C   UNL     1      -6.186   6.634  69.625  1.00  0.00    -0.041 C  
ENDROOT
BRANCH   2   3
HETATM    3  O   UNL     1      -7.226   7.150  70.466  1.00  0.00    -0.065 OA 
BRANCH   3   4
HETATM    4  C   UNL     1      -7.878   6.206  71.203  1.00  0.00    -0.111 C  
HETATM    5  O   UNL     1      -7.340   5.380  71.925  1.00  0.00    -0.086 OA 
BRANCH   4   6
HETATM    6  C   UNL     1      -9.365   6.406  71.061  1.00  0.00    -0.171 C  
BRANCH   6   7
HETATM    7  C   UNL     1      -9.667   7.802  70.529  1.00  0.00    -0.175 C  
BRANCH   7   8
HETATM    8  C   UNL     1     -10.858   7.804  69.577  1.00  0.00    -0.157 C  
BRANCH   8   9
HETATM    9  C   UNL     1     -10.373   7.691  68.133  1.00  0.00    -0.250 C  
BRANCH   9  10
HETATM   10  C   UNL     1      -9.093   8.487  67.915  1.00  0.00    -0.145 C  
BRANCH  10  11
HETATM   11  C   UNL     1      -9.277   9.536  66.819  1.00  0.00    -0.184 C  
BRANCH  11  12
HETATM   12  C   UNL     1     -10.692  10.105  66.864  1.00  0.00    -0.231 C  
BRANCH  12  13
HETATM   13  C   UNL     1     -10.797  11.314  67.797  1.00  0.00    -0.284 C  
HETATM   14  C   UNL     1     -10.720  12.653  67.034  1.00  0.00    -0.268 C  
HETATM   15  C   UNL     1     -10.648  13.824  68.012  1.00  0.00    -0.258 A  
HETATM   16  C   UNL     1     -11.864  12.796  66.015  1.00  0.00    -0.495 C  
HETATM   17  C   UNL     1     -11.842  14.404  68.489  1.00  0.00    -0.369 A  
HETATM   18  C   UNL     1     -11.831  15.505  69.348  1.00  0.00    -0.392 A  
HETATM   19  C   UNL     1     -10.623  16.043  69.772  1.00  0.00    -0.323 A  
HETATM   20  C   UNL     1      -9.428  15.466  69.352  1.00  0.00    -0.267 A  
HETATM   21  C   UNL     1      -9.433  14.363  68.486  1.00  0.00    -0.212 A  
HETATM   22  I   UNL     1      -7.534  13.596  67.983  1.00  0.00    -0.199 I  
ENDBRANCH  12  13
ENDBRANCH  11  12
ENDBRANCH  10  11
ENDBRANCH   9  10
ENDBRANCH   8   9
ENDBRANCH   7   8
ENDBRANCH   6   7
ENDBRANCH   4   6
ENDBRANCH   3   4
ENDBRANCH   2   3
TORSDOF 10
ENDMDL
MODEL      325
REMARK 921   NORMALIZED FREE ENERGY PREDICTED BY IDOCK:   -2.85 KCAL/MOL
REMARK 922        TOTAL FREE ENERGY PREDICTED BY IDOCK:   -5.91 KCAL/MOL
REMARK 923 INTER-LIGAND FREE ENERGY PREDICTED BY IDOCK:   -5.10 KCAL/MOL
REMARK 924 INTRA-LIGAND FREE ENERGY PREDICTED BY IDOCK:   -0.81 KCAL/MOL
REMARK 927      BINDING AFFINITY PREDICTED BY RF-SCORE:    0.00 PKD
ROOT
HETATM    1  C   UNL     1      -6.556  19.563  68.182  1.00  0.00    -0.289 C  
HETATM    2  C   UNL     1      -7.370  18.643  67.293  1.00  0.00    -0.217 C  
ENDROOT
BRANCH   2   3
HETATM    3  O   UNL     1      -8.623  19.286  67.028  1.00  0.00    -0.272 OA 
BRANCH   3   4
HETATM    4  C   UNL     1      -9.585  19.059  67.968  1.00  0.00    -0.328 C  
HETATM    5  O   UNL     1     -10.165  19.925  68.606  1.00  0.00    -0.447 OA 
BRANCH   4   6
HETATM    6  C   UNL     1      -9.884  17.583  68.024  1.00  0.00    -0.299 C  
BRANCH   6   7
HETATM    7  C   UNL     1      -9.870  17.089  69.466  1.00  0.00     0.084 C  
BRANCH   7   8
HETATM    8  C   UNL     1      -9.360  15.657  69.573  1.00  0.00    -0.263 C  
BRANCH   8   9
HETATM    9  C   UNL     1     -10.316  14.707  68.854  1.00  0.00    -0.245 C  
BRANCH   9  10
HETATM   10  C   UNL     1      -9.585  13.866  67.816  1.00  0.00    -0.222 C  
BRANCH  10  11
HETATM   11  C   UNL     1      -9.205  12.498  68.383  1.00  0.00    -0.139 C  
BRANCH  11  12
HETATM   12  C   UNL     1      -8.420  11.697  67.349  1.00  0.00    -0.150 C  
BRANCH  12  13
HETATM   13  C   UNL     1      -8.550  10.188  67.570  1.00  0.00    -0.118 C  
HETATM   14  C   UNL     1     -10.011   9.704  67.460  1.00  0.00    -0.231 C  
HETATM   15  C   UNL     1     -10.120   8.234  67.862  1.00  0.00    -0.252 A  
HETATM   16  C   UNL     1     -10.604   9.988  66.069  1.00  0.00    -0.045 C  
HETATM   17  C   UNL     1      -9.935   7.233  66.886  1.00  0.00    -0.302 A  
HETATM   18  C   UNL     1     -10.069   5.877  67.191  1.00  0.00    -0.213 A  
HETATM   19  C   UNL     1     -10.372   5.484  68.488  1.00  0.00    -0.247 A  
HETATM   20  C   UNL     1     -10.519   6.447  69.482  1.00  0.00    -0.279 A  
HETATM   21  C   UNL     1     -10.390   7.810  69.180  1.00  0.00    -0.215 A  
HETATM   22  I   UNL     1     -10.608   9.125  70.814  1.00  0.00    -0.411 I  
ENDBRANCH  12  13
ENDBRANCH  11  12
ENDBRANCH  10  11
ENDBRANCH   9  10
ENDBRANCH   8   9
ENDBRANCH   7   8
ENDBRANCH   6   7
ENDBRANCH   4   6
ENDBRANCH   3   4
ENDBRANCH   2   3
TORSDOF 10
ENDMDL
MODEL      326
REMARK 921   NORMALIZED FREE ENERGY PREDICTED BY IDOCK:   -2.84 KCAL/MOL
REMARK 922        TOTAL FREE ENERGY PREDICTED BY IDOCK:   -5.90 KCAL/MOL
REMARK 923 INTER-LIGAND FREE ENERGY PREDICTED BY IDOCK:   -4.66 KCAL/MOL
REMARK 924 INTRA-LIGAND FREE ENERGY PREDICTED BY IDOCK:   -1.24 KCAL/MOL
REMARK 927      BINDING AFFINITY PREDICTED BY RF-SCORE:    0.00 PKD
ROOT
HETATM    1  C   UNL     1     -12.039  13.913  64.191  1.00  0.00    -0.464 C  
HETATM    2  C   UNL     1     -12.445  12.743  65.069  1.00  0.00    -0.506 C  
ENDROOT
BRANCH   2   3
HETATM    3  O   UNL     1     -11.272  12.276  65.746  1.00  0.00    -0.309 OA 
BRANCH   3   4
HETATM    4  C   UNL     1     -11.433  12.075  67.084  1.00  0.00    -0.335 C  
HETATM    5  O   UNL     1     -12.371  11.487  67.601  1.00  0.00    -0.273 OA 
BRANCH   4   6
HETATM    6  C   UNL     1     -10.227  12.609  67.814  1.00  0.00    -0.222 C  
BRANCH   6   7
HETATM    7  C   UNL     1      -9.200  13.149  66.825  1.00  0.00    -0.232 C  
BRANCH   7   8
HETATM    8  C   UNL     1      -7.778  12.759  67.210  1.00  0.00    -0.129 C  
BRANCH   8   9
HETATM    9  C   UNL     1      -7.759  12.178  68.622  1.00  0.00    -0.089 C  
BRANCH   9  10
HETATM   10  C   UNL     1      -7.108  10.801  68.646  1.00  0.00    -0.078 C  
BRANCH  10  11
HETATM   11  C   UNL     1      -6.733  10.393  70.070  1.00  0.00    -0.145 C  
BRANCH  11  12
HETATM   12  C   UNL     1      -7.689   9.321  70.582  1.00  0.00    -0.170 C  
BRANCH  12  13
HETATM   13  C   UNL     1      -7.870   8.182  69.576  1.00  0.00    -0.104 C  
HETATM   14  C   UNL     1      -9.354   7.812  69.370  1.00  0.00    -0.152 C  
HETATM   15  C   UNL     1      -9.479   6.561  68.502  1.00  0.00    -0.121 A  
HETATM   16  C   UNL     1     -10.168   8.999  68.827  1.00  0.00    -0.226 C  
HETATM   17  C   UNL     1      -9.533   6.693  67.098  1.00  0.00    -0.158 A  
HETATM   18  C   UNL     1      -9.693   5.586  66.263  1.00  0.00    -0.172 A  
HETATM   19  C   UNL     1      -9.781   4.312  66.808  1.00  0.00    -0.241 A  
HETATM   20  C   UNL     1      -9.689   4.145  68.186  1.00  0.00    -0.152 A  
HETATM   21  C   UNL     1      -9.533   5.254  69.031  1.00  0.00    -0.135 A  
HETATM   22  I   UNL     1      -9.374   4.813  71.087  1.00  0.00    -0.247 I  
ENDBRANCH  12  13
ENDBRANCH  11  12
ENDBRANCH  10  11
ENDBRANCH   9  10
ENDBRANCH   8   9
ENDBRANCH   7   8
ENDBRANCH   6   7
ENDBRANCH   4   6
ENDBRANCH   3   4
ENDBRANCH   2   3
TORSDOF 10
ENDMDL
MODEL      327
REMARK 921   NORMALIZED FREE ENERGY PREDICTED BY IDOCK:   -2.81 KCAL/MOL
REMARK 922        TOTAL FREE ENERGY PREDICTED BY IDOCK:   -5.85 KCAL/MOL
REMARK 923 INTER-LIGAND FREE ENERGY PREDICTED BY IDOCK:   -4.89 KCAL/MOL
REMARK 924 INTRA-LIGAND FREE ENERGY PREDICTED BY IDOCK:   -0.96 KCAL/MOL
REMARK 927      BINDING AFFINITY PREDICTED BY RF-SCORE:    0.00 PKD
ROOT
HETATM    1  C   UNL     1      -8.188  15.732  66.386  1.00  0.00    -0.206 C  
HETATM    2  C   UNL     1      -8.259  17.027  67.174  1.00  0.00    -0.191 C  
ENDROOT
BRANCH   2   3
HETATM    3  O   UNL     1      -8.867  16.737  68.439  1.00  0.00    -0.219 OA 
BRANCH   3   4
HETATM    4  C   UNL     1     -10.044  17.387  68.663  1.00  0.00    -0.355 C  
HETATM    5  O   UNL     1     -10.175  18.599  68.747  1.00  0.00    -0.373 OA 
BRANCH   4   6
HETATM    6  C   UNL     1     -11.166  16.382  68.694  1.00  0.00    -0.332 C  
BRANCH   6   7
HETATM    7  C   UNL     1     -10.686  15.063  69.290  1.00  0.00    -0.250 C  
BRANCH   7   8
HETATM    8  C   UNL     1     -11.440  13.870  68.714  1.00  0.00    -0.327 C  
BRANCH   8   9
HETATM    9  C   UNL     1     -12.350  14.326  67.575  1.00  0.00    -0.084 C  
BRANCH   9  10
HETATM   10  C   UNL     1     -11.893  13.754  66.239  1.00  0.00    -0.426 C  
BRANCH  10  11
HETATM   11  C   UNL     1     -10.487  13.163  66.344  1.00  0.00    -0.287 C  
BRANCH  11  12
HETATM   12  C   UNL     1     -10.130  12.418  65.062  1.00  0.00    -0.269 C  
BRANCH  12  13
HETATM   13  C   UNL     1      -9.012  11.396  65.283  1.00  0.00    -0.017 C  
HETATM   14  C   UNL     1      -9.308  10.046  64.595  1.00  0.00    -0.338 C  
HETATM   15  C   UNL     1      -8.262   9.005  64.987  1.00  0.00    -0.154 A  
HETATM   16  C   UNL     1      -9.454  10.202  63.071  1.00  0.00    -0.292 C  
HETATM   17  C   UNL     1      -7.077   8.893  64.230  1.00  0.00    -0.090 A  
HETATM   18  C   UNL     1      -6.111   7.927  64.519  1.00  0.00    -0.048 A  
HETATM   19  C   UNL     1      -6.293   7.059  65.587  1.00  0.00    -0.046 A  
HETATM   20  C   UNL     1      -7.432   7.173  66.378  1.00  0.00    -0.087 A  
HETATM   21  C   UNL     1      -8.408   8.138  66.091  1.00  0.00    -0.126 A  
HETATM   22  I   UNL     1     -10.049   8.191  67.415  1.00  0.00    -0.371 I  
ENDBRANCH  12  13
ENDBRANCH  11  12
ENDBRANCH  10  11
ENDBRANCH   9  10
ENDBRANCH   8   9
ENDBRANCH   7   8
ENDBRANCH   6   7
ENDBRANCH   4   6
ENDBRANCH   3   4
ENDBRANCH   2   3
TORSDOF 10
ENDMDL
MODEL      328
REMARK 921   NORMALIZED FREE ENERGY PREDICTED BY IDOCK:   -2.81 KCAL/MOL
REMARK 922        TOTAL FREE ENERGY PREDICTED BY IDOCK:   -5.85 KCAL/MOL
REMARK 923 INTER-LIGAND FREE ENERGY PREDICTED BY IDOCK:   -5.14 KCAL/MOL
REMARK 924 INTRA-LIGAND FREE ENERGY PREDICTED BY IDOCK:   -0.71 KCAL/MOL
REMARK 927      BINDING AFFINITY PREDICTED BY RF-SCORE:    0.00 PKD
ROOT
HETATM    1  C   UNL     1     -12.196  12.308  64.078  1.00  0.00    -0.569 C  
HETATM    2  C   UNL     1     -11.196  12.963  65.013  1.00  0.00    -0.293 C  
ENDROOT
BRANCH   2   3
HETATM    3  O   UNL     1     -10.663  14.114  64.347  1.00  0.00    -0.352 OA 
BRANCH   3   4
HETATM    4  C   UNL     1     -10.934  15.300  64.964  1.00  0.00    -0.437 C  
HETATM    5  O   UNL     1     -11.334  16.310  64.404  1.00  0.00    -0.659 OA 
BRANCH   4   6
HETATM    6  C   UNL     1     -10.754  15.137  66.451  1.00  0.00    -0.317 C  
BRANCH   6   7
HETATM    7  C   UNL     1      -9.837  16.224  67.000  1.00  0.00    -0.247 C  
BRANCH   7   8
HETATM    8  C   UNL     1      -8.430  16.128  66.423  1.00  0.00    -0.369 C  
BRANCH   8   9
HETATM    9  C   UNL     1      -7.469  15.579  67.475  1.00  0.00    -0.209 C  
BRANCH   9  10
HETATM   10  C   UNL     1      -8.165  14.586  68.397  1.00  0.00    -0.150 C  
BRANCH  10  11
HETATM   11  C   UNL     1      -7.698  13.158  68.121  1.00  0.00    -0.143 C  
BRANCH  11  12
HETATM   12  C   UNL     1      -8.860  12.182  68.279  1.00  0.00    -0.182 C  
BRANCH  12  13
HETATM   13  C   UNL     1      -8.429  10.731  68.046  1.00  0.00    -0.124 C  
HETATM   14  C   UNL     1      -9.293   9.729  68.841  1.00  0.00    -0.158 C  
HETATM   15  C   UNL     1      -8.721   8.318  68.724  1.00  0.00    -0.137 A  
HETATM   16  C   UNL     1     -10.776   9.808  68.436  1.00  0.00    -0.262 C  
HETATM   17  C   UNL     1      -9.122   7.493  67.651  1.00  0.00    -0.127 A  
HETATM   18  C   UNL     1      -8.664   6.181  67.524  1.00  0.00    -0.104 A  
HETATM   19  C   UNL     1      -7.775   5.662  68.456  1.00  0.00    -0.089 A  
HETATM   20  C   UNL     1      -7.328   6.465  69.501  1.00  0.00    -0.088 A  
HETATM   21  C   UNL     1      -7.788   7.783  69.636  1.00  0.00    -0.107 A  
HETATM   22  I   UNL     1      -6.979   8.864  71.256  1.00  0.00    -0.018 I  
ENDBRANCH  12  13
ENDBRANCH  11  12
ENDBRANCH  10  11
ENDBRANCH   9  10
ENDBRANCH   8   9
ENDBRANCH   7   8
ENDBRANCH   6   7
ENDBRANCH   4   6
ENDBRANCH   3   4
ENDBRANCH   2   3
TORSDOF 10
ENDMDL
MODEL      329
REMARK 921   NORMALIZED FREE ENERGY PREDICTED BY IDOCK:   -2.81 KCAL/MOL
REMARK 922        TOTAL FREE ENERGY PREDICTED BY IDOCK:   -5.85 KCAL/MOL
REMARK 923 INTER-LIGAND FREE ENERGY PREDICTED BY IDOCK:   -5.25 KCAL/MOL
REMARK 924 INTRA-LIGAND FREE ENERGY PREDICTED BY IDOCK:   -0.60 KCAL/MOL
REMARK 927      BINDING AFFINITY PREDICTED BY RF-SCORE:    0.00 PKD
ROOT
HETATM    1  C   UNL     1      -6.109   9.371  65.409  1.00  0.00    -0.064 C  
HETATM    2  C   UNL     1      -6.457   9.300  66.884  1.00  0.00    -0.067 C  
ENDROOT
BRANCH   2   3
HETATM    3  O   UNL     1      -7.638   8.499  67.017  1.00  0.00    -0.090 OA 
BRANCH   3   4
HETATM    4  C   UNL     1      -8.704   9.149  67.565  1.00  0.00    -0.119 C  
HETATM    5  O   UNL     1      -8.789   9.503  68.732  1.00  0.00    -0.128 OA 
BRANCH   4   6
HETATM    6  C   UNL     1      -9.713   9.444  66.486  1.00  0.00    -0.299 C  
BRANCH   6   7
HETATM    7  C   UNL     1     -10.105  10.916  66.510  1.00  0.00    -0.269 C  
BRANCH   7   8
HETATM    8  C   UNL     1     -11.083  11.264  65.393  1.00  0.00    -0.138 C  
BRANCH   8   9
HETATM    9  C   UNL     1     -10.482  12.337  64.487  1.00  0.00    -0.339 C  
BRANCH   9  10
HETATM   10  C   UNL     1     -10.848  13.735  64.966  1.00  0.00    -0.377 C  
BRANCH  10  11
HETATM   11  C   UNL     1      -9.718  14.348  65.793  1.00  0.00    -0.283 C  
BRANCH  11  12
HETATM   12  C   UNL     1     -10.077  15.772  66.205  1.00  0.00    -0.320 C  
BRANCH  12  13
HETATM   13  C   UNL     1      -8.867  16.537  66.745  1.00  0.00    -0.255 C  
HETATM   14  C   UNL     1      -9.051  16.962  68.218  1.00  0.00    -0.235 C  
HETATM   15  C   UNL     1      -7.907  17.872  68.660  1.00  0.00    -0.294 A  
HETATM   16  C   UNL     1      -9.239  15.746  69.143  1.00  0.00    -0.256 C  
HETATM   17  C   UNL     1      -6.731  17.300  69.190  1.00  0.00    -0.243 A  
HETATM   18  C   UNL     1      -5.675  18.089  69.651  1.00  0.00    -0.235 A  
HETATM   19  C   UNL     1      -5.758  19.473  69.575  1.00  0.00    -0.264 A  
HETATM   20  C   UNL     1      -6.888  20.065  69.019  1.00  0.00    -0.302 A  
HETATM   21  C   UNL     1      -7.953  19.278  68.558  1.00  0.00    -0.361 A  
HETATM   22  I   UNL     1      -9.566  20.341  67.713  1.00  0.00    -0.306 I  
ENDBRANCH  12  13
ENDBRANCH  11  12
ENDBRANCH  10  11
ENDBRANCH   9  10
ENDBRANCH   8   9
ENDBRANCH   7   8
ENDBRANCH   6   7
ENDBRANCH   4   6
ENDBRANCH   3   4
ENDBRANCH   2   3
TORSDOF 10
ENDMDL
MODEL      330
REMARK 921   NORMALIZED FREE ENERGY PREDICTED BY IDOCK:   -2.78 KCAL/MOL
REMARK 922        TOTAL FREE ENERGY PREDICTED BY IDOCK:   -5.81 KCAL/MOL
REMARK 923 INTER-LIGAND FREE ENERGY PREDICTED BY IDOCK:   -4.97 KCAL/MOL
REMARK 924 INTRA-LIGAND FREE ENERGY PREDICTED BY IDOCK:   -0.84 KCAL/MOL
REMARK 927      BINDING AFFINITY PREDICTED BY RF-SCORE:    0.00 PKD
ROOT
HETATM    1  C   UNL     1     -12.248  13.309  63.627  1.00  0.00    -0.522 C  
HETATM    2  C   UNL     1     -11.772  12.371  64.721  1.00  0.00    -0.368 C  
ENDROOT
BRANCH   2   3
HETATM    3  O   UNL     1     -11.025  11.317  64.100  1.00  0.00    -0.372 OA 
BRANCH   3   4
HETATM    4  C   UNL     1      -9.896  10.953  64.772  1.00  0.00    -0.288 C  
HETATM    5  O   UNL     1      -9.174  10.012  64.478  1.00  0.00    -0.223 OA 
BRANCH   4   6
HETATM    6  C   UNL     1      -9.631  11.949  65.871  1.00  0.00    -0.248 C  
BRANCH   6   7
HETATM    7  C   UNL     1      -8.999  11.259  67.075  1.00  0.00    -0.154 C  
BRANCH   7   8
HETATM    8  C   UNL     1      -9.767  11.541  68.361  1.00  0.00    -0.202 C  
BRANCH   8   9
HETATM    9  C   UNL     1     -11.043  10.703  68.403  1.00  0.00    -0.328 C  
BRANCH   9  10
HETATM   10  C   UNL     1     -10.744   9.227  68.172  1.00  0.00    -0.205 C  
BRANCH  10  11
HETATM   11  C   UNL     1     -10.746   8.452  69.488  1.00  0.00    -0.181 C  
BRANCH  11  12
HETATM   12  C   UNL     1     -10.967   6.965  69.226  1.00  0.00    -0.260 C  
BRANCH  12  13
HETATM   13  C   UNL     1     -10.062   6.087  70.093  1.00  0.00    -0.249 C  
HETATM   14  C   UNL     1     -10.302   6.308  71.602  1.00  0.00    -0.248 C  
HETATM   15  C   UNL     1      -9.262   5.551  72.426  1.00  0.00    -0.153 A  
HETATM   16  C   UNL     1     -11.747   5.967  72.006  1.00  0.00    -0.315 C  
HETATM   17  C   UNL     1      -9.510   4.212  72.795  1.00  0.00    -0.161 A  
HETATM   18  C   UNL     1      -8.612   3.491  73.586  1.00  0.00    -0.082 A  
HETATM   19  C   UNL     1      -7.431   4.083  74.012  1.00  0.00    -0.071 A  
HETATM   20  C   UNL     1      -7.139   5.389  73.629  1.00  0.00    -0.086 A  
HETATM   21  C   UNL     1      -8.038   6.119  72.838  1.00  0.00    -0.109 A  
HETATM   22  I   UNL     1      -7.417   8.067  72.323  1.00  0.00    -0.144 I  
ENDBRANCH  12  13
ENDBRANCH  11  12
ENDBRANCH  10  11
ENDBRANCH   9  10
ENDBRANCH   8   9
ENDBRANCH   7   8
ENDBRANCH   6   7
ENDBRANCH   4   6
ENDBRANCH   3   4
ENDBRANCH   2   3
TORSDOF 10
ENDMDL
MODEL      331
REMARK 921   NORMALIZED FREE ENERGY PREDICTED BY IDOCK:   -2.77 KCAL/MOL
REMARK 922        TOTAL FREE ENERGY PREDICTED BY IDOCK:   -5.79 KCAL/MOL
REMARK 923 INTER-LIGAND FREE ENERGY PREDICTED BY IDOCK:   -5.17 KCAL/MOL
REMARK 924 INTRA-LIGAND FREE ENERGY PREDICTED BY IDOCK:   -0.61 KCAL/MOL
REMARK 927      BINDING AFFINITY PREDICTED BY RF-SCORE:    0.00 PKD
ROOT
HETATM    1  C   UNL     1     -12.969  15.836  73.400  1.00  0.00    -0.696 C  
HETATM    2  C   UNL     1     -12.647  14.469  72.825  1.00  0.00    -0.310 C  
ENDROOT
BRANCH   2   3
HETATM    3  O   UNL     1     -11.539  14.622  71.929  1.00  0.00    -0.240 OA 
BRANCH   3   4
HETATM    4  C   UNL     1     -11.882  15.018  70.670  1.00  0.00    -0.313 C  
HETATM    5  O   UNL     1     -11.865  16.171  70.265  1.00  0.00    -0.292 OA 
BRANCH   4   6
HETATM    6  C   UNL     1     -12.190  13.803  69.835  1.00  0.00    -0.383 C  
BRANCH   6   7
HETATM    7  C   UNL     1     -11.512  13.904  68.473  1.00  0.00    -0.346 C  
BRANCH   7   8
HETATM    8  C   UNL     1     -10.744  12.636  68.122  1.00  0.00    -0.242 C  
BRANCH   8   9
HETATM    9  C   UNL     1     -11.489  11.854  67.042  1.00  0.00    -0.384 C  
BRANCH   9  10
HETATM   10  C   UNL     1     -10.594  11.580  65.840  1.00  0.00    -0.318 C  
BRANCH  10  11
HETATM   11  C   UNL     1      -9.910  10.219  65.962  1.00  0.00    -0.292 C  
BRANCH  11  12
HETATM   12  C   UNL     1     -10.622   9.360  67.002  1.00  0.00    -0.272 C  
BRANCH  12  13
HETATM   13  C   UNL     1      -9.956   7.993  67.173  1.00  0.00    -0.303 C  
HETATM   14  C   UNL     1      -8.854   8.009  68.254  1.00  0.00    -0.133 C  
HETATM   15  C   UNL     1      -8.097   6.682  68.267  1.00  0.00    -0.111 A  
HETATM   16  C   UNL     1      -9.415   8.390  69.635  1.00  0.00    -0.166 C  
HETATM   17  C   UNL     1      -8.573   5.620  69.065  1.00  0.00    -0.105 A  
HETATM   18  C   UNL     1      -7.893   4.403  69.147  1.00  0.00    -0.061 A  
HETATM   19  C   UNL     1      -6.729   4.207  68.417  1.00  0.00    -0.047 A  
HETATM   20  C   UNL     1      -6.258   5.221  67.589  1.00  0.00    -0.038 A  
HETATM   21  C   UNL     1      -6.934   6.447  67.505  1.00  0.00    -0.078 A  
HETATM   22  I   UNL     1      -6.100   7.853  66.173  1.00  0.00    -0.042 I  
ENDBRANCH  12  13
ENDBRANCH  11  12
ENDBRANCH  10  11
ENDBRANCH   9  10
ENDBRANCH   8   9
ENDBRANCH   7   8
ENDBRANCH   6   7
ENDBRANCH   4   6
ENDBRANCH   3   4
ENDBRANCH   2   3
TORSDOF 10
ENDMDL
MODEL      332
REMARK 921   NORMALIZED FREE ENERGY PREDICTED BY IDOCK:   -2.76 KCAL/MOL
REMARK 922        TOTAL FREE ENERGY PREDICTED BY IDOCK:   -5.78 KCAL/MOL
REMARK 923 INTER-LIGAND FREE ENERGY PREDICTED BY IDOCK:   -4.52 KCAL/MOL
REMARK 924 INTRA-LIGAND FREE ENERGY PREDICTED BY IDOCK:   -1.26 KCAL/MOL
REMARK 927      BINDING AFFINITY PREDICTED BY RF-SCORE:    0.00 PKD
ROOT
HETATM    1  C   UNL     1     -11.511   8.620  71.904  1.00  0.00    -0.419 C  
HETATM    2  C   UNL     1     -10.257   7.991  71.326  1.00  0.00    -0.192 C  
ENDROOT
BRANCH   2   3
HETATM    3  O   UNL     1     -10.435   7.884  69.908  1.00  0.00    -0.220 OA 
BRANCH   3   4
HETATM    4  C   UNL     1     -10.607   6.611  69.454  1.00  0.00    -0.240 C  
HETATM    5  O   UNL     1     -11.156   6.304  68.406  1.00  0.00    -0.323 OA 
BRANCH   4   6
HETATM    6  C   UNL     1      -9.930   5.652  70.399  1.00  0.00    -0.267 C  
BRANCH   6   7
HETATM    7  C   UNL     1      -8.915   4.794  69.654  1.00  0.00    -0.135 C  
BRANCH   7   8
HETATM    8  C   UNL     1      -7.499   5.343  69.785  1.00  0.00    -0.066 C  
BRANCH   8   9
HETATM    9  C   UNL     1      -7.047   5.947  68.457  1.00  0.00    -0.081 C  
BRANCH   9  10
HETATM   10  C   UNL     1      -7.112   7.468  68.489  1.00  0.00    -0.081 C  
BRANCH  10  11
HETATM   11  C   UNL     1      -7.603   8.027  67.154  1.00  0.00    -0.097 C  
BRANCH  11  12
HETATM   12  C   UNL     1      -7.406   9.538  67.109  1.00  0.00    -0.088 C  
BRANCH  12  13
HETATM   13  C   UNL     1      -8.369  10.273  68.044  1.00  0.00    -0.114 C  
HETATM   14  C   UNL     1      -9.461  11.044  67.273  1.00  0.00    -0.179 C  
HETATM   15  C   UNL     1     -10.287  11.904  68.229  1.00  0.00    -0.211 A  
HETATM   16  C   UNL     1     -10.327  10.103  66.417  1.00  0.00    -0.258 C  
HETATM   17  C   UNL     1     -11.419  11.347  68.861  1.00  0.00    -0.363 A  
HETATM   18  C   UNL     1     -12.232  12.103  69.707  1.00  0.00    -0.212 A  
HETATM   19  C   UNL     1     -11.924  13.432  69.963  1.00  0.00    -0.407 A  
HETATM   20  C   UNL     1     -10.790  13.997  69.387  1.00  0.00    -0.141 A  
HETATM   21  C   UNL     1      -9.971  13.244  68.533  1.00  0.00    -0.188 A  
HETATM   22  I   UNL     1      -8.277  14.250  67.781  1.00  0.00    -0.240 I  
ENDBRANCH  12  13
ENDBRANCH  11  12
ENDBRANCH  10  11
ENDBRANCH   9  10
ENDBRANCH   8   9
ENDBRANCH   7   8
ENDBRANCH   6   7
ENDBRANCH   4   6
ENDBRANCH   3   4
ENDBRANCH   2   3
TORSDOF 10
ENDMDL
MODEL      333
REMARK 921   NORMALIZED FREE ENERGY PREDICTED BY IDOCK:   -2.76 KCAL/MOL
REMARK 922        TOTAL FREE ENERGY PREDICTED BY IDOCK:   -5.77 KCAL/MOL
REMARK 923 INTER-LIGAND FREE ENERGY PREDICTED BY IDOCK:   -5.07 KCAL/MOL
REMARK 924 INTRA-LIGAND FREE ENERGY PREDICTED BY IDOCK:   -0.70 KCAL/MOL
REMARK 927      BINDING AFFINITY PREDICTED BY RF-SCORE:    0.00 PKD
ROOT
HETATM    1  C   UNL     1      -9.486   1.594  70.086  1.00  0.00    -0.146 C  
HETATM    2  C   UNL     1      -8.930   2.940  70.512  1.00  0.00    -0.102 C  
ENDROOT
BRANCH   2   3
HETATM    3  O   UNL     1      -9.756   3.439  71.571  1.00  0.00    -0.154 OA 
BRANCH   3   4
HETATM    4  C   UNL     1      -9.809   4.799  71.654  1.00  0.00    -0.184 C  
HETATM    5  O   UNL     1      -9.805   5.443  72.693  1.00  0.00    -0.157 OA 
BRANCH   4   6
HETATM    6  C   UNL     1      -9.775   5.381  70.265  1.00  0.00    -0.254 C  
BRANCH   6   7
HETATM    7  C   UNL     1     -11.148   5.917  69.876  1.00  0.00    -0.417 C  
BRANCH   7   8
HETATM    8  C   UNL     1     -11.216   7.436  69.974  1.00  0.00    -0.200 C  
BRANCH   8   9
HETATM    9  C   UNL     1     -10.037   8.062  69.231  1.00  0.00    -0.198 C  
BRANCH   9  10
HETATM   10  C   UNL     1     -10.306   8.142  67.734  1.00  0.00    -0.295 C  
BRANCH  10  11
HETATM   11  C   UNL     1     -10.773   9.541  67.332  1.00  0.00    -0.297 C  
BRANCH  11  12
HETATM   12  C   UNL     1      -9.616  10.331  66.729  1.00  0.00    -0.214 C  
BRANCH  12  13
HETATM   13  C   UNL     1      -9.993  11.791  66.463  1.00  0.00    -0.229 C  
HETATM   14  C   UNL     1      -9.209  12.772  67.359  1.00  0.00    -0.193 C  
HETATM   15  C   UNL     1      -9.741  14.194  67.190  1.00  0.00    -0.248 A  
HETATM   16  C   UNL     1      -7.691  12.670  67.125  1.00  0.00    -0.094 C  
HETATM   17  C   UNL     1      -9.207  15.019  66.178  1.00  0.00    -0.294 A  
HETATM   18  C   UNL     1      -9.626  16.340  66.011  1.00  0.00    -0.371 A  
HETATM   19  C   UNL     1     -10.607  16.868  66.839  1.00  0.00    -0.214 A  
HETATM   20  C   UNL     1     -11.183  16.066  67.820  1.00  0.00    -0.231 A  
HETATM   21  C   UNL     1     -10.763  14.739  67.995  1.00  0.00    -0.248 A  
HETATM   22  I   UNL     1     -11.769  13.661  69.502  1.00  0.00    -0.331 I  
ENDBRANCH  12  13
ENDBRANCH  11  12
ENDBRANCH  10  11
ENDBRANCH   9  10
ENDBRANCH   8   9
ENDBRANCH   7   8
ENDBRANCH   6   7
ENDBRANCH   4   6
ENDBRANCH   3   4
ENDBRANCH   2   3
TORSDOF 10
ENDMDL
MODEL      334
REMARK 921   NORMALIZED FREE ENERGY PREDICTED BY IDOCK:   -2.76 KCAL/MOL
REMARK 922        TOTAL FREE ENERGY PREDICTED BY IDOCK:   -5.77 KCAL/MOL
REMARK 923 INTER-LIGAND FREE ENERGY PREDICTED BY IDOCK:   -4.75 KCAL/MOL
REMARK 924 INTRA-LIGAND FREE ENERGY PREDICTED BY IDOCK:   -1.01 KCAL/MOL
REMARK 927      BINDING AFFINITY PREDICTED BY RF-SCORE:    0.00 PKD
ROOT
HETATM    1  C   UNL     1      -9.390  15.619  69.468  1.00  0.00    -0.263 C  
HETATM    2  C   UNL     1      -8.835  14.971  68.213  1.00  0.00    -0.172 C  
ENDROOT
BRANCH   2   3
HETATM    3  O   UNL     1      -9.597  15.452  67.099  1.00  0.00    -0.208 OA 
BRANCH   3   4
HETATM    4  C   UNL     1     -10.617  14.633  66.716  1.00  0.00    -0.288 C  
HETATM    5  O   UNL     1     -11.800  14.941  66.698  1.00  0.00    -0.291 OA 
BRANCH   4   6
HETATM    6  C   UNL     1     -10.047  13.326  66.231  1.00  0.00    -0.294 C  
BRANCH   6   7
HETATM    7  C   UNL     1     -11.164  12.380  65.807  1.00  0.00    -0.370 C  
BRANCH   7   8
HETATM    8  C   UNL     1     -11.647  11.512  66.964  1.00  0.00    -0.203 C  
BRANCH   8   9
HETATM    9  C   UNL     1     -10.683  10.348  67.183  1.00  0.00    -0.316 C  
BRANCH   9  10
HETATM   10  C   UNL     1     -10.271  10.238  68.645  1.00  0.00    -0.196 C  
BRANCH  10  11
HETATM   11  C   UNL     1      -8.756  10.090  68.781  1.00  0.00    -0.136 C  
BRANCH  11  12
HETATM   12  C   UNL     1      -8.295   8.777  68.156  1.00  0.00    -0.122 C  
BRANCH  12  13
HETATM   13  C   UNL     1      -8.245   7.639  69.178  1.00  0.00    -0.130 C  
HETATM   14  C   UNL     1      -9.522   6.772  69.153  1.00  0.00    -0.141 C  
HETATM   15  C   UNL     1      -9.509   5.766  70.302  1.00  0.00    -0.196 A  
HETATM   16  C   UNL     1      -9.734   6.109  67.780  1.00  0.00    -0.118 C  
HETATM   17  C   UNL     1      -8.902   4.506  70.114  1.00  0.00    -0.129 A  
HETATM   18  C   UNL     1      -8.903   3.535  71.117  1.00  0.00    -0.136 A  
HETATM   19  C   UNL     1      -9.495   3.803  72.344  1.00  0.00    -0.183 A  
HETATM   20  C   UNL     1     -10.066   5.052  72.573  1.00  0.00    -0.231 A  
HETATM   21  C   UNL     1     -10.071   6.030  71.568  1.00  0.00    -0.192 A  
HETATM   22  I   UNL     1     -10.945   7.874  72.102  1.00  0.00    -0.437 I  
ENDBRANCH  12  13
ENDBRANCH  11  12
ENDBRANCH  10  11
ENDBRANCH   9  10
ENDBRANCH   8   9
ENDBRANCH   7   8
ENDBRANCH   6   7
ENDBRANCH   4   6
ENDBRANCH   3   4
ENDBRANCH   2   3
TORSDOF 10
ENDMDL
MODEL      335
REMARK 921   NORMALIZED FREE ENERGY PREDICTED BY IDOCK:   -2.75 KCAL/MOL
REMARK 922        TOTAL FREE ENERGY PREDICTED BY IDOCK:   -5.75 KCAL/MOL
REMARK 923 INTER-LIGAND FREE ENERGY PREDICTED BY IDOCK:   -5.48 KCAL/MOL
REMARK 924 INTRA-LIGAND FREE ENERGY PREDICTED BY IDOCK:   -0.28 KCAL/MOL
REMARK 927      BINDING AFFINITY PREDICTED BY RF-SCORE:    0.00 PKD
ROOT
HETATM    1  C   UNL     1      -9.089  17.256  66.234  1.00  0.00    -0.245 C  
HETATM    2  C   UNL     1      -9.889  17.421  67.513  1.00  0.00    -0.277 C  
ENDROOT
BRANCH   2   3
HETATM    3  O   UNL     1      -9.189  16.736  68.559  1.00  0.00    -0.227 OA 
BRANCH   3   4
HETATM    4  C   UNL     1      -7.892  17.123  68.719  1.00  0.00    -0.258 C  
HETATM    5  O   UNL     1      -7.495  18.279  68.713  1.00  0.00    -0.290 OA 
BRANCH   4   6
HETATM    6  C   UNL     1      -7.044  15.909  68.997  1.00  0.00    -0.161 C  
BRANCH   6   7
HETATM    7  C   UNL     1      -7.737  14.646  68.498  1.00  0.00    -0.126 C  
BRANCH   7   8
HETATM    8  C   UNL     1      -6.788  13.747  67.715  1.00  0.00    -0.182 C  
BRANCH   8   9
HETATM    9  C   UNL     1      -7.388  12.348  67.578  1.00  0.00    -0.146 C  
BRANCH   9  10
HETATM   10  C   UNL     1      -6.417  11.395  66.893  1.00  0.00    -0.138 C  
BRANCH  10  11
HETATM   11  C   UNL     1      -7.129  10.548  65.839  1.00  0.00    -0.134 C  
BRANCH  11  12
HETATM   12  C   UNL     1      -7.800   9.344  66.493  1.00  0.00    -0.097 C  
BRANCH  12  13
HETATM   13  C   UNL     1      -8.589   9.734  67.744  1.00  0.00    -0.125 C  
HETATM   14  C   UNL     1     -10.091   9.399  67.618  1.00  0.00    -0.262 C  
HETATM   15  C   UNL     1     -10.868   9.964  68.806  1.00  0.00    -0.240 A  
HETATM   16  C   UNL     1     -10.324   7.891  67.414  1.00  0.00    -0.349 C  
HETATM   17  C   UNL     1     -11.007   9.188  69.976  1.00  0.00    -0.240 A  
HETATM   18  C   UNL     1     -11.745   9.639  71.072  1.00  0.00    -0.433 A  
HETATM   19  C   UNL     1     -12.348  10.889  71.036  1.00  0.00    -0.498 A  
HETATM   20  C   UNL     1     -12.193  11.695  69.912  1.00  0.00    -0.310 A  
HETATM   21  C   UNL     1     -11.456  11.245  68.806  1.00  0.00    -0.293 A  
HETATM   22  I   UNL     1     -11.296  12.611  67.208  1.00  0.00    -0.443 I  
ENDBRANCH  12  13
ENDBRANCH  11  12
ENDBRANCH  10  11
ENDBRANCH   9  10
ENDBRANCH   8   9
ENDBRANCH   7   8
ENDBRANCH   6   7
ENDBRANCH   4   6
ENDBRANCH   3   4
ENDBRANCH   2   3
TORSDOF 10
ENDMDL
MODEL      336
REMARK 921   NORMALIZED FREE ENERGY PREDICTED BY IDOCK:   -2.73 KCAL/MOL
REMARK 922        TOTAL FREE ENERGY PREDICTED BY IDOCK:   -5.73 KCAL/MOL
REMARK 923 INTER-LIGAND FREE ENERGY PREDICTED BY IDOCK:   -4.24 KCAL/MOL
REMARK 924 INTRA-LIGAND FREE ENERGY PREDICTED BY IDOCK:   -1.49 KCAL/MOL
REMARK 927      BINDING AFFINITY PREDICTED BY RF-SCORE:    0.00 PKD
ROOT
HETATM    1  C   UNL     1      -8.422   2.056  66.558  1.00  0.00    -0.101 C  
HETATM    2  C   UNL     1      -9.038   3.226  67.304  1.00  0.00    -0.174 C  
ENDROOT
BRANCH   2   3
HETATM    3  O   UNL     1      -8.656   3.116  68.681  1.00  0.00    -0.079 OA 
BRANCH   3   4
HETATM    4  C   UNL     1      -9.416   3.853  69.539  1.00  0.00    -0.189 C  
HETATM    5  O   UNL     1      -9.792   3.485  70.642  1.00  0.00    -0.165 OA 
BRANCH   4   6
HETATM    6  C   UNL     1      -9.639   5.223  68.952  1.00  0.00    -0.189 C  
BRANCH   6   7
HETATM    7  C   UNL     1      -9.064   6.297  69.869  1.00  0.00    -0.145 C  
BRANCH   7   8
HETATM    8  C   UNL     1      -7.543   6.227  69.945  1.00  0.00    -0.092 C  
BRANCH   8   9
HETATM    9  C   UNL     1      -6.938   6.481  68.566  1.00  0.00    -0.080 C  
BRANCH   9  10
HETATM   10  C   UNL     1      -6.165   7.792  68.533  1.00  0.00    -0.040 C  
BRANCH  10  11
HETATM   11  C   UNL     1      -6.043   8.324  67.105  1.00  0.00    -0.055 C  
BRANCH  11  12
HETATM   12  C   UNL     1      -7.397   8.817  66.606  1.00  0.00    -0.082 C  
BRANCH  12  13
HETATM   13  C   UNL     1      -8.234   9.436  67.729  1.00  0.00    -0.114 C  
HETATM   14  C   UNL     1      -9.729   9.536  67.358  1.00  0.00    -0.201 C  
HETATM   15  C   UNL     1     -10.494  10.318  68.425  1.00  0.00    -0.228 A  
HETATM   16  C   UNL     1     -10.342   8.152  67.077  1.00  0.00    -0.403 C  
HETATM   17  C   UNL     1     -11.030   9.633  69.535  1.00  0.00    -0.233 A  
HETATM   18  C   UNL     1     -11.776  10.294  70.514  1.00  0.00    -0.418 A  
HETATM   19  C   UNL     1     -11.989  11.662  70.419  1.00  0.00    -0.448 A  
HETATM   20  C   UNL     1     -11.438  12.372  69.357  1.00  0.00    -0.336 A  
HETATM   21  C   UNL     1     -10.691  11.713  68.369  1.00  0.00    -0.217 A  
HETATM   22  I   UNL     1      -9.900  12.950  66.855  1.00  0.00    -0.252 I  
ENDBRANCH  12  13
ENDBRANCH  11  12
ENDBRANCH  10  11
ENDBRANCH   9  10
ENDBRANCH   8   9
ENDBRANCH   7   8
ENDBRANCH   6   7
ENDBRANCH   4   6
ENDBRANCH   3   4
ENDBRANCH   2   3
TORSDOF 10
ENDMDL
MODEL      337
REMARK 921   NORMALIZED FREE ENERGY PREDICTED BY IDOCK:   -2.73 KCAL/MOL
REMARK 922        TOTAL FREE ENERGY PREDICTED BY IDOCK:   -5.73 KCAL/MOL
REMARK 923 INTER-LIGAND FREE ENERGY PREDICTED BY IDOCK:   -4.60 KCAL/MOL
REMARK 924 INTRA-LIGAND FREE ENERGY PREDICTED BY IDOCK:   -1.13 KCAL/MOL
REMARK 927      BINDING AFFINITY PREDICTED BY RF-SCORE:    0.00 PKD
ROOT
HETATM    1  C   UNL     1      -6.530   6.858  66.440  1.00  0.00    -0.051 C  
HETATM    2  C   UNL     1      -7.177   8.230  66.487  1.00  0.00    -0.076 C  
ENDROOT
BRANCH   2   3
HETATM    3  O   UNL     1      -8.189   8.202  67.501  1.00  0.00    -0.120 OA 
BRANCH   3   4
HETATM    4  C   UNL     1      -9.444   8.497  67.056  1.00  0.00    -0.173 C  
HETATM    5  O   UNL     1     -10.238   7.689  66.598  1.00  0.00    -0.258 OA 
BRANCH   4   6
HETATM    6  C   UNL     1      -9.727   9.956  67.306  1.00  0.00    -0.213 C  
BRANCH   6   7
HETATM    7  C   UNL     1     -11.064  10.126  68.018  1.00  0.00    -0.302 C  
BRANCH   7   8
HETATM    8  C   UNL     1     -10.904  10.790  69.381  1.00  0.00    -0.289 C  
BRANCH   8   9
HETATM    9  C   UNL     1     -11.750  10.060  70.422  1.00  0.00    -0.365 C  
BRANCH   9  10
HETATM   10  C   UNL     1     -11.150   8.704  70.770  1.00  0.00    -0.295 C  
BRANCH  10  11
HETATM   11  C   UNL     1      -9.839   8.863  71.540  1.00  0.00    -0.384 C  
BRANCH  11  12
HETATM   12  C   UNL     1      -9.973   8.274  72.940  1.00  0.00    -0.296 C  
BRANCH  12  13
HETATM   13  C   UNL     1     -10.362   6.794  72.908  1.00  0.00    -0.245 C  
HETATM   14  C   UNL     1      -9.133   5.864  72.993  1.00  0.00    -0.127 C  
HETATM   15  C   UNL     1      -9.547   4.409  72.778  1.00  0.00    -0.171 A  
HETATM   16  C   UNL     1      -8.348   6.074  74.300  1.00  0.00    -0.108 C  
HETATM   17  C   UNL     1      -9.952   3.632  73.884  1.00  0.00    -0.167 A  
HETATM   18  C   UNL     1     -10.296   2.286  73.747  1.00  0.00    -0.198 A  
HETATM   19  C   UNL     1     -10.265   1.684  72.496  1.00  0.00    -0.217 A  
HETATM   20  C   UNL     1      -9.911   2.436  71.381  1.00  0.00    -0.170 A  
HETATM   21  C   UNL     1      -9.560   3.788  71.512  1.00  0.00    -0.161 A  
HETATM   22  I   UNL     1      -9.087   4.781  69.713  1.00  0.00    -0.215 I  
ENDBRANCH  12  13
ENDBRANCH  11  12
ENDBRANCH  10  11
ENDBRANCH   9  10
ENDBRANCH   8   9
ENDBRANCH   7   8
ENDBRANCH   6   7
ENDBRANCH   4   6
ENDBRANCH   3   4
ENDBRANCH   2   3
TORSDOF 10
ENDMDL
MODEL      338
REMARK 921   NORMALIZED FREE ENERGY PREDICTED BY IDOCK:   -2.70 KCAL/MOL
REMARK 922        TOTAL FREE ENERGY PREDICTED BY IDOCK:   -5.68 KCAL/MOL
REMARK 923 INTER-LIGAND FREE ENERGY PREDICTED BY IDOCK:   -4.12 KCAL/MOL
REMARK 924 INTRA-LIGAND FREE ENERGY PREDICTED BY IDOCK:   -1.56 KCAL/MOL
REMARK 927      BINDING AFFINITY PREDICTED BY RF-SCORE:    0.00 PKD
ROOT
HETATM    1  C   UNL     1      -7.329  10.924  68.964  1.00  0.00    -0.113 C  
HETATM    2  C   UNL     1      -8.590  10.088  69.078  1.00  0.00    -0.153 C  
ENDROOT
BRANCH   2   3
HETATM    3  O   UNL     1      -8.502   9.029  68.117  1.00  0.00    -0.127 OA 
BRANCH   3   4
HETATM    4  C   UNL     1      -9.696   8.655  67.576  1.00  0.00    -0.165 C  
HETATM    5  O   UNL     1     -10.499   7.895  68.096  1.00  0.00    -0.207 OA 
BRANCH   4   6
HETATM    6  C   UNL     1      -9.909   9.401  66.284  1.00  0.00    -0.351 C  
BRANCH   6   7
HETATM    7  C   UNL     1      -8.642   9.373  65.436  1.00  0.00    -0.176 C  
BRANCH   7   8
HETATM    8  C   UNL     1      -8.585  10.541  64.458  1.00  0.00    -0.165 C  
BRANCH   8   9
HETATM    9  C   UNL     1      -9.961  10.770  63.835  1.00  0.00    -0.404 C  
BRANCH   9  10
HETATM   10  C   UNL     1     -10.427  12.205  64.035  1.00  0.00    -0.418 C  
BRANCH  10  11
HETATM   11  C   UNL     1      -9.326  13.061  64.660  1.00  0.00     0.809 C  
BRANCH  11  12
HETATM   12  C   UNL     1      -9.909  13.969  65.738  1.00  0.00    -0.280 C  
BRANCH  12  13
HETATM   13  C   UNL     1     -10.187  13.212  67.039  1.00  0.00    -0.250 C  
HETATM   14  C   UNL     1     -11.692  13.155  67.375  1.00  0.00    -0.419 C  
HETATM   15  C   UNL     1     -11.910  12.553  68.762  1.00  0.00    -0.347 A  
HETATM   16  C   UNL     1     -12.494  12.432  66.278  1.00  0.00     0.493 C  
HETATM   17  C   UNL     1     -12.039  11.155  68.899  1.00  0.00    -0.276 A  
HETATM   18  C   UNL     1     -12.284  10.559  70.138  1.00  0.00    -0.358 A  
HETATM   19  C   UNL     1     -12.386  11.344  71.278  1.00  0.00    -0.344 A  
HETATM   20  C   UNL     1     -12.222  12.722  71.181  1.00  0.00    -0.097 A  
HETATM   21  C   UNL     1     -11.979  13.327  69.939  1.00  0.00    -0.330 A  
HETATM   22  I   UNL     1     -11.720  15.419  69.984  1.00  0.00    -0.447 I  
ENDBRANCH  12  13
ENDBRANCH  11  12
ENDBRANCH  10  11
ENDBRANCH   9  10
ENDBRANCH   8   9
ENDBRANCH   7   8
ENDBRANCH   6   7
ENDBRANCH   4   6
ENDBRANCH   3   4
ENDBRANCH   2   3
TORSDOF 10
ENDMDL
MODEL      339
REMARK 921   NORMALIZED FREE ENERGY PREDICTED BY IDOCK:   -2.70 KCAL/MOL
REMARK 922        TOTAL FREE ENERGY PREDICTED BY IDOCK:   -5.67 KCAL/MOL
REMARK 923 INTER-LIGAND FREE ENERGY PREDICTED BY IDOCK:   -4.77 KCAL/MOL
REMARK 924 INTRA-LIGAND FREE ENERGY PREDICTED BY IDOCK:   -0.91 KCAL/MOL
REMARK 927      BINDING AFFINITY PREDICTED BY RF-SCORE:    0.00 PKD
ROOT
HETATM    1  C   UNL     1      -5.580  18.019  67.378  1.00  0.00    -0.145 C  
HETATM    2  C   UNL     1      -6.676  17.120  66.837  1.00  0.00    -0.203 C  
ENDROOT
BRANCH   2   3
HETATM    3  O   UNL     1      -7.444  17.883  65.899  1.00  0.00    -0.464 OA 
BRANCH   3   4
HETATM    4  C   UNL     1      -8.536  18.501  66.433  1.00  0.00    -0.256 C  
HETATM    5  O   UNL     1      -8.587  19.674  66.772  1.00  0.00    -0.290 OA 
BRANCH   4   6
HETATM    6  C   UNL     1      -9.693  17.535  66.447  1.00  0.00    -0.299 C  
BRANCH   6   7
HETATM    7  C   UNL     1     -10.558  17.756  67.683  1.00  0.00    -0.385 C  
BRANCH   7   8
HETATM    8  C   UNL     1     -10.757  16.471  68.477  1.00  0.00    -0.336 C  
BRANCH   8   9
HETATM    9  C   UNL     1     -10.134  15.293  67.731  1.00  0.00    -0.230 C  
BRANCH   9  10
HETATM   10  C   UNL     1      -8.982  14.685  68.519  1.00  0.00    -0.184 C  
BRANCH  10  11
HETATM   11  C   UNL     1      -9.024  13.158  68.468  1.00  0.00    -0.048 C  
BRANCH  11  12
HETATM   12  C   UNL     1      -9.910  12.692  67.317  1.00  0.00    -0.206 C  
BRANCH  12  13
HETATM   13  C   UNL     1      -9.631  11.238  66.927  1.00  0.00    -0.210 C  
HETATM   14  C   UNL     1     -10.018  10.248  68.046  1.00  0.00    -0.177 C  
HETATM   15  C   UNL     1      -9.560   8.834  67.692  1.00  0.00    -0.179 A  
HETATM   16  C   UNL     1     -11.518  10.323  68.382  1.00  0.00    -0.163 C  
HETATM   17  C   UNL     1     -10.413   7.996  66.942  1.00  0.00    -0.387 A  
HETATM   18  C   UNL     1     -10.061   6.681  66.631  1.00  0.00    -0.202 A  
HETATM   19  C   UNL     1      -8.837   6.174  67.043  1.00  0.00    -0.110 A  
HETATM   20  C   UNL     1      -7.957   6.989  67.748  1.00  0.00    -0.114 A  
HETATM   21  C   UNL     1      -8.306   8.310  68.067  1.00  0.00    -0.129 A  
HETATM   22  I   UNL     1      -6.838   9.410  69.106  1.00  0.00    -0.053 I  
ENDBRANCH  12  13
ENDBRANCH  11  12
ENDBRANCH  10  11
ENDBRANCH   9  10
ENDBRANCH   8   9
ENDBRANCH   7   8
ENDBRANCH   6   7
ENDBRANCH   4   6
ENDBRANCH   3   4
ENDBRANCH   2   3
TORSDOF 10
ENDMDL
MODEL      340
REMARK 921   NORMALIZED FREE ENERGY PREDICTED BY IDOCK:   -2.70 KCAL/MOL
REMARK 922        TOTAL FREE ENERGY PREDICTED BY IDOCK:   -5.67 KCAL/MOL
REMARK 923 INTER-LIGAND FREE ENERGY PREDICTED BY IDOCK:   -4.99 KCAL/MOL
REMARK 924 INTRA-LIGAND FREE ENERGY PREDICTED BY IDOCK:   -0.69 KCAL/MOL
REMARK 927      BINDING AFFINITY PREDICTED BY RF-SCORE:    0.00 PKD
ROOT
HETATM    1  C   UNL     1      -9.719   6.055  70.302  1.00  0.00    -0.201 C  
HETATM    2  C   UNL     1     -10.322   7.402  69.950  1.00  0.00    -0.218 C  
ENDROOT
BRANCH   2   3
HETATM    3  O   UNL     1     -11.022   7.257  68.708  1.00  0.00    -0.130 OA 
BRANCH   3   4
HETATM    4  C   UNL     1     -10.270   7.514  67.601  1.00  0.00    -0.213 C  
HETATM    5  O   UNL     1      -9.831   6.669  66.835  1.00  0.00    -0.155 OA 
BRANCH   4   6
HETATM    6  C   UNL     1     -10.146   9.005  67.421  1.00  0.00    -0.291 C  
BRANCH   6   7
HETATM    7  C   UNL     1     -10.072   9.360  65.941  1.00  0.00    -0.243 C  
BRANCH   7   8
HETATM    8  C   UNL     1      -9.757  10.835  65.723  1.00  0.00    -0.278 C  
BRANCH   8   9
HETATM    9  C   UNL     1     -10.903  11.510  64.972  1.00  0.00    -0.336 C  
BRANCH   9  10
HETATM   10  C   UNL     1     -11.598  12.550  65.840  1.00  0.00    -0.454 C  
BRANCH  10  11
HETATM   11  C   UNL     1     -10.914  13.912  65.722  1.00  0.00    -0.285 C  
BRANCH  11  12
HETATM   12  C   UNL     1     -11.442  14.864  66.790  1.00  0.00    -0.304 C  
BRANCH  12  13
HETATM   13  C   UNL     1     -10.347  15.295  67.770  1.00  0.00    -0.244 C  
HETATM   14  C   UNL     1      -8.964  15.398  67.093  1.00  0.00    -0.236 C  
HETATM   15  C   UNL     1      -7.876  15.654  68.135  1.00  0.00    -0.129 A  
HETATM   16  C   UNL     1      -8.960  16.438  65.959  1.00  0.00    -0.307 C  
HETATM   17  C   UNL     1      -7.564  16.980  68.502  1.00  0.00    -0.231 A  
HETATM   18  C   UNL     1      -6.548  17.269  69.415  1.00  0.00    -0.218 A  
HETATM   19  C   UNL     1      -5.828  16.237  70.003  1.00  0.00    -0.185 A  
HETATM   20  C   UNL     1      -6.141  14.917  69.693  1.00  0.00    -0.125 A  
HETATM   21  C   UNL     1      -7.158  14.621  68.773  1.00  0.00    -0.113 A  
HETATM   22  I   UNL     1      -7.520  12.568  68.452  1.00  0.00    -0.092 I  
ENDBRANCH  12  13
ENDBRANCH  11  12
ENDBRANCH  10  11
ENDBRANCH   9  10
ENDBRANCH   8   9
ENDBRANCH   7   8
ENDBRANCH   6   7
ENDBRANCH   4   6
ENDBRANCH   3   4
ENDBRANCH   2   3
TORSDOF 10
ENDMDL
MODEL      341
REMARK 921   NORMALIZED FREE ENERGY PREDICTED BY IDOCK:   -2.70 KCAL/MOL
REMARK 922        TOTAL FREE ENERGY PREDICTED BY IDOCK:   -5.67 KCAL/MOL
REMARK 923 INTER-LIGAND FREE ENERGY PREDICTED BY IDOCK:   -4.84 KCAL/MOL
REMARK 924 INTRA-LIGAND FREE ENERGY PREDICTED BY IDOCK:   -0.83 KCAL/MOL
REMARK 927      BINDING AFFINITY PREDICTED BY RF-SCORE:    0.00 PKD
ROOT
HETATM    1  C   UNL     1      -6.184   7.986  64.553  1.00  0.00    -0.053 C  
HETATM    2  C   UNL     1      -7.119   9.143  64.855  1.00  0.00    -0.096 C  
ENDROOT
BRANCH   2   3
HETATM    3  O   UNL     1      -8.298   8.604  65.467  1.00  0.00    -0.131 OA 
BRANCH   3   4
HETATM    4  C   UNL     1      -9.312   9.501  65.626  1.00  0.00    -0.241 C  
HETATM    5  O   UNL     1     -10.324   9.312  66.285  1.00  0.00    -0.240 OA 
BRANCH   4   6
HETATM    6  C   UNL     1      -8.943  10.792  64.943  1.00  0.00    -0.201 C  
BRANCH   6   7
HETATM    7  C   UNL     1     -10.010  11.852  65.192  1.00  0.00    -0.276 C  
BRANCH   7   8
HETATM    8  C   UNL     1      -9.540  12.914  66.179  1.00  0.00    -0.215 C  
BRANCH   8   9
HETATM    9  C   UNL     1     -10.742  13.645  66.774  1.00  0.00    -0.272 C  
BRANCH   9  10
HETATM   10  C   UNL     1     -11.788  12.664  67.287  1.00  0.00    -0.395 C  
BRANCH  10  11
HETATM   11  C   UNL     1     -11.491  12.247  68.727  1.00  0.00    -0.360 C  
BRANCH  11  12
HETATM   12  C   UNL     1     -11.703  10.746  68.897  1.00  0.00    -0.338 C  
BRANCH  12  13
HETATM   13  C   UNL     1     -11.141  10.231  70.224  1.00  0.00    -0.388 C  
HETATM   14  C   UNL     1     -10.300   8.948  70.046  1.00  0.00    -0.219 C  
HETATM   15  C   UNL     1      -9.911   8.371  71.406  1.00  0.00    -0.259 A  
HETATM   16  C   UNL     1      -9.088   9.183  69.128  1.00  0.00    -0.144 C  
HETATM   17  C   UNL     1      -8.726   8.810  72.033  1.00  0.00    -0.160 A  
HETATM   18  C   UNL     1      -8.302   8.281  73.253  1.00  0.00    -0.251 A  
HETATM   19  C   UNL     1      -9.063   7.311  73.892  1.00  0.00    -0.276 A  
HETATM   20  C   UNL     1     -10.258   6.887  73.318  1.00  0.00    -0.286 A  
HETATM   21  C   UNL     1     -10.687   7.413  72.091  1.00  0.00    -0.225 A  
HETATM   22  I   UNL     1     -12.537   6.684  71.390  1.00  0.00     0.187 I  
ENDBRANCH  12  13
ENDBRANCH  11  12
ENDBRANCH  10  11
ENDBRANCH   9  10
ENDBRANCH   8   9
ENDBRANCH   7   8
ENDBRANCH   6   7
ENDBRANCH   4   6
ENDBRANCH   3   4
ENDBRANCH   2   3
TORSDOF 10
ENDMDL
MODEL      342
REMARK 921   NORMALIZED FREE ENERGY PREDICTED BY IDOCK:   -2.70 KCAL/MOL
REMARK 922        TOTAL FREE ENERGY PREDICTED BY IDOCK:   -5.67 KCAL/MOL
REMARK 923 INTER-LIGAND FREE ENERGY PREDICTED BY IDOCK:   -5.32 KCAL/MOL
REMARK 924 INTRA-LIGAND FREE ENERGY PREDICTED BY IDOCK:   -0.35 KCAL/MOL
REMARK 927      BINDING AFFINITY PREDICTED BY RF-SCORE:    0.00 PKD
ROOT
HETATM    1  C   UNL     1      -9.533   1.692  70.093  1.00  0.00    -0.146 C  
HETATM    2  C   UNL     1      -9.063   3.134  70.051  1.00  0.00    -0.127 C  
ENDROOT
BRANCH   2   3
HETATM    3  O   UNL     1     -10.094   3.947  70.627  1.00  0.00    -0.106 OA 
BRANCH   3   4
HETATM    4  C   UNL     1      -9.940   5.285  70.420  1.00  0.00    -0.233 C  
HETATM    5  O   UNL     1     -10.111   6.153  71.264  1.00  0.00    -0.183 OA 
BRANCH   4   6
HETATM    6  C   UNL     1      -9.436   5.515  69.019  1.00  0.00    -0.167 C  
BRANCH   6   7
HETATM    7  C   UNL     1     -10.431   6.353  68.224  1.00  0.00    -0.270 C  
BRANCH   7   8
HETATM    8  C   UNL     1     -10.334   7.835  68.570  1.00  0.00    -0.226 C  
BRANCH   8   9
HETATM    9  C   UNL     1      -8.930   8.352  68.262  1.00  0.00    -0.139 C  
BRANCH   9  10
HETATM   10  C   UNL     1      -8.876   9.034  66.902  1.00  0.00    -0.129 C  
BRANCH  10  11
HETATM   11  C   UNL     1      -9.830  10.226  66.845  1.00  0.00    -0.244 C  
BRANCH  11  12
HETATM   12  C   UNL     1      -9.085  11.516  67.171  1.00  0.00    -0.167 C  
BRANCH  12  13
HETATM   13  C   UNL     1      -9.669  12.224  68.396  1.00  0.00    -0.191 C  
HETATM   14  C   UNL     1     -10.804  13.201  68.023  1.00  0.00    -0.261 C  
HETATM   15  C   UNL     1     -11.234  14.015  69.242  1.00  0.00    -0.304 A  
HETATM   16  C   UNL     1     -11.980  12.478  67.343  1.00  0.00    -0.283 C  
HETATM   17  C   UNL     1     -12.235  13.507  70.097  1.00  0.00    -0.400 A  
HETATM   18  C   UNL     1     -12.696  14.231  71.198  1.00  0.00    -0.430 A  
HETATM   19  C   UNL     1     -12.152  15.475  71.488  1.00  0.00    -0.458 A  
HETATM   20  C   UNL     1     -11.134  15.984  70.688  1.00  0.00    -0.352 A  
HETATM   21  C   UNL     1     -10.670  15.263  69.578  1.00  0.00    -0.265 A  
HETATM   22  I   UNL     1      -9.099  16.168  68.501  1.00  0.00    -0.237 I  
ENDBRANCH  12  13
ENDBRANCH  11  12
ENDBRANCH  10  11
ENDBRANCH   9  10
ENDBRANCH   8   9
ENDBRANCH   7   8
ENDBRANCH   6   7
ENDBRANCH   4   6
ENDBRANCH   3   4
ENDBRANCH   2   3
TORSDOF 10
ENDMDL
MODEL      343
REMARK 921   NORMALIZED FREE ENERGY PREDICTED BY IDOCK:   -2.69 KCAL/MOL
REMARK 922        TOTAL FREE ENERGY PREDICTED BY IDOCK:   -5.66 KCAL/MOL
REMARK 923 INTER-LIGAND FREE ENERGY PREDICTED BY IDOCK:   -4.14 KCAL/MOL
REMARK 924 INTRA-LIGAND FREE ENERGY PREDICTED BY IDOCK:   -1.52 KCAL/MOL
REMARK 927      BINDING AFFINITY PREDICTED BY RF-SCORE:    0.00 PKD
ROOT
HETATM    1  C   UNL     1      -9.531   1.958  64.800  1.00  0.00    -0.055 C  
HETATM    2  C   UNL     1      -8.566   1.830  65.963  1.00  0.00    -0.112 C  
ENDROOT
BRANCH   2   3
HETATM    3  O   UNL     1      -9.340   1.713  67.163  1.00  0.00    -0.082 OA 
BRANCH   3   4
HETATM    4  C   UNL     1      -8.710   2.154  68.289  1.00  0.00    -0.093 C  
HETATM    5  O   UNL     1      -7.890   1.517  68.934  1.00  0.00    -0.046 OA 
BRANCH   4   6
HETATM    6  C   UNL     1      -9.113   3.581  68.554  1.00  0.00    -0.202 C  
BRANCH   6   7
HETATM    7  C   UNL     1      -8.695   4.002  69.959  1.00  0.00    -0.117 C  
BRANCH   7   8
HETATM    8  C   UNL     1      -7.996   5.356  69.964  1.00  0.00    -0.082 C  
BRANCH   8   9
HETATM    9  C   UNL     1      -7.344   5.614  68.607  1.00  0.00    -0.079 C  
BRANCH   9  10
HETATM   10  C   UNL     1      -6.808   7.036  68.511  1.00  0.00    -0.073 C  
BRANCH  10  11
HETATM   11  C   UNL     1      -7.143   7.661  67.157  1.00  0.00    -0.085 C  
BRANCH  11  12
HETATM   12  C   UNL     1      -8.118   8.820  67.336  1.00  0.00    -0.105 C  
BRANCH  12  13
HETATM   13  C   UNL     1      -8.820   8.778  68.695  1.00  0.00    -0.138 C  
HETATM   14  C   UNL     1     -10.325   8.457  68.568  1.00  0.00    -0.232 C  
HETATM   15  C   UNL     1     -11.020   8.601  69.921  1.00  0.00    -0.169 A  
HETATM   16  C   UNL     1     -10.563   7.083  67.917  1.00  0.00    -0.276 C  
HETATM   17  C   UNL     1     -11.072   7.495  70.795  1.00  0.00    -0.280 A  
HETATM   18  C   UNL     1     -11.734   7.561  72.022  1.00  0.00    -0.333 A  
HETATM   19  C   UNL     1     -12.345   8.742  72.420  1.00  0.00    -0.414 A  
HETATM   20  C   UNL     1     -12.275   9.863  71.597  1.00  0.00    -0.482 A  
HETATM   21  C   UNL     1     -11.615   9.802  70.361  1.00  0.00    -0.258 A  
HETATM   22  I   UNL     1     -11.575  11.602  69.264  1.00  0.00    -0.433 I  
ENDBRANCH  12  13
ENDBRANCH  11  12
ENDBRANCH  10  11
ENDBRANCH   9  10
ENDBRANCH   8   9
ENDBRANCH   7   8
ENDBRANCH   6   7
ENDBRANCH   4   6
ENDBRANCH   3   4
ENDBRANCH   2   3
TORSDOF 10
ENDMDL
MODEL      344
REMARK 921   NORMALIZED FREE ENERGY PREDICTED BY IDOCK:   -2.69 KCAL/MOL
REMARK 922        TOTAL FREE ENERGY PREDICTED BY IDOCK:   -5.66 KCAL/MOL
REMARK 923 INTER-LIGAND FREE ENERGY PREDICTED BY IDOCK:   -4.39 KCAL/MOL
REMARK 924 INTRA-LIGAND FREE ENERGY PREDICTED BY IDOCK:   -1.27 KCAL/MOL
REMARK 927      BINDING AFFINITY PREDICTED BY RF-SCORE:    0.00 PKD
ROOT
HETATM    1  C   UNL     1      -9.537   3.771  71.893  1.00  0.00    -0.220 C  
HETATM    2  C   UNL     1      -9.047   3.542  70.475  1.00  0.00    -0.122 C  
ENDROOT
BRANCH   2   3
HETATM    3  O   UNL     1      -9.842   4.353  69.601  1.00  0.00    -0.210 OA 
BRANCH   3   4
HETATM    4  C   UNL     1      -9.127   5.066  68.685  1.00  0.00    -0.110 C  
HETATM    5  O   UNL     1      -8.146   5.751  68.934  1.00  0.00    -0.100 OA 
BRANCH   4   6
HETATM    6  C   UNL     1      -9.680   4.799  67.309  1.00  0.00    -0.210 C  
BRANCH   6   7
HETATM    7  C   UNL     1      -9.579   6.048  66.441  1.00  0.00    -0.168 C  
BRANCH   7   8
HETATM    8  C   UNL     1      -8.462   5.936  65.410  1.00  0.00    -0.153 C  
BRANCH   8   9
HETATM    9  C   UNL     1      -8.273   7.273  64.695  1.00  0.00    -0.030 C  
BRANCH   9  10
HETATM   10  C   UNL     1      -7.304   8.173  65.451  1.00  0.00    -0.069 C  
BRANCH  10  11
HETATM   11  C   UNL     1      -8.030   9.367  66.070  1.00  0.00    -0.110 C  
BRANCH  11  12
HETATM   12  C   UNL     1      -7.758   9.431  67.570  1.00  0.00    -0.091 C  
BRANCH  12  13
HETATM   13  C   UNL     1      -9.010   9.125  68.395  1.00  0.00    -0.133 C  
HETATM   14  C   UNL     1      -9.204  10.123  69.556  1.00  0.00    -0.223 C  
HETATM   15  C   UNL     1     -10.356   9.679  70.457  1.00  0.00    -0.359 A  
HETATM   16  C   UNL     1      -9.367  11.566  69.047  1.00  0.00     0.090 C  
HETATM   17  C   UNL     1     -11.671  10.093  70.157  1.00  0.00    -0.330 A  
HETATM   18  C   UNL     1     -12.751   9.753  70.974  1.00  0.00    -0.392 A  
HETATM   19  C   UNL     1     -12.549   8.970  72.103  1.00  0.00    -0.461 A  
HETATM   20  C   UNL     1     -11.270   8.512  72.402  1.00  0.00    -0.399 A  
HETATM   21  C   UNL     1     -10.180   8.854  71.587  1.00  0.00    -0.345 A  
HETATM   22  I   UNL     1      -8.323   8.042  72.170  1.00  0.00    -0.241 I  
ENDBRANCH  12  13
ENDBRANCH  11  12
ENDBRANCH  10  11
ENDBRANCH   9  10
ENDBRANCH   8   9
ENDBRANCH   7   8
ENDBRANCH   6   7
ENDBRANCH   4   6
ENDBRANCH   3   4
ENDBRANCH   2   3
TORSDOF 10
ENDMDL
MODEL      345
REMARK 921   NORMALIZED FREE ENERGY PREDICTED BY IDOCK:   -2.69 KCAL/MOL
REMARK 922        TOTAL FREE ENERGY PREDICTED BY IDOCK:   -5.65 KCAL/MOL
REMARK 923 INTER-LIGAND FREE ENERGY PREDICTED BY IDOCK:   -4.65 KCAL/MOL
REMARK 924 INTRA-LIGAND FREE ENERGY PREDICTED BY IDOCK:   -1.01 KCAL/MOL
REMARK 927      BINDING AFFINITY PREDICTED BY RF-SCORE:    0.00 PKD
ROOT
HETATM    1  C   UNL     1      -9.215  15.258  68.373  1.00  0.00    -0.194 C  
HETATM    2  C   UNL     1      -9.607  14.021  67.586  1.00  0.00    -0.221 C  
ENDROOT
BRANCH   2   3
HETATM    3  O   UNL     1      -8.647  12.997  67.874  1.00  0.00    -0.166 OA 
BRANCH   3   4
HETATM    4  C   UNL     1      -8.900  11.800  67.272  1.00  0.00    -0.167 C  
HETATM    5  O   UNL     1      -8.474  11.456  66.179  1.00  0.00    -0.172 OA 
BRANCH   4   6
HETATM    6  C   UNL     1      -9.706  10.936  68.207  1.00  0.00    -0.171 C  
BRANCH   6   7
HETATM    7  C   UNL     1      -8.801   9.946  68.933  1.00  0.00    -0.145 C  
BRANCH   7   8
HETATM    8  C   UNL     1      -9.417   9.466  70.242  1.00  0.00    -0.294 C  
BRANCH   8   9
HETATM    9  C   UNL     1     -10.915   9.765  70.257  1.00  0.00    -0.352 C  
BRANCH   9  10
HETATM   10  C   UNL     1     -11.467   9.755  71.676  1.00  0.00    -0.294 C  
BRANCH  10  11
HETATM   11  C   UNL     1     -11.221   8.407  72.353  1.00  0.00    -0.438 C  
BRANCH  11  12
HETATM   12  C   UNL     1     -12.094   7.329  71.719  1.00  0.00    -0.353 C  
BRANCH  12  13
HETATM   13  C   UNL     1     -11.261   6.199  71.107  1.00  0.00    -0.355 C  
HETATM   14  C   UNL     1     -10.474   5.408  72.174  1.00  0.00    -0.273 C  
HETATM   15  C   UNL     1      -9.524   4.414  71.509  1.00  0.00    -0.215 A  
HETATM   16  C   UNL     1     -11.411   4.746  73.199  1.00  0.00    -0.380 C  
HETATM   17  C   UNL     1      -9.986   3.119  71.191  1.00  0.00    -0.007 A  
HETATM   18  C   UNL     1      -9.145   2.159  70.625  1.00  0.00    -0.168 A  
HETATM   19  C   UNL     1      -7.822   2.473  70.343  1.00  0.00    -0.047 A  
HETATM   20  C   UNL     1      -7.349   3.755  70.607  1.00  0.00    -0.041 A  
HETATM   21  C   UNL     1      -8.188   4.723  71.179  1.00  0.00    -0.104 A  
HETATM   22  I   UNL     1      -7.314   6.619  71.475  1.00  0.00    -0.089 I  
ENDBRANCH  12  13
ENDBRANCH  11  12
ENDBRANCH  10  11
ENDBRANCH   9  10
ENDBRANCH   8   9
ENDBRANCH   7   8
ENDBRANCH   6   7
ENDBRANCH   4   6
ENDBRANCH   3   4
ENDBRANCH   2   3
TORSDOF 10
ENDMDL
MODEL      346
REMARK 921   NORMALIZED FREE ENERGY PREDICTED BY IDOCK:   -2.68 KCAL/MOL
REMARK 922        TOTAL FREE ENERGY PREDICTED BY IDOCK:   -5.65 KCAL/MOL
REMARK 923 INTER-LIGAND FREE ENERGY PREDICTED BY IDOCK:   -4.54 KCAL/MOL
REMARK 924 INTRA-LIGAND FREE ENERGY PREDICTED BY IDOCK:   -1.10 KCAL/MOL
REMARK 927      BINDING AFFINITY PREDICTED BY RF-SCORE:    0.00 PKD
ROOT
HETATM    1  C   UNL     1     -12.276  13.327  63.829  1.00  0.00    -0.508 C  
HETATM    2  C   UNL     1     -11.735  12.024  64.387  1.00  0.00    -0.320 C  
ENDROOT
BRANCH   2   3
HETATM    3  O   UNL     1     -11.037  11.352  63.331  1.00  0.00    -0.378 OA 
BRANCH   3   4
HETATM    4  C   UNL     1      -9.812  10.867  63.682  1.00  0.00    -0.351 C  
HETATM    5  O   UNL     1      -9.111  10.150  62.983  1.00  0.00    -0.230 OA 
BRANCH   4   6
HETATM    6  C   UNL     1      -9.421  11.433  65.022  1.00  0.00    -0.209 C  
BRANCH   6   7
HETATM    7  C   UNL     1      -8.905  10.329  65.938  1.00  0.00    -0.176 C  
BRANCH   7   8
HETATM    8  C   UNL     1      -9.372  10.517  67.377  1.00  0.00    -0.158 C  
BRANCH   8   9
HETATM    9  C   UNL     1     -10.706   9.804  67.591  1.00  0.00    -0.334 C  
BRANCH   9  10
HETATM   10  C   UNL     1     -10.653   8.367  67.090  1.00  0.00    -0.326 C  
BRANCH  10  11
HETATM   11  C   UNL     1     -10.112   7.428  68.167  1.00  0.00    -0.210 C  
BRANCH  11  12
HETATM   12  C   UNL     1     -10.873   7.627  69.474  1.00  0.00    -0.171 C  
BRANCH  12  13
HETATM   13  C   UNL     1     -10.147   6.998  70.665  1.00  0.00    -0.201 C  
HETATM   14  C   UNL     1      -8.689   7.490  70.789  1.00  0.00    -0.140 C  
HETATM   15  C   UNL     1      -7.950   6.708  71.874  1.00  0.00    -0.102 A  
HETATM   16  C   UNL     1      -8.617   9.013  70.997  1.00  0.00    -0.264 C  
HETATM   17  C   UNL     1      -7.997   7.161  73.209  1.00  0.00    -0.114 A  
HETATM   18  C   UNL     1      -7.302   6.508  74.230  1.00  0.00    -0.095 A  
HETATM   19  C   UNL     1      -6.557   5.372  73.946  1.00  0.00    -0.074 A  
HETATM   20  C   UNL     1      -6.525   4.877  72.646  1.00  0.00    -0.043 A  
HETATM   21  C   UNL     1      -7.218   5.530  71.616  1.00  0.00    -0.085 A  
HETATM   22  I   UNL     1      -7.090   4.621  69.718  1.00  0.00    -0.056 I  
ENDBRANCH  12  13
ENDBRANCH  11  12
ENDBRANCH  10  11
ENDBRANCH   9  10
ENDBRANCH   8   9
ENDBRANCH   7   8
ENDBRANCH   6   7
ENDBRANCH   4   6
ENDBRANCH   3   4
ENDBRANCH   2   3
TORSDOF 10
ENDMDL
MODEL      347
REMARK 921   NORMALIZED FREE ENERGY PREDICTED BY IDOCK:   -2.66 KCAL/MOL
REMARK 922        TOTAL FREE ENERGY PREDICTED BY IDOCK:   -5.61 KCAL/MOL
REMARK 923 INTER-LIGAND FREE ENERGY PREDICTED BY IDOCK:   -4.90 KCAL/MOL
REMARK 924 INTRA-LIGAND FREE ENERGY PREDICTED BY IDOCK:   -0.72 KCAL/MOL
REMARK 927      BINDING AFFINITY PREDICTED BY RF-SCORE:    0.00 PKD
ROOT
HETATM    1  C   UNL     1     -11.838   9.384  71.181  1.00  0.00    -0.413 C  
HETATM    2  C   UNL     1     -11.144   8.359  72.059  1.00  0.00    -0.327 C  
ENDROOT
BRANCH   2   3
HETATM    3  O   UNL     1     -10.828   7.225  71.241  1.00  0.00    -0.233 OA 
BRANCH   3   4
HETATM    4  C   UNL     1      -9.889   7.464  70.281  1.00  0.00    -0.187 C  
HETATM    5  O   UNL     1     -10.094   7.453  69.077  1.00  0.00    -0.182 OA 
BRANCH   4   6
HETATM    6  C   UNL     1      -8.588   7.838  70.944  1.00  0.00    -0.128 C  
BRANCH   6   7
HETATM    7  C   UNL     1      -8.142   9.226  70.500  1.00  0.00    -0.198 C  
BRANCH   7   8
HETATM    8  C   UNL     1      -7.125   9.163  69.366  1.00  0.00    -0.053 C  
BRANCH   8   9
HETATM    9  C   UNL     1      -7.503  10.157  68.269  1.00  0.00    -0.082 C  
BRANCH   9  10
HETATM   10  C   UNL     1      -6.268  10.677  67.545  1.00  0.00    -0.056 C  
BRANCH  10  11
HETATM   11  C   UNL     1      -6.358  12.185  67.316  1.00  0.00    -0.152 C  
BRANCH  11  12
HETATM   12  C   UNL     1      -7.638  12.739  67.935  1.00  0.00    -0.138 C  
BRANCH  12  13
HETATM   13  C   UNL     1      -7.762  14.252  67.744  1.00  0.00    -0.172 C  
HETATM   14  C   UNL     1      -7.967  14.996  69.081  1.00  0.00    -0.195 C  
HETATM   15  C   UNL     1      -8.264  16.474  68.832  1.00  0.00    -0.241 A  
HETATM   16  C   UNL     1      -6.785  14.778  70.043  1.00  0.00    -0.148 C  
HETATM   17  C   UNL     1      -7.195  17.388  68.728  1.00  0.00    -0.249 A  
HETATM   18  C   UNL     1      -7.414  18.755  68.546  1.00  0.00    -0.328 A  
HETATM   19  C   UNL     1      -8.710  19.244  68.442  1.00  0.00    -0.395 A  
HETATM   20  C   UNL     1      -9.783  18.360  68.500  1.00  0.00    -0.386 A  
HETATM   21  C   UNL     1      -9.570  16.987  68.686  1.00  0.00    -0.275 A  
HETATM   22  I   UNL     1     -11.308  15.794  68.712  1.00  0.00    -0.358 I  
ENDBRANCH  12  13
ENDBRANCH  11  12
ENDBRANCH  10  11
ENDBRANCH   9  10
ENDBRANCH   8   9
ENDBRANCH   7   8
ENDBRANCH   6   7
ENDBRANCH   4   6
ENDBRANCH   3   4
ENDBRANCH   2   3
TORSDOF 10
ENDMDL
MODEL      348
REMARK 921   NORMALIZED FREE ENERGY PREDICTED BY IDOCK:   -2.65 KCAL/MOL
REMARK 922        TOTAL FREE ENERGY PREDICTED BY IDOCK:   -5.60 KCAL/MOL
REMARK 923 INTER-LIGAND FREE ENERGY PREDICTED BY IDOCK:   -6.07 KCAL/MOL
REMARK 924 INTRA-LIGAND FREE ENERGY PREDICTED BY IDOCK:    0.47 KCAL/MOL
REMARK 927      BINDING AFFINITY PREDICTED BY RF-SCORE:    0.00 PKD
ROOT
HETATM    1  C   UNL     1     -12.353  15.617  74.177  1.00  0.00    -0.799 C  
HETATM    2  C   UNL     1     -12.276  15.908  72.689  1.00  0.00    -0.502 C  
ENDROOT
BRANCH   2   3
HETATM    3  O   UNL     1     -13.509  15.481  72.096  1.00  0.00    -0.423 OA 
BRANCH   3   4
HETATM    4  C   UNL     1     -13.504  14.194  71.645  1.00  0.00    -0.369 C  
HETATM    5  O   UNL     1     -13.987  13.239  72.233  1.00  0.00    -0.532 OA 
BRANCH   4   6
HETATM    6  C   UNL     1     -12.894  14.156  70.267  1.00  0.00    -0.183 C  
BRANCH   6   7
HETATM    7  C   UNL     1     -11.697  13.213  70.239  1.00  0.00    -0.203 C  
BRANCH   7   8
HETATM    8  C   UNL     1     -12.035  11.880  69.583  1.00  0.00    -0.365 C  
BRANCH   8   9
HETATM    9  C   UNL     1     -11.849  10.742  70.585  1.00  0.00    -0.460 C  
BRANCH   9  10
HETATM   10  C   UNL     1     -10.482  10.087  70.432  1.00  0.00    -0.304 C  
BRANCH  10  11
HETATM   11  C   UNL     1     -10.617   8.607  70.075  1.00  0.00    -0.233 C  
BRANCH  11  12
HETATM   12  C   UNL     1      -9.239   7.964  69.957  1.00  0.00    -0.153 C  
BRANCH  12  13
HETATM   13  C   UNL     1      -9.199   6.569  70.586  1.00  0.00    -0.163 C  
HETATM   14  C   UNL     1      -9.886   6.529  71.967  1.00  0.00    -0.169 C  
HETATM   15  C   UNL     1      -9.667   5.172  72.635  1.00  0.00    -0.178 A  
HETATM   16  C   UNL     1     -11.372   6.917  71.877  1.00  0.00    -0.297 C  
HETATM   17  C   UNL     1     -10.575   4.121  72.384  1.00  0.00    -0.116 A  
HETATM   18  C   UNL     1     -10.446   2.877  73.005  1.00  0.00    -0.252 A  
HETATM   19  C   UNL     1      -9.392   2.642  73.877  1.00  0.00    -0.097 A  
HETATM   20  C   UNL     1      -8.457   3.645  74.112  1.00  0.00    -0.085 A  
HETATM   21  C   UNL     1      -8.583   4.898  73.495  1.00  0.00    -0.105 A  
HETATM   22  I   UNL     1      -7.057   6.285  73.936  1.00  0.00    -0.081 I  
ENDBRANCH  12  13
ENDBRANCH  11  12
ENDBRANCH  10  11
ENDBRANCH   9  10
ENDBRANCH   8   9
ENDBRANCH   7   8
ENDBRANCH   6   7
ENDBRANCH   4   6
ENDBRANCH   3   4
ENDBRANCH   2   3
TORSDOF 10
ENDMDL
MODEL      349
REMARK 921   NORMALIZED FREE ENERGY PREDICTED BY IDOCK:   -2.64 KCAL/MOL
REMARK 922        TOTAL FREE ENERGY PREDICTED BY IDOCK:   -5.57 KCAL/MOL
REMARK 923 INTER-LIGAND FREE ENERGY PREDICTED BY IDOCK:   -4.52 KCAL/MOL
REMARK 924 INTRA-LIGAND FREE ENERGY PREDICTED BY IDOCK:   -1.05 KCAL/MOL
REMARK 927      BINDING AFFINITY PREDICTED BY RF-SCORE:    0.00 PKD
ROOT
HETATM    1  C   UNL     1     -12.079  13.440  65.322  1.00  0.00    -0.446 C  
HETATM    2  C   UNL     1     -12.111  14.269  66.593  1.00  0.00    -0.420 C  
ENDROOT
BRANCH   2   3
HETATM    3  O   UNL     1     -11.317  13.593  67.576  1.00  0.00    -0.283 OA 
BRANCH   3   4
HETATM    4  C   UNL     1     -10.962  14.363  68.644  1.00  0.00    -0.250 C  
HETATM    5  O   UNL     1     -11.428  14.266  69.769  1.00  0.00    -0.259 OA 
BRANCH   4   6
HETATM    6  C   UNL     1      -9.841  15.285  68.238  1.00  0.00    -0.218 C  
BRANCH   6   7
HETATM    7  C   UNL     1      -8.774  14.519  67.464  1.00  0.00    -0.195 C  
BRANCH   7   8
HETATM    8  C   UNL     1      -8.095  13.460  68.324  1.00  0.00    -0.152 C  
BRANCH   8   9
HETATM    9  C   UNL     1      -7.495  12.371  67.437  1.00  0.00    -0.157 C  
BRANCH   9  10
HETATM   10  C   UNL     1      -6.017  12.164  67.737  1.00  0.00    -0.090 C  
BRANCH  10  11
HETATM   11  C   UNL     1      -5.799  10.932  68.614  1.00  0.00    -0.043 C  
BRANCH  11  12
HETATM   12  C   UNL     1      -5.922   9.661  67.780  1.00  0.00    -0.051 C  
BRANCH  12  13
HETATM   13  C   UNL     1      -6.811   8.613  68.454  1.00  0.00    -0.065 C  
HETATM   14  C   UNL     1      -8.077   8.299  67.629  1.00  0.00    -0.126 C  
HETATM   15  C   UNL     1      -9.019   7.390  68.416  1.00  0.00    -0.134 A  
HETATM   16  C   UNL     1      -7.727   7.737  66.239  1.00  0.00    -0.089 C  
HETATM   17  C   UNL     1      -8.867   5.990  68.327  1.00  0.00    -0.111 A  
HETATM   18  C   UNL     1      -9.730   5.115  68.990  1.00  0.00    -0.227 A  
HETATM   19  C   UNL     1     -10.756   5.617  69.779  1.00  0.00    -0.401 A  
HETATM   20  C   UNL     1     -10.905   6.993  69.920  1.00  0.00    -0.280 A  
HETATM   21  C   UNL     1     -10.044   7.877  69.253  1.00  0.00    -0.197 A  
HETATM   22  I   UNL     1     -10.393   9.926  69.611  1.00  0.00    -0.328 I  
ENDBRANCH  12  13
ENDBRANCH  11  12
ENDBRANCH  10  11
ENDBRANCH   9  10
ENDBRANCH   8   9
ENDBRANCH   7   8
ENDBRANCH   6   7
ENDBRANCH   4   6
ENDBRANCH   3   4
ENDBRANCH   2   3
TORSDOF 10
ENDMDL
MODEL      350
REMARK 921   NORMALIZED FREE ENERGY PREDICTED BY IDOCK:   -2.62 KCAL/MOL
REMARK 922        TOTAL FREE ENERGY PREDICTED BY IDOCK:   -5.55 KCAL/MOL
REMARK 923 INTER-LIGAND FREE ENERGY PREDICTED BY IDOCK:   -4.91 KCAL/MOL
REMARK 924 INTRA-LIGAND FREE ENERGY PREDICTED BY IDOCK:   -0.63 KCAL/MOL
REMARK 927      BINDING AFFINITY PREDICTED BY RF-SCORE:    0.00 PKD
ROOT
HETATM    1  C   UNL     1     -10.504  20.088  65.744  1.00  0.00    -0.469 C  
HETATM    2  C   UNL     1     -10.486  18.594  66.010  1.00  0.00    -0.414 C  
ENDROOT
BRANCH   2   3
HETATM    3  O   UNL     1     -11.173  18.360  67.245  1.00  0.00    -0.077 OA 
BRANCH   3   4
HETATM    4  C   UNL     1     -10.362  18.031  68.290  1.00  0.00    -0.380 C  
HETATM    5  O   UNL     1     -10.139  18.739  69.261  1.00  0.00    -0.298 OA 
BRANCH   4   6
HETATM    6  C   UNL     1      -9.862  16.621  68.103  1.00  0.00    -0.250 C  
BRANCH   6   7
HETATM    7  C   UNL     1     -11.031  15.660  67.922  1.00  0.00    -0.319 C  
BRANCH   7   8
HETATM    8  C   UNL     1     -11.092  15.097  66.507  1.00  0.00    -0.305 C  
BRANCH   8   9
HETATM    9  C   UNL     1      -9.828  14.293  66.209  1.00  0.00    -0.323 C  
BRANCH   9  10
HETATM   10  C   UNL     1      -9.981  12.840  66.640  1.00  0.00    -0.246 C  
BRANCH  10  11
HETATM   11  C   UNL     1      -9.956  11.902  65.434  1.00  0.00    -0.281 C  
BRANCH  11  12
HETATM   12  C   UNL     1      -8.851  10.863  65.594  1.00  0.00    -0.201 C  
BRANCH  12  13
HETATM   13  C   UNL     1      -9.300   9.672  66.444  1.00  0.00    -0.224 C  
HETATM   14  C   UNL     1      -8.205   9.210  67.430  1.00  0.00    -0.107 C  
HETATM   15  C   UNL     1      -8.623   7.917  68.127  1.00  0.00    -0.123 A  
HETATM   16  C   UNL     1      -7.820  10.324  68.419  1.00  0.00    -0.102 C  
HETATM   17  C   UNL     1      -9.374   7.983  69.319  1.00  0.00    -0.151 A  
HETATM   18  C   UNL     1      -9.742   6.832  70.019  1.00  0.00    -0.170 A  
HETATM   19  C   UNL     1      -9.386   5.580  69.535  1.00  0.00    -0.167 A  
HETATM   20  C   UNL     1      -8.681   5.481  68.339  1.00  0.00    -0.105 A  
HETATM   21  C   UNL     1      -8.305   6.634  67.633  1.00  0.00    -0.122 A  
HETATM   22  I   UNL     1      -7.274   6.295  65.826  1.00  0.00    -0.080 I  
ENDBRANCH  12  13
ENDBRANCH  11  12
ENDBRANCH  10  11
ENDBRANCH   9  10
ENDBRANCH   8   9
ENDBRANCH   7   8
ENDBRANCH   6   7
ENDBRANCH   4   6
ENDBRANCH   3   4
ENDBRANCH   2   3
TORSDOF 10
ENDMDL
MODEL      351
REMARK 921   NORMALIZED FREE ENERGY PREDICTED BY IDOCK:   -2.62 KCAL/MOL
REMARK 922        TOTAL FREE ENERGY PREDICTED BY IDOCK:   -5.55 KCAL/MOL
REMARK 923 INTER-LIGAND FREE ENERGY PREDICTED BY IDOCK:   -4.72 KCAL/MOL
REMARK 924 INTRA-LIGAND FREE ENERGY PREDICTED BY IDOCK:   -0.83 KCAL/MOL
REMARK 927      BINDING AFFINITY PREDICTED BY RF-SCORE:    0.00 PKD
ROOT
HETATM    1  C   UNL     1     -12.297  12.682  65.746  1.00  0.00    -0.323 C  
HETATM    2  C   UNL     1     -12.827  13.924  66.441  1.00  0.00     0.081 C  
ENDROOT
BRANCH   2   3
HETATM    3  O   UNL     1     -12.374  13.892  67.800  1.00  0.00    -0.252 OA 
BRANCH   3   4
HETATM    4  C   UNL     1     -11.962  15.096  68.288  1.00  0.00    -0.159 C  
HETATM    5  O   UNL     1     -12.252  15.549  69.385  1.00  0.00    -0.312 OA 
BRANCH   4   6
HETATM    6  C   UNL     1     -11.019  15.734  67.301  1.00  0.00    -0.259 C  
BRANCH   6   7
HETATM    7  C   UNL     1      -9.832  14.817  67.028  1.00  0.00    -0.240 C  
BRANCH   7   8
HETATM    8  C   UNL     1      -8.902  14.715  68.231  1.00  0.00    -0.176 C  
BRANCH   8   9
HETATM    9  C   UNL     1      -8.337  13.300  68.337  1.00  0.00    -0.131 C  
BRANCH   9  10
HETATM   10  C   UNL     1      -8.081  12.701  66.961  1.00  0.00    -0.088 C  
BRANCH  10  11
HETATM   11  C   UNL     1      -8.258  11.183  66.979  1.00  0.00    -0.146 C  
BRANCH  11  12
HETATM   12  C   UNL     1      -9.598  10.815  67.608  1.00  0.00    -0.174 C  
BRANCH  12  13
HETATM   13  C   UNL     1      -9.462   9.685  68.631  1.00  0.00    -0.147 C  
HETATM   14  C   UNL     1     -10.648   8.699  68.576  1.00  0.00    -0.162 C  
HETATM   15  C   UNL     1     -10.565   7.696  69.726  1.00  0.00    -0.245 A  
HETATM   16  C   UNL     1     -10.764   8.021  67.200  1.00  0.00    -0.285 C  
HETATM   17  C   UNL     1      -9.835   6.502  69.553  1.00  0.00    -0.167 A  
HETATM   18  C   UNL     1      -9.765   5.532  70.556  1.00  0.00    -0.241 A  
HETATM   19  C   UNL     1     -10.408   5.740  71.769  1.00  0.00    -0.271 A  
HETATM   20  C   UNL     1     -11.102   6.927  71.984  1.00  0.00    -0.279 A  
HETATM   21  C   UNL     1     -11.178   7.903  70.979  1.00  0.00    -0.269 A  
HETATM   22  I   UNL     1     -12.238   9.652  71.492  1.00  0.00    -0.473 I  
ENDBRANCH  12  13
ENDBRANCH  11  12
ENDBRANCH  10  11
ENDBRANCH   9  10
ENDBRANCH   8   9
ENDBRANCH   7   8
ENDBRANCH   6   7
ENDBRANCH   4   6
ENDBRANCH   3   4
ENDBRANCH   2   3
TORSDOF 10
ENDMDL
MODEL      352
REMARK 921   NORMALIZED FREE ENERGY PREDICTED BY IDOCK:   -2.60 KCAL/MOL
REMARK 922        TOTAL FREE ENERGY PREDICTED BY IDOCK:   -5.52 KCAL/MOL
REMARK 923 INTER-LIGAND FREE ENERGY PREDICTED BY IDOCK:   -4.95 KCAL/MOL
REMARK 924 INTRA-LIGAND FREE ENERGY PREDICTED BY IDOCK:   -0.57 KCAL/MOL
REMARK 927      BINDING AFFINITY PREDICTED BY RF-SCORE:    0.00 PKD
ROOT
HETATM    1  C   UNL     1      -5.802   9.121  65.493  1.00  0.00    -0.054 C  
HETATM    2  C   UNL     1      -5.588   8.481  66.852  1.00  0.00    -0.037 C  
ENDROOT
BRANCH   2   3
HETATM    3  O   UNL     1      -5.984   7.107  66.755  1.00  0.00    -0.032 OA 
BRANCH   3   4
HETATM    4  C   UNL     1      -6.774   6.673  67.778  1.00  0.00    -0.071 C  
HETATM    5  O   UNL     1      -6.373   6.311  68.874  1.00  0.00    -0.037 OA 
BRANCH   4   6
HETATM    6  C   UNL     1      -8.221   6.801  67.375  1.00  0.00    -0.122 C  
BRANCH   6   7
HETATM    7  C   UNL     1      -8.688   8.246  67.515  1.00  0.00    -0.129 C  
BRANCH   7   8
HETATM    8  C   UNL     1     -10.003   8.493  66.784  1.00  0.00    -0.351 C  
BRANCH   8   9
HETATM    9  C   UNL     1      -9.767   9.392  65.572  1.00  0.00    -0.300 C  
BRANCH   9  10
HETATM   10  C   UNL     1     -10.250  10.812  65.834  1.00  0.00    -0.319 C  
BRANCH  10  11
HETATM   11  C   UNL     1      -9.121  11.688  66.374  1.00  0.00    -0.209 C  
BRANCH  11  12
HETATM   12  C   UNL     1      -9.587  13.135  66.498  1.00  0.00    -0.268 C  
BRANCH  12  13
HETATM   13  C   UNL     1     -10.020  13.480  67.925  1.00  0.00    -0.245 C  
HETATM   14  C   UNL     1     -11.297  14.345  67.957  1.00  0.00    -0.316 C  
HETATM   15  C   UNL     1     -11.591  14.815  69.381  1.00  0.00    -0.342 A  
HETATM   16  C   UNL     1     -12.492  13.624  67.308  1.00  0.00    -0.012 C  
HETATM   17  C   UNL     1     -12.371  14.003  70.232  1.00  0.00    -0.425 A  
HETATM   18  C   UNL     1     -12.705  14.407  71.526  1.00  0.00    -0.417 A  
HETATM   19  C   UNL     1     -12.252  15.626  72.012  1.00  0.00    -0.521 A  
HETATM   20  C   UNL     1     -11.447  16.430  71.211  1.00  0.00    -0.261 A  
HETATM   21  C   UNL     1     -11.110  16.031  69.909  1.00  0.00    -0.352 A  
HETATM   22  I   UNL     1      -9.853  17.354  68.852  1.00  0.00    -0.133 I  
ENDBRANCH  12  13
ENDBRANCH  11  12
ENDBRANCH  10  11
ENDBRANCH   9  10
ENDBRANCH   8   9
ENDBRANCH   7   8
ENDBRANCH   6   7
ENDBRANCH   4   6
ENDBRANCH   3   4
ENDBRANCH   2   3
TORSDOF 10
ENDMDL
MODEL      353
REMARK 921   NORMALIZED FREE ENERGY PREDICTED BY IDOCK:   -2.60 KCAL/MOL
REMARK 922        TOTAL FREE ENERGY PREDICTED BY IDOCK:   -5.51 KCAL/MOL
REMARK 923 INTER-LIGAND FREE ENERGY PREDICTED BY IDOCK:   -4.03 KCAL/MOL
REMARK 924 INTRA-LIGAND FREE ENERGY PREDICTED BY IDOCK:   -1.48 KCAL/MOL
REMARK 927      BINDING AFFINITY PREDICTED BY RF-SCORE:    0.00 PKD
ROOT
HETATM    1  C   UNL     1      -6.476   6.838  66.421  1.00  0.00    -0.047 C  
HETATM    2  C   UNL     1      -7.169   8.189  66.406  1.00  0.00    -0.079 C  
ENDROOT
BRANCH   2   3
HETATM    3  O   UNL     1      -8.134   8.197  67.465  1.00  0.00    -0.119 OA 
BRANCH   3   4
HETATM    4  C   UNL     1      -9.427   8.319  67.051  1.00  0.00    -0.176 C  
HETATM    5  O   UNL     1     -10.180   7.388  66.805  1.00  0.00    -0.255 OA 
BRANCH   4   6
HETATM    6  C   UNL     1      -9.807   9.777  67.038  1.00  0.00    -0.245 C  
BRANCH   6   7
HETATM    7  C   UNL     1     -11.066  10.009  67.866  1.00  0.00    -0.260 C  
BRANCH   7   8
HETATM    8  C   UNL     1     -10.825  10.989  69.008  1.00  0.00    -0.274 C  
BRANCH   8   9
HETATM    9  C   UNL     1     -11.440  10.450  70.298  1.00  0.00    -0.406 C  
BRANCH   9  10
HETATM   10  C   UNL     1     -10.690   9.224  70.800  1.00  0.00    -0.350 C  
BRANCH  10  11
HETATM   11  C   UNL     1     -11.649   8.065  71.073  1.00  0.00    -0.303 C  
BRANCH  11  12
HETATM   12  C   UNL     1     -11.222   6.829  70.288  1.00  0.00    -0.385 C  
BRANCH  12  13
HETATM   13  C   UNL     1      -9.744   6.495  70.498  1.00  0.00    -0.186 C  
HETATM   14  C   UNL     1      -9.518   5.583  71.723  1.00  0.00    -0.175 C  
HETATM   15  C   UNL     1      -8.024   5.421  72.002  1.00  0.00    -0.113 A  
HETATM   16  C   UNL     1     -10.246   4.235  71.573  1.00  0.00    -0.138 C  
HETATM   17  C   UNL     1      -7.307   4.389  71.362  1.00  0.00    -0.055 A  
HETATM   18  C   UNL     1      -5.951   4.170  71.618  1.00  0.00    -0.013 A  
HETATM   19  C   UNL     1      -5.270   4.993  72.506  1.00  0.00    -0.008 A  
HETATM   20  C   UNL     1      -5.942   6.045  73.120  1.00  0.00    -0.049 A  
HETATM   21  C   UNL     1      -7.304   6.267  72.870  1.00  0.00    -0.095 A  
HETATM   22  I   UNL     1      -8.148   7.928  73.859  1.00  0.00    -0.301 I  
ENDBRANCH  12  13
ENDBRANCH  11  12
ENDBRANCH  10  11
ENDBRANCH   9  10
ENDBRANCH   8   9
ENDBRANCH   7   8
ENDBRANCH   6   7
ENDBRANCH   4   6
ENDBRANCH   3   4
ENDBRANCH   2   3
TORSDOF 10
ENDMDL
MODEL      354
REMARK 921   NORMALIZED FREE ENERGY PREDICTED BY IDOCK:   -2.59 KCAL/MOL
REMARK 922        TOTAL FREE ENERGY PREDICTED BY IDOCK:   -5.50 KCAL/MOL
REMARK 923 INTER-LIGAND FREE ENERGY PREDICTED BY IDOCK:   -4.50 KCAL/MOL
REMARK 924 INTRA-LIGAND FREE ENERGY PREDICTED BY IDOCK:   -1.00 KCAL/MOL
REMARK 927      BINDING AFFINITY PREDICTED BY RF-SCORE:    0.00 PKD
ROOT
HETATM    1  C   UNL     1      -8.351   5.687  62.977  1.00  0.00    -0.069 C  
HETATM    2  C   UNL     1      -8.253   5.648  64.491  1.00  0.00    -0.125 C  
ENDROOT
BRANCH   2   3
HETATM    3  O   UNL     1      -7.374   6.703  64.899  1.00  0.00    -0.070 OA 
BRANCH   3   4
HETATM    4  C   UNL     1      -6.551   6.383  65.938  1.00  0.00    -0.047 C  
HETATM    5  O   UNL     1      -5.836   5.393  65.992  1.00  0.00    -0.017 OA 
BRANCH   4   6
HETATM    6  C   UNL     1      -6.590   7.489  66.960  1.00  0.00    -0.062 C  
BRANCH   6   7
HETATM    7  C   UNL     1      -6.150   6.972  68.325  1.00  0.00    -0.034 C  
BRANCH   7   8
HETATM    8  C   UNL     1      -7.278   7.030  69.348  1.00  0.00    -0.085 C  
BRANCH   8   9
HETATM    9  C   UNL     1      -8.010   5.691  69.397  1.00  0.00    -0.099 C  
BRANCH   9  10
HETATM   10  C   UNL     1      -9.405   5.800  68.795  1.00  0.00    -0.135 C  
BRANCH  10  11
HETATM   11  C   UNL     1     -10.473   5.358  69.795  1.00  0.00    -0.378 C  
BRANCH  11  12
HETATM   12  C   UNL     1     -10.132   5.867  71.192  1.00  0.00    -0.249 C  
BRANCH  12  13
HETATM   13  C   UNL     1     -10.424   7.361  71.348  1.00  0.00    -0.218 C  
HETATM   14  C   UNL     1     -11.730   7.780  70.640  1.00  0.00    -0.191 C  
HETATM   15  C   UNL     1     -11.891   9.299  70.667  1.00  0.00    -0.246 A  
HETATM   16  C   UNL     1     -12.952   7.041  71.214  1.00  0.00    -0.357 C  
HETATM   17  C   UNL     1     -12.535   9.910  71.763  1.00  0.00    -0.487 A  
HETATM   18  C   UNL     1     -12.747  11.289  71.814  1.00  0.00    -0.379 A  
HETATM   19  C   UNL     1     -12.302  12.099  70.778  1.00  0.00    -0.391 A  
HETATM   20  C   UNL     1     -11.627  11.530  69.702  1.00  0.00    -0.403 A  
HETATM   21  C   UNL     1     -11.414  10.145  69.644  1.00  0.00    -0.198 A  
HETATM   22  I   UNL     1     -10.342   9.463  67.961  1.00  0.00    -0.258 I  
ENDBRANCH  12  13
ENDBRANCH  11  12
ENDBRANCH  10  11
ENDBRANCH   9  10
ENDBRANCH   8   9
ENDBRANCH   7   8
ENDBRANCH   6   7
ENDBRANCH   4   6
ENDBRANCH   3   4
ENDBRANCH   2   3
TORSDOF 10
ENDMDL
MODEL      355
REMARK 921   NORMALIZED FREE ENERGY PREDICTED BY IDOCK:   -2.58 KCAL/MOL
REMARK 922        TOTAL FREE ENERGY PREDICTED BY IDOCK:   -5.49 KCAL/MOL
REMARK 923 INTER-LIGAND FREE ENERGY PREDICTED BY IDOCK:   -4.56 KCAL/MOL
REMARK 924 INTRA-LIGAND FREE ENERGY PREDICTED BY IDOCK:   -0.92 KCAL/MOL
REMARK 927      BINDING AFFINITY PREDICTED BY RF-SCORE:    0.00 PKD
ROOT
HETATM    1  C   UNL     1      -5.600  10.589  66.409  1.00  0.00    -0.069 C  
HETATM    2  C   UNL     1      -6.816  10.447  67.306  1.00  0.00    -0.081 C  
ENDROOT
BRANCH   2   3
HETATM    3  O   UNL     1      -7.696  11.543  67.027  1.00  0.00    -0.144 OA 
BRANCH   3   4
HETATM    4  C   UNL     1      -8.870  11.189  66.433  1.00  0.00    -0.178 C  
HETATM    5  O   UNL     1      -8.992  10.338  65.564  1.00  0.00    -0.157 OA 
BRANCH   4   6
HETATM    6  C   UNL     1     -10.001  11.942  67.084  1.00  0.00    -0.209 C  
BRANCH   6   7
HETATM    7  C   UNL     1      -9.963  11.761  68.597  1.00  0.00    -0.181 C  
BRANCH   7   8
HETATM    8  C   UNL     1     -10.119  10.299  69.000  1.00  0.00    -0.225 C  
BRANCH   8   9
HETATM    9  C   UNL     1     -10.872  10.200  70.326  1.00  0.00    -0.370 C  
BRANCH   9  10
HETATM   10  C   UNL     1     -11.893   9.070  70.300  1.00  0.00     0.076 C  
BRANCH  10  11
HETATM   11  C   UNL     1     -12.271   8.637  71.716  1.00  0.00    -0.403 C  
BRANCH  11  12
HETATM   12  C   UNL     1     -11.213   7.695  72.281  1.00  0.00    -0.343 C  
BRANCH  12  13
HETATM   13  C   UNL     1     -11.057   6.430  71.435  1.00  0.00    -0.328 C  
HETATM   14  C   UNL     1      -9.637   6.289  70.847  1.00  0.00    -0.192 C  
HETATM   15  C   UNL     1      -9.576   5.117  69.869  1.00  0.00    -0.241 A  
HETATM   16  C   UNL     1      -8.568   6.203  71.951  1.00  0.00    -0.132 C  
HETATM   17  C   UNL     1      -9.277   3.825  70.352  1.00  0.00    -0.213 A  
HETATM   18  C   UNL     1      -9.165   2.730  69.494  1.00  0.00    -0.204 A  
HETATM   19  C   UNL     1      -9.368   2.891  68.130  1.00  0.00    -0.258 A  
HETATM   20  C   UNL     1      -9.704   4.145  67.629  1.00  0.00    -0.176 A  
HETATM   21  C   UNL     1      -9.815   5.250  68.485  1.00  0.00    -0.152 A  
HETATM   22  I   UNL     1     -10.368   7.062  67.560  1.00  0.00    -0.382 I  
ENDBRANCH  12  13
ENDBRANCH  11  12
ENDBRANCH  10  11
ENDBRANCH   9  10
ENDBRANCH   8   9
ENDBRANCH   7   8
ENDBRANCH   6   7
ENDBRANCH   4   6
ENDBRANCH   3   4
ENDBRANCH   2   3
TORSDOF 10
ENDMDL
MODEL      356
REMARK 921   NORMALIZED FREE ENERGY PREDICTED BY IDOCK:   -2.57 KCAL/MOL
REMARK 922        TOTAL FREE ENERGY PREDICTED BY IDOCK:   -5.48 KCAL/MOL
REMARK 923 INTER-LIGAND FREE ENERGY PREDICTED BY IDOCK:   -4.90 KCAL/MOL
REMARK 924 INTRA-LIGAND FREE ENERGY PREDICTED BY IDOCK:   -0.57 KCAL/MOL
REMARK 927      BINDING AFFINITY PREDICTED BY RF-SCORE:    0.00 PKD
ROOT
HETATM    1  C   UNL     1      -9.239  15.447  66.119  1.00  0.00    -0.362 C  
HETATM    2  C   UNL     1     -10.410  14.487  66.222  1.00  0.00    -0.294 C  
ENDROOT
BRANCH   2   3
HETATM    3  O   UNL     1      -9.890  13.199  66.572  1.00  0.00    -0.253 OA 
BRANCH   3   4
HETATM    4  C   UNL     1     -10.816  12.198  66.579  1.00  0.00    -0.270 C  
HETATM    5  O   UNL     1     -11.373  11.746  65.590  1.00  0.00    -0.307 OA 
BRANCH   4   6
HETATM    6  C   UNL     1     -10.971  11.676  67.984  1.00  0.00    -0.275 C  
BRANCH   6   7
HETATM    7  C   UNL     1      -9.905  10.628  68.285  1.00  0.00    -0.174 C  
BRANCH   7   8
HETATM    8  C   UNL     1      -9.961  10.158  69.734  1.00  0.00    -0.258 C  
BRANCH   8   9
HETATM    9  C   UNL     1     -11.413   9.960  70.164  1.00  0.00    -0.309 C  
BRANCH   9  10
HETATM   10  C   UNL     1     -11.502   9.493  71.611  1.00  0.00    -0.433 C  
BRANCH  10  11
HETATM   11  C   UNL     1     -11.340   7.977  71.711  1.00  0.00    -0.318 C  
BRANCH  11  12
HETATM   12  C   UNL     1     -11.493   7.336  70.336  1.00  0.00    -0.279 C  
BRANCH  12  13
HETATM   13  C   UNL     1     -10.830   5.958  70.265  1.00  0.00    -0.391 C  
HETATM   14  C   UNL     1      -9.391   6.028  69.711  1.00  0.00    -0.166 C  
HETATM   15  C   UNL     1      -8.834   4.623  69.489  1.00  0.00    -0.121 A  
HETATM   16  C   UNL     1      -8.481   6.899  70.594  1.00  0.00    -0.136 C  
HETATM   17  C   UNL     1      -8.172   3.964  70.546  1.00  0.00    -0.071 A  
HETATM   18  C   UNL     1      -7.605   2.699  70.381  1.00  0.00    -0.043 A  
HETATM   19  C   UNL     1      -7.703   2.047  69.159  1.00  0.00    -0.045 A  
HETATM   20  C   UNL     1      -8.386   2.654  68.110  1.00  0.00    -0.088 A  
HETATM   21  C   UNL     1      -8.955   3.927  68.268  1.00  0.00    -0.121 A  
HETATM   22  I   UNL     1      -9.983   4.676  66.587  1.00  0.00    -0.189 I  
ENDBRANCH  12  13
ENDBRANCH  11  12
ENDBRANCH  10  11
ENDBRANCH   9  10
ENDBRANCH   8   9
ENDBRANCH   7   8
ENDBRANCH   6   7
ENDBRANCH   4   6
ENDBRANCH   3   4
ENDBRANCH   2   3
TORSDOF 10
ENDMDL
MODEL      357
REMARK 921   NORMALIZED FREE ENERGY PREDICTED BY IDOCK:   -2.57 KCAL/MOL
REMARK 922        TOTAL FREE ENERGY PREDICTED BY IDOCK:   -5.47 KCAL/MOL
REMARK 923 INTER-LIGAND FREE ENERGY PREDICTED BY IDOCK:   -4.84 KCAL/MOL
REMARK 924 INTRA-LIGAND FREE ENERGY PREDICTED BY IDOCK:   -0.63 KCAL/MOL
REMARK 927      BINDING AFFINITY PREDICTED BY RF-SCORE:    0.00 PKD
ROOT
HETATM    1  C   UNL     1      -9.819   4.139  66.323  1.00  0.00    -0.208 C  
HETATM    2  C   UNL     1      -8.678   5.086  66.646  1.00  0.00    -0.108 C  
ENDROOT
BRANCH   2   3
HETATM    3  O   UNL     1      -9.223   6.408  66.749  1.00  0.00    -0.133 OA 
BRANCH   3   4
HETATM    4  C   UNL     1      -8.365   7.335  67.262  1.00  0.00    -0.119 C  
HETATM    5  O   UNL     1      -8.225   7.583  68.451  1.00  0.00    -0.123 OA 
BRANCH   4   6
HETATM    6  C   UNL     1      -7.553   7.933  66.143  1.00  0.00    -0.083 C  
BRANCH   6   7
HETATM    7  C   UNL     1      -8.247   9.168  65.580  1.00  0.00    -0.121 C  
BRANCH   7   8
HETATM    8  C   UNL     1      -7.867   9.423  64.127  1.00  0.00    -0.124 C  
BRANCH   8   9
HETATM    9  C   UNL     1      -9.125   9.614  63.282  1.00  0.00    -0.223 C  
BRANCH   9  10
HETATM   10  C   UNL     1      -9.324  11.076  62.906  1.00  0.00    -0.380 C  
BRANCH  10  11
HETATM   11  C   UNL     1     -10.475  11.697  63.696  1.00  0.00    -0.483 C  
BRANCH  11  12
HETATM   12  C   UNL     1     -10.181  13.164  63.993  1.00  0.00    -0.050 C  
BRANCH  12  13
HETATM   13  C   UNL     1     -10.418  13.512  65.465  1.00  0.00    -0.304 C  
HETATM   14  C   UNL     1     -10.133  14.999  65.769  1.00  0.00    -0.367 C  
HETATM   15  C   UNL     1     -10.206  15.262  67.272  1.00  0.00    -0.248 A  
HETATM   16  C   UNL     1     -11.045  15.933  64.954  1.00  0.00    -0.400 C  
HETATM   17  C   UNL     1     -11.445  15.595  67.858  1.00  0.00    -0.253 A  
HETATM   18  C   UNL     1     -11.557  15.890  69.219  1.00  0.00    -0.372 A  
HETATM   19  C   UNL     1     -10.435  15.838  70.035  1.00  0.00    -0.313 A  
HETATM   20  C   UNL     1      -9.207  15.472  69.494  1.00  0.00    -0.265 A  
HETATM   21  C   UNL     1      -9.087  15.179  68.127  1.00  0.00    -0.176 A  
HETATM   22  I   UNL     1      -7.161  14.607  67.487  1.00  0.00     0.017 I  
ENDBRANCH  12  13
ENDBRANCH  11  12
ENDBRANCH  10  11
ENDBRANCH   9  10
ENDBRANCH   8   9
ENDBRANCH   7   8
ENDBRANCH   6   7
ENDBRANCH   4   6
ENDBRANCH   3   4
ENDBRANCH   2   3
TORSDOF 10
ENDMDL
MODEL      358
REMARK 921   NORMALIZED FREE ENERGY PREDICTED BY IDOCK:   -2.57 KCAL/MOL
REMARK 922        TOTAL FREE ENERGY PREDICTED BY IDOCK:   -5.46 KCAL/MOL
REMARK 923 INTER-LIGAND FREE ENERGY PREDICTED BY IDOCK:   -3.96 KCAL/MOL
REMARK 924 INTRA-LIGAND FREE ENERGY PREDICTED BY IDOCK:   -1.51 KCAL/MOL
REMARK 927      BINDING AFFINITY PREDICTED BY RF-SCORE:    0.00 PKD
ROOT
HETATM    1  C   UNL     1     -10.283   8.773  71.982  1.00  0.00    -0.401 C  
HETATM    2  C   UNL     1     -11.432   8.346  71.088  1.00  0.00    -0.274 C  
ENDROOT
BRANCH   2   3
HETATM    3  O   UNL     1     -11.080   7.091  70.492  1.00  0.00    -0.256 OA 
BRANCH   3   4
HETATM    4  C   UNL     1     -10.788   7.158  69.162  1.00  0.00    -0.162 C  
HETATM    5  O   UNL     1     -10.519   8.182  68.551  1.00  0.00    -0.207 OA 
BRANCH   4   6
HETATM    6  C   UNL     1     -10.757   5.765  68.591  1.00  0.00    -0.303 C  
BRANCH   6   7
HETATM    7  C   UNL     1     -10.151   4.789  69.594  1.00  0.00    -0.275 C  
BRANCH   7   8
HETATM    8  C   UNL     1      -8.755   4.339  69.179  1.00  0.00    -0.120 C  
BRANCH   8   9
HETATM    9  C   UNL     1      -8.765   3.880  67.722  1.00  0.00    -0.119 C  
BRANCH   9  10
HETATM   10  C   UNL     1      -7.931   4.804  66.845  1.00  0.00    -0.103 C  
BRANCH  10  11
HETATM   11  C   UNL     1      -6.522   4.977  67.411  1.00  0.00    -0.045 C  
BRANCH  11  12
HETATM   12  C   UNL     1      -6.231   6.453  67.663  1.00  0.00    -0.032 C  
BRANCH  12  13
HETATM   13  C   UNL     1      -7.387   7.352  67.219  1.00  0.00    -0.098 C  
HETATM   14  C   UNL     1      -6.896   8.638  66.521  1.00  0.00    -0.072 C  
HETATM   15  C   UNL     1      -8.065   9.585  66.257  1.00  0.00    -0.111 A  
HETATM   16  C   UNL     1      -6.084   8.324  65.252  1.00  0.00    -0.045 C  
HETATM   17  C   UNL     1      -8.799   9.464  65.057  1.00  0.00    -0.234 A  
HETATM   18  C   UNL     1      -9.847  10.333  64.748  1.00  0.00    -0.403 A  
HETATM   19  C   UNL     1     -10.204  11.335  65.640  1.00  0.00    -0.304 A  
HETATM   20  C   UNL     1      -9.527  11.453  66.849  1.00  0.00    -0.193 A  
HETATM   21  C   UNL     1      -8.470  10.586  67.164  1.00  0.00    -0.127 A  
HETATM   22  I   UNL     1      -7.583  10.886  69.053  1.00  0.00    -0.073 I  
ENDBRANCH  12  13
ENDBRANCH  11  12
ENDBRANCH  10  11
ENDBRANCH   9  10
ENDBRANCH   8   9
ENDBRANCH   7   8
ENDBRANCH   6   7
ENDBRANCH   4   6
ENDBRANCH   3   4
ENDBRANCH   2   3
TORSDOF 10
ENDMDL
MODEL      359
REMARK 921   NORMALIZED FREE ENERGY PREDICTED BY IDOCK:   -2.56 KCAL/MOL
REMARK 922        TOTAL FREE ENERGY PREDICTED BY IDOCK:   -5.45 KCAL/MOL
REMARK 923 INTER-LIGAND FREE ENERGY PREDICTED BY IDOCK:   -4.68 KCAL/MOL
REMARK 924 INTRA-LIGAND FREE ENERGY PREDICTED BY IDOCK:   -0.77 KCAL/MOL
REMARK 927      BINDING AFFINITY PREDICTED BY RF-SCORE:    0.00 PKD
ROOT
HETATM    1  C   UNL     1     -11.531  16.073  68.220  1.00  0.00    -0.291 C  
HETATM    2  C   UNL     1     -11.297  14.794  67.437  1.00  0.00    -0.351 C  
ENDROOT
BRANCH   2   3
HETATM    3  O   UNL     1     -11.632  13.692  68.289  1.00  0.00    -0.295 OA 
BRANCH   3   4
HETATM    4  C   UNL     1     -11.655  12.480  67.665  1.00  0.00    -0.355 C  
HETATM    5  O   UNL     1     -12.386  11.547  67.962  1.00  0.00    -0.445 OA 
BRANCH   4   6
HETATM    6  C   UNL     1     -10.706  12.509  66.494  1.00  0.00    -0.266 C  
BRANCH   6   7
HETATM    7  C   UNL     1     -11.476  12.429  65.181  1.00  0.00    -0.379 C  
BRANCH   7   8
HETATM    8  C   UNL     1     -11.062  11.220  64.350  1.00  0.00    -0.273 C  
BRANCH   8   9
HETATM    9  C   UNL     1      -9.586  10.905  64.584  1.00  0.00    -0.305 C  
BRANCH   9  10
HETATM   10  C   UNL     1      -9.347   9.404  64.666  1.00  0.00    -0.112 C  
BRANCH  10  11
HETATM   11  C   UNL     1      -7.961   9.097  65.233  1.00  0.00    -0.111 C  
BRANCH  11  12
HETATM   12  C   UNL     1      -7.612   7.629  65.011  1.00  0.00    -0.097 C  
BRANCH  12  13
HETATM   13  C   UNL     1      -7.713   6.811  66.301  1.00  0.00    -0.098 C  
HETATM   14  C   UNL     1      -9.076   6.100  66.440  1.00  0.00    -0.158 C  
HETATM   15  C   UNL     1      -9.202   5.446  67.815  1.00  0.00    -0.115 A  
HETATM   16  C   UNL     1      -9.325   5.114  65.285  1.00  0.00    -0.053 C  
HETATM   17  C   UNL     1      -8.731   4.130  68.003  1.00  0.00    -0.116 A  
HETATM   18  C   UNL     1      -8.864   3.471  69.227  1.00  0.00    -0.156 A  
HETATM   19  C   UNL     1      -9.453   4.120  70.304  1.00  0.00    -0.251 A  
HETATM   20  C   UNL     1      -9.889   5.434  70.161  1.00  0.00    -0.273 A  
HETATM   21  C   UNL     1      -9.762   6.099  68.933  1.00  0.00    -0.130 A  
HETATM   22  I   UNL     1     -10.441   8.095  68.908  1.00  0.00    -0.051 I  
ENDBRANCH  12  13
ENDBRANCH  11  12
ENDBRANCH  10  11
ENDBRANCH   9  10
ENDBRANCH   8   9
ENDBRANCH   7   8
ENDBRANCH   6   7
ENDBRANCH   4   6
ENDBRANCH   3   4
ENDBRANCH   2   3
TORSDOF 10
ENDMDL
MODEL      360
REMARK 921   NORMALIZED FREE ENERGY PREDICTED BY IDOCK:   -2.53 KCAL/MOL
REMARK 922        TOTAL FREE ENERGY PREDICTED BY IDOCK:   -5.40 KCAL/MOL
REMARK 923 INTER-LIGAND FREE ENERGY PREDICTED BY IDOCK:   -4.74 KCAL/MOL
REMARK 924 INTRA-LIGAND FREE ENERGY PREDICTED BY IDOCK:   -0.66 KCAL/MOL
REMARK 927      BINDING AFFINITY PREDICTED BY RF-SCORE:    0.00 PKD
ROOT
HETATM    1  C   UNL     1      -9.337  15.563  69.405  1.00  0.00    -0.279 C  
HETATM    2  C   UNL     1      -8.960  14.872  68.107  1.00  0.00    -0.176 C  
ENDROOT
BRANCH   2   3
HETATM    3  O   UNL     1      -9.863  15.328  67.091  1.00  0.00    -0.222 OA 
BRANCH   3   4
HETATM    4  C   UNL     1     -10.942  14.521  66.890  1.00  0.00    -0.316 C  
HETATM    5  O   UNL     1     -12.091  14.785  67.213  1.00  0.00    -0.307 OA 
BRANCH   4   6
HETATM    6  C   UNL     1     -10.510  13.298  66.123  1.00  0.00    -0.296 C  
BRANCH   6   7
HETATM    7  C   UNL     1     -11.595  12.228  66.166  1.00  0.00    -0.450 C  
BRANCH   7   8
HETATM    8  C   UNL     1     -11.764  11.644  67.563  1.00  0.00    -0.288 C  
BRANCH   8   9
HETATM    9  C   UNL     1     -10.932  10.370  67.701  1.00  0.00    -0.374 C  
BRANCH   9  10
HETATM   10  C   UNL     1      -9.743  10.582  68.629  1.00  0.00    -0.175 C  
BRANCH  10  11
HETATM   11  C   UNL     1      -8.516   9.817  68.136  1.00  0.00    -0.114 C  
BRANCH  11  12
HETATM   12  C   UNL     1      -8.715   8.317  68.329  1.00  0.00    -0.136 C  
BRANCH  12  13
HETATM   13  C   UNL     1      -9.282   7.984  69.711  1.00  0.00    -0.149 C  
HETATM   14  C   UNL     1      -8.262   7.239  70.599  1.00  0.00    -0.116 C  
HETATM   15  C   UNL     1      -8.922   6.770  71.894  1.00  0.00    -0.135 A  
HETATM   16  C   UNL     1      -6.997   8.080  70.843  1.00  0.00    -0.045 C  
HETATM   17  C   UNL     1      -8.949   7.632  73.011  1.00  0.00    -0.228 A  
HETATM   18  C   UNL     1      -9.499   7.235  74.231  1.00  0.00    -0.177 A  
HETATM   19  C   UNL     1     -10.056   5.970  74.363  1.00  0.00    -0.316 A  
HETATM   20  C   UNL     1     -10.082   5.112  73.267  1.00  0.00    -0.198 A  
HETATM   21  C   UNL     1      -9.527   5.504  72.040  1.00  0.00    -0.150 A  
HETATM   22  I   UNL     1      -9.687   4.094  70.481  1.00  0.00    -0.094 I  
ENDBRANCH  12  13
ENDBRANCH  11  12
ENDBRANCH  10  11
ENDBRANCH   9  10
ENDBRANCH   8   9
ENDBRANCH   7   8
ENDBRANCH   6   7
ENDBRANCH   4   6
ENDBRANCH   3   4
ENDBRANCH   2   3
TORSDOF 10
ENDMDL
MODEL      361
REMARK 921   NORMALIZED FREE ENERGY PREDICTED BY IDOCK:   -2.52 KCAL/MOL
REMARK 922        TOTAL FREE ENERGY PREDICTED BY IDOCK:   -5.39 KCAL/MOL
REMARK 923 INTER-LIGAND FREE ENERGY PREDICTED BY IDOCK:   -4.66 KCAL/MOL
REMARK 924 INTRA-LIGAND FREE ENERGY PREDICTED BY IDOCK:   -0.73 KCAL/MOL
REMARK 927      BINDING AFFINITY PREDICTED BY RF-SCORE:    0.00 PKD
ROOT
HETATM    1  C   UNL     1     -12.658  11.675  63.518  1.00  0.00    -0.327 C  
HETATM    2  C   UNL     1     -11.558  12.680  63.230  1.00  0.00    -0.353 C  
ENDROOT
BRANCH   2   3
HETATM    3  O   UNL     1     -11.089  13.187  64.486  1.00  0.00    -0.323 OA 
BRANCH   3   4
HETATM    4  C   UNL     1     -11.919  14.094  65.074  1.00  0.00    -0.408 C  
HETATM    5  O   UNL     1     -12.826  14.690  64.511  1.00  0.00    -0.579 OA 
BRANCH   4   6
HETATM    6  C   UNL     1     -11.604  14.172  66.546  1.00  0.00    -0.389 C  
BRANCH   6   7
HETATM    7  C   UNL     1     -10.147  14.564  66.760  1.00  0.00    -0.264 C  
BRANCH   7   8
HETATM    8  C   UNL     1      -9.298  13.382  67.213  1.00  0.00    -0.233 C  
BRANCH   8   9
HETATM    9  C   UNL     1     -10.101  12.496  68.164  1.00  0.00    -0.225 C  
BRANCH   9  10
HETATM   10  C   UNL     1      -9.487  11.107  68.279  1.00  0.00    -0.182 C  
BRANCH  10  11
HETATM   11  C   UNL     1     -10.435  10.143  68.991  1.00  0.00    -0.239 C  
BRANCH  11  12
HETATM   12  C   UNL     1     -10.218   8.720  68.487  1.00  0.00    -0.220 C  
BRANCH  12  13
HETATM   13  C   UNL     1      -8.915   8.581  67.697  1.00  0.00    -0.141 C  
HETATM   14  C   UNL     1      -9.162   8.203  66.221  1.00  0.00    -0.245 C  
HETATM   15  C   UNL     1      -7.840   7.899  65.517  1.00  0.00    -0.112 A  
HETATM   16  C   UNL     1      -9.996   9.270  65.491  1.00  0.00    -0.022 C  
HETATM   17  C   UNL     1      -7.120   8.950  64.911  1.00  0.00    -0.083 A  
HETATM   18  C   UNL     1      -5.931   8.719  64.216  1.00  0.00    -0.066 A  
HETATM   19  C   UNL     1      -5.417   7.432  64.127  1.00  0.00    -0.033 A  
HETATM   20  C   UNL     1      -6.083   6.381  64.751  1.00  0.00    -0.030 A  
HETATM   21  C   UNL     1      -7.280   6.607  65.447  1.00  0.00    -0.073 A  
HETATM   22  I   UNL     1      -8.132   4.908  66.360  1.00  0.00    -0.107 I  
ENDBRANCH  12  13
ENDBRANCH  11  12
ENDBRANCH  10  11
ENDBRANCH   9  10
ENDBRANCH   8   9
ENDBRANCH   7   8
ENDBRANCH   6   7
ENDBRANCH   4   6
ENDBRANCH   3   4
ENDBRANCH   2   3
TORSDOF 10
ENDMDL
MODEL      362
REMARK 921   NORMALIZED FREE ENERGY PREDICTED BY IDOCK:   -2.51 KCAL/MOL
REMARK 922        TOTAL FREE ENERGY PREDICTED BY IDOCK:   -5.38 KCAL/MOL
REMARK 923 INTER-LIGAND FREE ENERGY PREDICTED BY IDOCK:   -4.73 KCAL/MOL
REMARK 924 INTRA-LIGAND FREE ENERGY PREDICTED BY IDOCK:   -0.65 KCAL/MOL
REMARK 927      BINDING AFFINITY PREDICTED BY RF-SCORE:    0.00 PKD
ROOT
HETATM    1  C   UNL     1     -10.786   5.467  73.659  1.00  0.00    -0.337 C  
HETATM    2  C   UNL     1     -11.431   5.699  72.305  1.00  0.00    -0.217 C  
ENDROOT
BRANCH   2   3
HETATM    3  O   UNL     1     -12.110   6.960  72.355  1.00  0.00    -0.207 OA 
BRANCH   3   4
HETATM    4  C   UNL     1     -11.513   7.952  71.636  1.00  0.00    -0.263 C  
HETATM    5  O   UNL     1     -10.688   7.783  70.750  1.00  0.00    -0.219 OA 
BRANCH   4   6
HETATM    6  C   UNL     1     -12.099   9.280  72.043  1.00  0.00    -0.406 C  
BRANCH   6   7
HETATM    7  C   UNL     1     -12.710   9.985  70.837  1.00  0.00    -0.414 C  
BRANCH   7   8
HETATM    8  C   UNL     1     -12.139  11.386  70.647  1.00  0.00    -0.469 C  
BRANCH   8   9
HETATM    9  C   UNL     1     -12.028  11.708  69.158  1.00  0.00    -0.378 C  
BRANCH   9  10
HETATM   10  C   UNL     1     -10.784  11.078  68.547  1.00  0.00    -0.236 C  
BRANCH  10  11
HETATM   11  C   UNL     1      -9.937  12.123  67.821  1.00  0.00    -0.198 C  
BRANCH  11  12
HETATM   12  C   UNL     1      -8.512  11.613  67.635  1.00  0.00    -0.142 C  
BRANCH  12  13
HETATM   13  C   UNL     1      -8.444  10.437  66.658  1.00  0.00    -0.126 C  
HETATM   14  C   UNL     1      -7.484  10.708  65.480  1.00  0.00    -0.063 C  
HETATM   15  C   UNL     1      -7.581   9.592  64.441  1.00  0.00    -0.122 A  
HETATM   16  C   UNL     1      -6.043  10.951  65.962  1.00  0.00    -0.122 C  
HETATM   17  C   UNL     1      -6.764   8.449  64.572  1.00  0.00    -0.069 A  
HETATM   18  C   UNL     1      -6.782   7.423  63.626  1.00  0.00    -0.053 A  
HETATM   19  C   UNL     1      -7.634   7.500  62.533  1.00  0.00    -0.110 A  
HETATM   20  C   UNL     1      -8.482   8.595  62.399  1.00  0.00    -0.194 A  
HETATM   21  C   UNL     1      -8.466   9.631  63.344  1.00  0.00    -0.188 A  
HETATM   22  I   UNL     1      -9.843  11.192  63.002  1.00  0.00    -0.198 I  
ENDBRANCH  12  13
ENDBRANCH  11  12
ENDBRANCH  10  11
ENDBRANCH   9  10
ENDBRANCH   8   9
ENDBRANCH   7   8
ENDBRANCH   6   7
ENDBRANCH   4   6
ENDBRANCH   3   4
ENDBRANCH   2   3
TORSDOF 10
ENDMDL
MODEL      363
REMARK 921   NORMALIZED FREE ENERGY PREDICTED BY IDOCK:   -2.51 KCAL/MOL
REMARK 922        TOTAL FREE ENERGY PREDICTED BY IDOCK:   -5.38 KCAL/MOL
REMARK 923 INTER-LIGAND FREE ENERGY PREDICTED BY IDOCK:   -4.78 KCAL/MOL
REMARK 924 INTRA-LIGAND FREE ENERGY PREDICTED BY IDOCK:   -0.60 KCAL/MOL
REMARK 927      BINDING AFFINITY PREDICTED BY RF-SCORE:    0.00 PKD
ROOT
HETATM    1  C   UNL     1      -8.103  20.408  67.303  1.00  0.00    -0.384 C  
HETATM    2  C   UNL     1      -8.358  19.010  67.835  1.00  0.00    -0.288 C  
ENDROOT
BRANCH   2   3
HETATM    3  O   UNL     1      -8.942  18.239  66.778  1.00  0.00    -0.268 OA 
BRANCH   3   4
HETATM    4  C   UNL     1      -8.128  17.273  66.267  1.00  0.00    -0.280 C  
HETATM    5  O   UNL     1      -7.066  17.474  65.697  1.00  0.00    -0.367 OA 
BRANCH   4   6
HETATM    6  C   UNL     1      -8.699  15.918  66.599  1.00  0.00    -0.324 C  
BRANCH   6   7
HETATM    7  C   UNL     1     -10.218  15.991  66.709  1.00  0.00    -0.275 C  
BRANCH   7   8
HETATM    8  C   UNL     1     -10.879  14.664  66.352  1.00  0.00    -0.315 C  
BRANCH   8   9
HETATM    9  C   UNL     1      -9.957  13.504  66.721  1.00  0.00    -0.269 C  
BRANCH   9  10
HETATM   10  C   UNL     1      -9.872  12.484  65.593  1.00  0.00    -0.227 C  
BRANCH  10  11
HETATM   11  C   UNL     1     -10.627  11.205  65.949  1.00  0.00    -0.294 C  
BRANCH  11  12
HETATM   12  C   UNL     1      -9.833  10.386  66.961  1.00  0.00    -0.234 C  
BRANCH  12  13
HETATM   13  C   UNL     1      -9.058   9.245  66.297  1.00  0.00    -0.213 C  
HETATM   14  C   UNL     1      -9.092   7.948  67.134  1.00  0.00    -0.158 C  
HETATM   15  C   UNL     1      -8.164   6.896  66.530  1.00  0.00    -0.117 A  
HETATM   16  C   UNL     1     -10.529   7.434  67.332  1.00  0.00    -0.366 C  
HETATM   17  C   UNL     1      -8.659   6.022  65.539  1.00  0.00    -0.145 A  
HETATM   18  C   UNL     1      -7.865   5.013  64.988  1.00  0.00    -0.090 A  
HETATM   19  C   UNL     1      -6.547   4.864  65.398  1.00  0.00    -0.040 A  
HETATM   20  C   UNL     1      -6.019   5.738  66.343  1.00  0.00    -0.022 A  
HETATM   21  C   UNL     1      -6.812   6.750  66.903  1.00  0.00    -0.065 A  
HETATM   22  I   UNL     1      -5.837   8.003  68.291  1.00  0.00    -0.039 I  
ENDBRANCH  12  13
ENDBRANCH  11  12
ENDBRANCH  10  11
ENDBRANCH   9  10
ENDBRANCH   8   9
ENDBRANCH   7   8
ENDBRANCH   6   7
ENDBRANCH   4   6
ENDBRANCH   3   4
ENDBRANCH   2   3
TORSDOF 10
ENDMDL
MODEL      364
REMARK 921   NORMALIZED FREE ENERGY PREDICTED BY IDOCK:   -2.50 KCAL/MOL
REMARK 922        TOTAL FREE ENERGY PREDICTED BY IDOCK:   -5.36 KCAL/MOL
REMARK 923 INTER-LIGAND FREE ENERGY PREDICTED BY IDOCK:   -4.69 KCAL/MOL
REMARK 924 INTRA-LIGAND FREE ENERGY PREDICTED BY IDOCK:   -0.67 KCAL/MOL
REMARK 927      BINDING AFFINITY PREDICTED BY RF-SCORE:    0.00 PKD
ROOT
HETATM    1  C   UNL     1     -12.007   9.496  71.223  1.00  0.00    -0.445 C  
HETATM    2  C   UNL     1     -11.247   8.612  72.194  1.00  0.00    -0.367 C  
ENDROOT
BRANCH   2   3
HETATM    3  O   UNL     1     -11.364   7.259  71.738  1.00  0.00    -0.243 OA 
BRANCH   3   4
HETATM    4  C   UNL     1     -10.637   6.973  70.621  1.00  0.00    -0.225 C  
HETATM    5  O   UNL     1     -11.054   7.032  69.474  1.00  0.00    -0.238 OA 
BRANCH   4   6
HETATM    6  C   UNL     1      -9.216   6.669  71.021  1.00  0.00    -0.160 C  
BRANCH   6   7
HETATM    7  C   UNL     1      -8.298   7.830  70.656  1.00  0.00    -0.124 C  
BRANCH   7   8
HETATM    8  C   UNL     1      -7.537   7.571  69.361  1.00  0.00    -0.092 C  
BRANCH   8   9
HETATM    9  C   UNL     1      -7.498   8.841  68.514  1.00  0.00    -0.089 C  
BRANCH   9  10
HETATM   10  C   UNL     1      -6.085   9.143  68.034  1.00  0.00    -0.050 C  
BRANCH  10  11
HETATM   11  C   UNL     1      -5.717  10.605  68.287  1.00  0.00    -0.043 C  
BRANCH  11  12
HETATM   12  C   UNL     1      -6.902  11.351  68.892  1.00  0.00    -0.089 C  
BRANCH  12  13
HETATM   13  C   UNL     1      -7.564  12.295  67.885  1.00  0.00    -0.127 C  
HETATM   14  C   UNL     1      -8.212  13.518  68.566  1.00  0.00    -0.104 C  
HETATM   15  C   UNL     1      -9.011  14.336  67.553  1.00  0.00    -0.197 A  
HETATM   16  C   UNL     1      -7.176  14.362  69.329  1.00  0.00    -0.107 C  
HETATM   17  C   UNL     1      -8.365  15.350  66.816  1.00  0.00    -0.285 A  
HETATM   18  C   UNL     1      -9.060  16.155  65.911  1.00  0.00    -0.268 A  
HETATM   19  C   UNL     1     -10.417  15.954  65.702  1.00  0.00    -0.411 A  
HETATM   20  C   UNL     1     -11.074  14.933  66.383  1.00  0.00    -0.342 A  
HETATM   21  C   UNL     1     -10.382  14.124  67.297  1.00  0.00    -0.267 A  
HETATM   22  I   UNL     1     -11.525  12.605  68.209  1.00  0.00    -0.418 I  
ENDBRANCH  12  13
ENDBRANCH  11  12
ENDBRANCH  10  11
ENDBRANCH   9  10
ENDBRANCH   8   9
ENDBRANCH   7   8
ENDBRANCH   6   7
ENDBRANCH   4   6
ENDBRANCH   3   4
ENDBRANCH   2   3
TORSDOF 10
ENDMDL
MODEL      365
REMARK 921   NORMALIZED FREE ENERGY PREDICTED BY IDOCK:   -2.48 KCAL/MOL
REMARK 922        TOTAL FREE ENERGY PREDICTED BY IDOCK:   -5.32 KCAL/MOL
REMARK 923 INTER-LIGAND FREE ENERGY PREDICTED BY IDOCK:   -5.29 KCAL/MOL
REMARK 924 INTRA-LIGAND FREE ENERGY PREDICTED BY IDOCK:   -0.04 KCAL/MOL
REMARK 927      BINDING AFFINITY PREDICTED BY RF-SCORE:    0.00 PKD
ROOT
HETATM    1  C   UNL     1     -12.335  15.538  70.743  1.00  0.00    -0.463 C  
HETATM    2  C   UNL     1     -12.370  14.036  70.958  1.00  0.00    -0.369 C  
ENDROOT
BRANCH   2   3
HETATM    3  O   UNL     1     -11.931  13.411  69.746  1.00  0.00    -0.309 OA 
BRANCH   3   4
HETATM    4  C   UNL     1     -11.420  14.270  68.819  1.00  0.00    -0.296 C  
HETATM    5  O   UNL     1     -12.078  14.909  68.011  1.00  0.00    -0.252 OA 
BRANCH   4   6
HETATM    6  C   UNL     1      -9.929  14.377  69.012  1.00  0.00    -0.135 C  
BRANCH   6   7
HETATM    7  C   UNL     1      -9.251  14.800  67.714  1.00  0.00    -0.194 C  
BRANCH   7   8
HETATM    8  C   UNL     1      -7.997  13.981  67.432  1.00  0.00    -0.191 C  
BRANCH   8   9
HETATM    9  C   UNL     1      -8.177  12.555  67.950  1.00  0.00    -0.165 C  
BRANCH   9  10
HETATM   10  C   UNL     1      -7.209  11.594  67.273  1.00  0.00    -0.137 C  
BRANCH  10  11
HETATM   11  C   UNL     1      -7.264  10.210  67.920  1.00  0.00    -0.086 C  
BRANCH  11  12
HETATM   12  C   UNL     1      -7.250  10.336  69.440  1.00  0.00    -0.104 C  
BRANCH  12  13
HETATM   13  C   UNL     1      -8.515   9.756  70.077  1.00  0.00    -0.229 C  
HETATM   14  C   UNL     1      -8.347   8.272  70.467  1.00  0.00    -0.124 C  
HETATM   15  C   UNL     1      -9.679   7.686  70.931  1.00  0.00    -0.175 A  
HETATM   16  C   UNL     1      -7.218   8.077  71.495  1.00  0.00    -0.071 C  
HETATM   17  C   UNL     1     -10.046   7.786  72.290  1.00  0.00    -0.277 A  
HETATM   18  C   UNL     1     -11.231   7.227  72.772  1.00  0.00    -0.348 A  
HETATM   19  C   UNL     1     -12.093   6.570  71.905  1.00  0.00    -0.388 A  
HETATM   20  C   UNL     1     -11.779   6.492  70.552  1.00  0.00    -0.438 A  
HETATM   21  C   UNL     1     -10.588   7.048  70.061  1.00  0.00    -0.230 A  
HETATM   22  I   UNL     1     -10.293   6.869  67.981  1.00  0.00    -0.307 I  
ENDBRANCH  12  13
ENDBRANCH  11  12
ENDBRANCH  10  11
ENDBRANCH   9  10
ENDBRANCH   8   9
ENDBRANCH   7   8
ENDBRANCH   6   7
ENDBRANCH   4   6
ENDBRANCH   3   4
ENDBRANCH   2   3
TORSDOF 10
ENDMDL
MODEL      366
REMARK 921   NORMALIZED FREE ENERGY PREDICTED BY IDOCK:   -2.46 KCAL/MOL
REMARK 922        TOTAL FREE ENERGY PREDICTED BY IDOCK:   -5.30 KCAL/MOL
REMARK 923 INTER-LIGAND FREE ENERGY PREDICTED BY IDOCK:   -4.98 KCAL/MOL
REMARK 924 INTRA-LIGAND FREE ENERGY PREDICTED BY IDOCK:   -0.32 KCAL/MOL
REMARK 927      BINDING AFFINITY PREDICTED BY RF-SCORE:    0.00 PKD
ROOT
HETATM    1  C   UNL     1      -8.854  17.388  67.980  1.00  0.00    -0.252 C  
HETATM    2  C   UNL     1      -7.962  16.349  67.325  1.00  0.00    -0.168 C  
ENDROOT
BRANCH   2   3
HETATM    3  O   UNL     1      -7.310  15.613  68.367  1.00  0.00    -0.112 OA 
BRANCH   3   4
HETATM    4  C   UNL     1      -5.953  15.744  68.388  1.00  0.00    -0.107 C  
HETATM    5  O   UNL     1      -5.348  16.802  68.478  1.00  0.00    -0.118 OA 
BRANCH   4   6
HETATM    6  C   UNL     1      -5.323  14.375  68.380  1.00  0.00    -0.108 C  
BRANCH   6   7
HETATM    7  C   UNL     1      -5.370  13.757  69.773  1.00  0.00    -0.089 C  
BRANCH   7   8
HETATM    8  C   UNL     1      -5.772  12.287  69.731  1.00  0.00    -0.112 C  
BRANCH   8   9
HETATM    9  C   UNL     1      -5.682  11.761  68.300  1.00  0.00    -0.045 C  
BRANCH   9  10
HETATM   10  C   UNL     1      -6.313  10.380  68.177  1.00  0.00    -0.052 C  
BRANCH  10  11
HETATM   11  C   UNL     1      -7.798  10.420  68.539  1.00  0.00    -0.107 C  
BRANCH  11  12
HETATM   12  C   UNL     1      -8.270  11.863  68.680  1.00  0.00    -0.072 C  
BRANCH  12  13
HETATM   13  C   UNL     1      -9.118  12.311  67.488  1.00  0.00    -0.182 C  
HETATM   14  C   UNL     1     -10.174  11.258  67.091  1.00  0.00    -0.235 C  
HETATM   15  C   UNL     1     -10.874  11.662  65.795  1.00  0.00    -0.334 A  
HETATM   16  C   UNL     1     -11.160  10.977  68.239  1.00  0.00    -0.316 C  
HETATM   17  C   UNL     1     -12.019  12.484  65.852  1.00  0.00    -0.472 A  
HETATM   18  C   UNL     1     -12.721  12.845  64.700  1.00  0.00    -0.403 A  
HETATM   19  C   UNL     1     -12.285  12.410  63.456  1.00  0.00    -0.661 A  
HETATM   20  C   UNL     1     -11.134  11.632  63.364  1.00  0.00    -0.422 A  
HETATM   21  C   UNL     1     -10.427  11.264  64.518  1.00  0.00    -0.334 A  
HETATM   22  I   UNL     1      -8.689  10.116  64.188  1.00  0.00    -0.276 I  
ENDBRANCH  12  13
ENDBRANCH  11  12
ENDBRANCH  10  11
ENDBRANCH   9  10
ENDBRANCH   8   9
ENDBRANCH   7   8
ENDBRANCH   6   7
ENDBRANCH   4   6
ENDBRANCH   3   4
ENDBRANCH   2   3
TORSDOF 10
ENDMDL
MODEL      367
REMARK 921   NORMALIZED FREE ENERGY PREDICTED BY IDOCK:   -2.45 KCAL/MOL
REMARK 922        TOTAL FREE ENERGY PREDICTED BY IDOCK:   -5.28 KCAL/MOL
REMARK 923 INTER-LIGAND FREE ENERGY PREDICTED BY IDOCK:   -3.63 KCAL/MOL
REMARK 924 INTRA-LIGAND FREE ENERGY PREDICTED BY IDOCK:   -1.65 KCAL/MOL
REMARK 927      BINDING AFFINITY PREDICTED BY RF-SCORE:    0.00 PKD
ROOT
HETATM    1  C   UNL     1      -9.089   1.798  64.899  1.00  0.00    -0.126 C  
HETATM    2  C   UNL     1      -7.740   1.999  65.565  1.00  0.00    -0.072 C  
ENDROOT
BRANCH   2   3
HETATM    3  O   UNL     1      -7.955   2.746  66.769  1.00  0.00    -0.075 OA 
BRANCH   3   4
HETATM    4  C   UNL     1      -7.110   3.803  66.938  1.00  0.00    -0.063 C  
HETATM    5  O   UNL     1      -5.903   3.720  67.112  1.00  0.00    -0.022 OA 
BRANCH   4   6
HETATM    6  C   UNL     1      -7.885   5.086  66.779  1.00  0.00    -0.100 C  
BRANCH   6   7
HETATM    7  C   UNL     1      -7.009   6.285  67.124  1.00  0.00    -0.072 C  
BRANCH   7   8
HETATM    8  C   UNL     1      -7.789   7.593  67.076  1.00  0.00    -0.112 C  
BRANCH   8   9
HETATM    9  C   UNL     1      -9.033   7.429  66.204  1.00  0.00    -0.182 C  
BRANCH   9  10
HETATM   10  C   UNL     1     -10.301   7.751  66.982  1.00  0.00    -0.405 C  
BRANCH  10  11
HETATM   11  C   UNL     1     -11.076   6.479  67.323  1.00  0.00    -0.429 C  
BRANCH  11  12
HETATM   12  C   UNL     1     -11.256   6.359  68.833  1.00  0.00    -0.385 C  
BRANCH  12  13
HETATM   13  C   UNL     1      -9.925   6.464  69.582  1.00  0.00    -0.193 C  
HETATM   14  C   UNL     1      -9.684   5.262  70.520  1.00  0.00    -0.254 C  
HETATM   15  C   UNL     1      -8.440   5.491  71.376  1.00  0.00    -0.127 A  
HETATM   16  C   UNL     1      -9.638   3.933  69.744  1.00  0.00    -0.271 C  
HETATM   17  C   UNL     1      -7.178   5.095  70.886  1.00  0.00    -0.064 A  
HETATM   18  C   UNL     1      -6.017   5.242  71.648  1.00  0.00    -0.025 A  
HETATM   19  C   UNL     1      -6.083   5.807  72.914  1.00  0.00    -0.044 A  
HETATM   20  C   UNL     1      -7.308   6.246  73.408  1.00  0.00    -0.087 A  
HETATM   21  C   UNL     1      -8.478   6.098  72.649  1.00  0.00    -0.121 A  
HETATM   22  I   UNL     1     -10.236   6.851  73.538  1.00  0.00    -0.404 I  
ENDBRANCH  12  13
ENDBRANCH  11  12
ENDBRANCH  10  11
ENDBRANCH   9  10
ENDBRANCH   8   9
ENDBRANCH   7   8
ENDBRANCH   6   7
ENDBRANCH   4   6
ENDBRANCH   3   4
ENDBRANCH   2   3
TORSDOF 10
ENDMDL
MODEL      368
REMARK 921   NORMALIZED FREE ENERGY PREDICTED BY IDOCK:   -2.45 KCAL/MOL
REMARK 922        TOTAL FREE ENERGY PREDICTED BY IDOCK:   -5.28 KCAL/MOL
REMARK 923 INTER-LIGAND FREE ENERGY PREDICTED BY IDOCK:   -4.84 KCAL/MOL
REMARK 924 INTRA-LIGAND FREE ENERGY PREDICTED BY IDOCK:   -0.44 KCAL/MOL
REMARK 927      BINDING AFFINITY PREDICTED BY RF-SCORE:    0.00 PKD
ROOT
HETATM    1  C   UNL     1     -10.454  17.579  67.596  1.00  0.00    -0.370 C  
HETATM    2  C   UNL     1     -10.559  16.384  66.666  1.00  0.00    -0.239 C  
ENDROOT
BRANCH   2   3
HETATM    3  O   UNL     1     -11.402  15.412  67.296  1.00  0.00    -0.309 OA 
BRANCH   3   4
HETATM    4  C   UNL     1     -11.719  14.344  66.510  1.00  0.00    -0.391 C  
HETATM    5  O   UNL     1     -12.717  13.649  66.633  1.00  0.00    -0.209 OA 
BRANCH   4   6
HETATM    6  C   UNL     1     -10.697  14.217  65.411  1.00  0.00    -0.353 C  
BRANCH   6   7
HETATM    7  C   UNL     1     -11.332  13.631  64.155  1.00  0.00    -0.330 C  
BRANCH   7   8
HETATM    8  C   UNL     1     -10.803  12.235  63.847  1.00  0.00    -0.464 C  
BRANCH   8   9
HETATM    9  C   UNL     1      -9.809  11.803  64.923  1.00  0.00    -0.251 C  
BRANCH   9  10
HETATM   10  C   UNL     1      -9.977  10.331  65.274  1.00  0.00    -0.387 C  
BRANCH  10  11
HETATM   11  C   UNL     1      -8.785   9.817  66.081  1.00  0.00    -0.150 C  
BRANCH  11  12
HETATM   12  C   UNL     1      -8.839   8.297  66.194  1.00  0.00    -0.200 C  
BRANCH  12  13
HETATM   13  C   UNL     1      -9.098   7.835  67.629  1.00  0.00    -0.138 C  
HETATM   14  C   UNL     1      -7.812   7.349  68.331  1.00  0.00    -0.122 C  
HETATM   15  C   UNL     1      -8.142   6.732  69.689  1.00  0.00    -0.126 A  
HETATM   16  C   UNL     1      -6.756   8.465  68.422  1.00  0.00    -0.064 C  
HETATM   17  C   UNL     1      -8.202   7.560  70.830  1.00  0.00    -0.112 A  
HETATM   18  C   UNL     1      -8.455   7.039  72.101  1.00  0.00    -0.116 A  
HETATM   19  C   UNL     1      -8.675   5.678  72.263  1.00  0.00    -0.132 A  
HETATM   20  C   UNL     1      -8.663   4.842  71.150  1.00  0.00    -0.143 A  
HETATM   21  C   UNL     1      -8.406   5.359  69.871  1.00  0.00    -0.100 A  
HETATM   22  I   UNL     1      -8.464   3.956  68.298  1.00  0.00    -0.136 I  
ENDBRANCH  12  13
ENDBRANCH  11  12
ENDBRANCH  10  11
ENDBRANCH   9  10
ENDBRANCH   8   9
ENDBRANCH   7   8
ENDBRANCH   6   7
ENDBRANCH   4   6
ENDBRANCH   3   4
ENDBRANCH   2   3
TORSDOF 10
ENDMDL
MODEL      369
REMARK 921   NORMALIZED FREE ENERGY PREDICTED BY IDOCK:   -2.45 KCAL/MOL
REMARK 922        TOTAL FREE ENERGY PREDICTED BY IDOCK:   -5.28 KCAL/MOL
REMARK 923 INTER-LIGAND FREE ENERGY PREDICTED BY IDOCK:   -3.86 KCAL/MOL
REMARK 924 INTRA-LIGAND FREE ENERGY PREDICTED BY IDOCK:   -1.42 KCAL/MOL
REMARK 927      BINDING AFFINITY PREDICTED BY RF-SCORE:    0.00 PKD
ROOT
HETATM    1  C   UNL     1     -12.307   6.819  71.796  1.00  0.00    -0.400 C  
HETATM    2  C   UNL     1     -11.529   7.861  72.578  1.00  0.00    -0.398 C  
ENDROOT
BRANCH   2   3
HETATM    3  O   UNL     1     -10.804   7.181  73.611  1.00  0.00    -0.352 OA 
BRANCH   3   4
HETATM    4  C   UNL     1      -9.452   7.165  73.437  1.00  0.00    -0.193 C  
HETATM    5  O   UNL     1      -8.710   8.124  73.593  1.00  0.00    -0.258 OA 
BRANCH   4   6
HETATM    6  C   UNL     1      -9.011   5.761  73.116  1.00  0.00    -0.124 C  
BRANCH   6   7
HETATM    7  C   UNL     1      -7.688   5.776  72.359  1.00  0.00    -0.102 C  
BRANCH   7   8
HETATM    8  C   UNL     1      -7.772   5.003  71.048  1.00  0.00    -0.087 C  
BRANCH   8   9
HETATM    9  C   UNL     1      -9.009   5.435  70.265  1.00  0.00    -0.158 C  
BRANCH   9  10
HETATM   10  C   UNL     1      -8.920   6.898  69.851  1.00  0.00    -0.142 C  
BRANCH  10  11
HETATM   11  C   UNL     1      -7.864   7.100  68.765  1.00  0.00    -0.122 C  
BRANCH  11  12
HETATM   12  C   UNL     1      -8.520   7.571  67.471  1.00  0.00    -0.119 C  
BRANCH  12  13
HETATM   13  C   UNL     1      -8.501   6.489  66.388  1.00  0.00    -0.124 C  
HETATM   14  C   UNL     1      -9.435   5.307  66.725  1.00  0.00    -0.142 C  
HETATM   15  C   UNL     1      -9.253   4.175  65.716  1.00  0.00    -0.148 A  
HETATM   16  C   UNL     1     -10.901   5.758  66.858  1.00  0.00    -0.337 C  
HETATM   17  C   UNL     1     -10.019   4.172  64.531  1.00  0.00    -0.170 A  
HETATM   18  C   UNL     1      -9.923   3.137  63.599  1.00  0.00    -0.157 A  
HETATM   19  C   UNL     1      -9.041   2.086  63.815  1.00  0.00    -0.098 A  
HETATM   20  C   UNL     1      -8.242   2.083  64.954  1.00  0.00    -0.080 A  
HETATM   21  C   UNL     1      -8.337   3.118  65.897  1.00  0.00    -0.097 A  
HETATM   22  I   UNL     1      -7.025   2.970  67.541  1.00  0.00    -0.050 I  
ENDBRANCH  12  13
ENDBRANCH  11  12
ENDBRANCH  10  11
ENDBRANCH   9  10
ENDBRANCH   8   9
ENDBRANCH   7   8
ENDBRANCH   6   7
ENDBRANCH   4   6
ENDBRANCH   3   4
ENDBRANCH   2   3
TORSDOF 10
ENDMDL
MODEL      370
REMARK 921   NORMALIZED FREE ENERGY PREDICTED BY IDOCK:   -2.45 KCAL/MOL
REMARK 922        TOTAL FREE ENERGY PREDICTED BY IDOCK:   -5.28 KCAL/MOL
REMARK 923 INTER-LIGAND FREE ENERGY PREDICTED BY IDOCK:   -5.09 KCAL/MOL
REMARK 924 INTRA-LIGAND FREE ENERGY PREDICTED BY IDOCK:   -0.19 KCAL/MOL
REMARK 927      BINDING AFFINITY PREDICTED BY RF-SCORE:    0.00 PKD
ROOT
HETATM    1  C   UNL     1     -11.933  15.524  73.951  1.00  0.00    -0.499 C  
HETATM    2  C   UNL     1     -11.709  15.714  72.462  1.00  0.00    -0.466 C  
ENDROOT
BRANCH   2   3
HETATM    3  O   UNL     1     -12.936  15.401  71.792  1.00  0.00    -0.366 OA 
BRANCH   3   4
HETATM    4  C   UNL     1     -12.972  14.161  71.227  1.00  0.00    -0.356 C  
HETATM    5  O   UNL     1     -13.507  13.178  71.718  1.00  0.00    -0.396 OA 
BRANCH   4   6
HETATM    6  C   UNL     1     -12.334  14.219  69.863  1.00  0.00    -0.377 C  
BRANCH   6   7
HETATM    7  C   UNL     1     -11.194  13.212  69.764  1.00  0.00    -0.017 C  
BRANCH   7   8
HETATM    8  C   UNL     1     -11.639  11.910  69.110  1.00  0.00    -0.373 C  
BRANCH   8   9
HETATM    9  C   UNL     1     -11.579  10.768  70.123  1.00  0.00    -0.424 C  
BRANCH   9  10
HETATM   10  C   UNL     1     -10.389   9.856  69.861  1.00  0.00    -0.298 C  
BRANCH  10  11
HETATM   11  C   UNL     1     -10.829   8.398  69.738  1.00  0.00    -0.184 C  
BRANCH  11  12
HETATM   12  C   UNL     1      -9.613   7.489  69.583  1.00  0.00    -0.159 C  
BRANCH  12  13
HETATM   13  C   UNL     1      -8.821   7.799  68.311  1.00  0.00    -0.129 C  
HETATM   14  C   UNL     1      -9.510   7.251  67.043  1.00  0.00    -0.196 C  
HETATM   15  C   UNL     1      -8.605   7.422  65.825  1.00  0.00    -0.150 A  
HETATM   16  C   UNL     1     -10.906   7.866  66.841  1.00  0.00    -0.050 C  
HETATM   17  C   UNL     1      -8.660   8.620  65.083  1.00  0.00    -0.200 A  
HETATM   18  C   UNL     1      -7.886   8.808  63.935  1.00  0.00    -0.141 A  
HETATM   19  C   UNL     1      -7.021   7.810  63.509  1.00  0.00    -0.072 A  
HETATM   20  C   UNL     1      -6.915   6.633  64.244  1.00  0.00    -0.051 A  
HETATM   21  C   UNL     1      -7.692   6.437  65.395  1.00  0.00    -0.098 A  
HETATM   22  I   UNL     1      -7.374   4.612  66.403  1.00  0.00    -0.083 I  
ENDBRANCH  12  13
ENDBRANCH  11  12
ENDBRANCH  10  11
ENDBRANCH   9  10
ENDBRANCH   8   9
ENDBRANCH   7   8
ENDBRANCH   6   7
ENDBRANCH   4   6
ENDBRANCH   3   4
ENDBRANCH   2   3
TORSDOF 10
ENDMDL
MODEL      371
REMARK 921   NORMALIZED FREE ENERGY PREDICTED BY IDOCK:   -2.44 KCAL/MOL
REMARK 922        TOTAL FREE ENERGY PREDICTED BY IDOCK:   -5.27 KCAL/MOL
REMARK 923 INTER-LIGAND FREE ENERGY PREDICTED BY IDOCK:   -4.81 KCAL/MOL
REMARK 924 INTRA-LIGAND FREE ENERGY PREDICTED BY IDOCK:   -0.46 KCAL/MOL
REMARK 927      BINDING AFFINITY PREDICTED BY RF-SCORE:    0.00 PKD
ROOT
HETATM    1  C   UNL     1     -13.560  14.347  71.174  1.00  0.00    -0.338 C  
HETATM    2  C   UNL     1     -12.764  15.475  70.542  1.00  0.00    -0.388 C  
ENDROOT
BRANCH   2   3
HETATM    3  O   UNL     1     -11.674  14.889  69.819  1.00  0.00    -0.270 OA 
BRANCH   3   4
HETATM    4  C   UNL     1     -10.498  15.571  69.919  1.00  0.00    -0.313 C  
HETATM    5  O   UNL     1      -9.387  15.062  69.931  1.00  0.00    -0.033 OA 
BRANCH   4   6
HETATM    6  C   UNL     1     -10.782  17.051  69.914  1.00  0.00     0.098 C  
BRANCH   6   7
HETATM    7  C   UNL     1     -10.226  17.698  68.651  1.00  0.00    -0.377 C  
BRANCH   7   8
HETATM    8  C   UNL     1      -8.939  17.026  68.185  1.00  0.00    -0.227 C  
BRANCH   8   9
HETATM    9  C   UNL     1      -7.751  17.958  68.412  1.00  0.00    -0.292 C  
BRANCH   9  10
HETATM   10  C   UNL     1      -6.442  17.182  68.469  1.00  0.00    -0.164 C  
BRANCH  10  11
HETATM   11  C   UNL     1      -6.342  16.185  67.316  1.00  0.00    -0.204 C  
BRANCH  11  12
HETATM   12  C   UNL     1      -5.939  14.810  67.840  1.00  0.00    -0.157 C  
BRANCH  12  13
HETATM   13  C   UNL     1      -7.152  13.975  68.259  1.00  0.00    -0.110 C  
HETATM   14  C   UNL     1      -7.544  12.934  67.189  1.00  0.00    -0.037 C  
HETATM   15  C   UNL     1      -8.858  12.250  67.563  1.00  0.00    -0.182 A  
HETATM   16  C   UNL     1      -6.406  11.934  66.922  1.00  0.00    -0.107 C  
HETATM   17  C   UNL     1      -8.833  11.097  68.376  1.00  0.00    -0.157 A  
HETATM   18  C   UNL     1     -10.002  10.409  68.709  1.00  0.00    -0.196 A  
HETATM   19  C   UNL     1     -11.231  10.867  68.255  1.00  0.00    -0.347 A  
HETATM   20  C   UNL     1     -11.292  12.025  67.486  1.00  0.00    -0.387 A  
HETATM   21  C   UNL     1     -10.121  12.719  67.145  1.00  0.00    -0.234 A  
HETATM   22  I   UNL     1     -10.404  14.471  66.006  1.00  0.00    -0.384 I  
ENDBRANCH  12  13
ENDBRANCH  11  12
ENDBRANCH  10  11
ENDBRANCH   9  10
ENDBRANCH   8   9
ENDBRANCH   7   8
ENDBRANCH   6   7
ENDBRANCH   4   6
ENDBRANCH   3   4
ENDBRANCH   2   3
TORSDOF 10
ENDMDL
MODEL      372
REMARK 921   NORMALIZED FREE ENERGY PREDICTED BY IDOCK:   -2.44 KCAL/MOL
REMARK 922        TOTAL FREE ENERGY PREDICTED BY IDOCK:   -5.27 KCAL/MOL
REMARK 923 INTER-LIGAND FREE ENERGY PREDICTED BY IDOCK:   -4.74 KCAL/MOL
REMARK 924 INTRA-LIGAND FREE ENERGY PREDICTED BY IDOCK:   -0.53 KCAL/MOL
REMARK 927      BINDING AFFINITY PREDICTED BY RF-SCORE:    0.00 PKD
ROOT
HETATM    1  C   UNL     1     -10.533   5.163  70.329  1.00  0.00    -0.296 C  
HETATM    2  C   UNL     1     -10.187   5.495  68.889  1.00  0.00    -0.214 C  
ENDROOT
BRANCH   2   3
HETATM    3  O   UNL     1      -9.001   4.768  68.546  1.00  0.00    -0.104 OA 
BRANCH   3   4
HETATM    4  C   UNL     1      -7.837   5.382  68.903  1.00  0.00    -0.083 C  
HETATM    5  O   UNL     1      -6.796   4.809  69.189  1.00  0.00    -0.048 OA 
BRANCH   4   6
HETATM    6  C   UNL     1      -8.012   6.875  68.793  1.00  0.00    -0.120 C  
BRANCH   6   7
HETATM    7  C   UNL     1      -7.744   7.342  67.367  1.00  0.00    -0.110 C  
BRANCH   7   8
HETATM    8  C   UNL     1      -8.718   8.429  66.931  1.00  0.00    -0.137 C  
BRANCH   8   9
HETATM    9  C   UNL     1      -9.438   9.007  68.148  1.00  0.00    -0.155 C  
BRANCH   9  10
HETATM   10  C   UNL     1      -9.468  10.528  68.103  1.00  0.00    -0.157 C  
BRANCH  10  11
HETATM   11  C   UNL     1     -10.361  11.028  66.968  1.00  0.00    -0.269 C  
BRANCH  11  12
HETATM   12  C   UNL     1     -11.473  11.914  67.521  1.00  0.00    -0.396 C  
BRANCH  12  13
HETATM   13  C   UNL     1     -11.088  13.396  67.511  1.00  0.00    -0.294 C  
HETATM   14  C   UNL     1     -10.297  13.787  66.245  1.00  0.00    -0.294 C  
HETATM   15  C   UNL     1      -9.780  15.220  66.359  1.00  0.00    -0.308 A  
HETATM   16  C   UNL     1     -11.115  13.547  64.964  1.00  0.00    -0.338 C  
HETATM   17  C   UNL     1     -10.595  16.288  65.927  1.00  0.00    -0.307 A  
HETATM   18  C   UNL     1     -10.151  17.612  65.967  1.00  0.00    -0.263 A  
HETATM   19  C   UNL     1      -8.887  17.906  66.460  1.00  0.00    -0.281 A  
HETATM   20  C   UNL     1      -8.077  16.879  66.932  1.00  0.00    -0.251 A  
HETATM   21  C   UNL     1      -8.515  15.547  66.891  1.00  0.00    -0.254 A  
HETATM   22  I   UNL     1      -7.173  14.126  67.681  1.00  0.00    -0.062 I  
ENDBRANCH  12  13
ENDBRANCH  11  12
ENDBRANCH  10  11
ENDBRANCH   9  10
ENDBRANCH   8   9
ENDBRANCH   7   8
ENDBRANCH   6   7
ENDBRANCH   4   6
ENDBRANCH   3   4
ENDBRANCH   2   3
TORSDOF 10
ENDMDL
MODEL      373
REMARK 921   NORMALIZED FREE ENERGY PREDICTED BY IDOCK:   -2.43 KCAL/MOL
REMARK 922        TOTAL FREE ENERGY PREDICTED BY IDOCK:   -5.25 KCAL/MOL
REMARK 923 INTER-LIGAND FREE ENERGY PREDICTED BY IDOCK:   -4.26 KCAL/MOL
REMARK 924 INTRA-LIGAND FREE ENERGY PREDICTED BY IDOCK:   -0.99 KCAL/MOL
REMARK 927      BINDING AFFINITY PREDICTED BY RF-SCORE:    0.00 PKD
ROOT
HETATM    1  C   UNL     1      -6.785   5.358  69.608  1.00  0.00    -0.055 C  
HETATM    2  C   UNL     1      -7.493   6.313  68.665  1.00  0.00    -0.088 C  
ENDROOT
BRANCH   2   3
HETATM    3  O   UNL     1      -7.374   7.634  69.209  1.00  0.00    -0.083 OA 
BRANCH   3   4
HETATM    4  C   UNL     1      -6.117   8.159  69.150  1.00  0.00    -0.039 C  
HETATM    5  O   UNL     1      -5.211   7.911  69.932  1.00  0.00    -0.023 OA 
BRANCH   4   6
HETATM    6  C   UNL     1      -5.997   9.015  67.916  1.00  0.00    -0.050 C  
BRANCH   6   7
HETATM    7  C   UNL     1      -5.640  10.449  68.293  1.00  0.00    -0.037 C  
BRANCH   7   8
HETATM    8  C   UNL     1      -6.703  11.087  69.179  1.00  0.00    -0.084 C  
BRANCH   8   9
HETATM    9  C   UNL     1      -6.570  12.608  69.142  1.00  0.00    -0.099 C  
BRANCH   9  10
HETATM   10  C   UNL     1      -6.484  13.122  67.711  1.00  0.00    -0.153 C  
BRANCH  10  11
HETATM   11  C   UNL     1      -6.727  14.629  67.651  1.00  0.00    -0.196 C  
BRANCH  11  12
HETATM   12  C   UNL     1      -8.208  14.934  67.849  1.00  0.00    -0.148 C  
BRANCH  12  13
HETATM   13  C   UNL     1      -9.044  14.553  66.625  1.00  0.00    -0.277 C  
HETATM   14  C   UNL     1     -10.149  13.531  66.965  1.00  0.00    -0.244 C  
HETATM   15  C   UNL     1     -10.839  13.044  65.691  1.00  0.00    -0.293 A  
HETATM   16  C   UNL     1     -11.139  14.085  68.005  1.00  0.00    -0.282 C  
HETATM   17  C   UNL     1     -11.945  13.759  65.185  1.00  0.00    -0.393 A  
HETATM   18  C   UNL     1     -12.638  13.330  64.051  1.00  0.00    -0.219 A  
HETATM   19  C   UNL     1     -12.230  12.186  63.378  1.00  0.00    -0.635 A  
HETATM   20  C   UNL     1     -11.117  11.483  63.830  1.00  0.00    -0.471 A  
HETATM   21  C   UNL     1     -10.419  11.907  64.971  1.00  0.00    -0.289 A  
HETATM   22  I   UNL     1      -8.738  10.744  65.488  1.00  0.00    -0.102 I  
ENDBRANCH  12  13
ENDBRANCH  11  12
ENDBRANCH  10  11
ENDBRANCH   9  10
ENDBRANCH   8   9
ENDBRANCH   7   8
ENDBRANCH   6   7
ENDBRANCH   4   6
ENDBRANCH   3   4
ENDBRANCH   2   3
TORSDOF 10
ENDMDL
MODEL      374
REMARK 921   NORMALIZED FREE ENERGY PREDICTED BY IDOCK:   -2.42 KCAL/MOL
REMARK 922        TOTAL FREE ENERGY PREDICTED BY IDOCK:   -5.23 KCAL/MOL
REMARK 923 INTER-LIGAND FREE ENERGY PREDICTED BY IDOCK:   -4.27 KCAL/MOL
REMARK 924 INTRA-LIGAND FREE ENERGY PREDICTED BY IDOCK:   -0.97 KCAL/MOL
REMARK 927      BINDING AFFINITY PREDICTED BY RF-SCORE:    0.00 PKD
ROOT
HETATM    1  C   UNL     1      -6.904   3.738  62.976  1.00  0.00    -0.035 C  
HETATM    2  C   UNL     1      -8.131   3.839  63.863  1.00  0.00    -0.089 C  
ENDROOT
BRANCH   2   3
HETATM    3  O   UNL     1      -7.726   4.428  65.105  1.00  0.00    -0.083 OA 
BRANCH   3   4
HETATM    4  C   UNL     1      -7.883   3.620  66.192  1.00  0.00    -0.089 C  
HETATM    5  O   UNL     1      -8.659   2.678  66.264  1.00  0.00    -0.100 OA 
BRANCH   4   6
HETATM    6  C   UNL     1      -6.884   4.012  67.249  1.00  0.00    -0.051 C  
BRANCH   6   7
HETATM    7  C   UNL     1      -7.433   3.715  68.640  1.00  0.00    -0.054 C  
BRANCH   7   8
HETATM    8  C   UNL     1      -7.878   4.982  69.360  1.00  0.00    -0.075 C  
BRANCH   8   9
HETATM    9  C   UNL     1      -9.394   4.971  69.550  1.00  0.00    -0.184 C  
BRANCH   9  10
HETATM   10  C   UNL     1     -10.106   5.597  68.358  1.00  0.00    -0.224 C  
BRANCH  10  11
HETATM   11  C   UNL     1     -11.227   6.531  68.814  1.00  0.00    -0.319 C  
BRANCH  11  12
HETATM   12  C   UNL     1     -10.725   7.970  68.870  1.00  0.00    -0.091 C  
BRANCH  12  13
HETATM   13  C   UNL     1     -10.953   8.711  67.551  1.00  0.00     0.090 C  
HETATM   14  C   UNL     1      -9.842   9.743  67.259  1.00  0.00    -0.228 C  
HETATM   15  C   UNL     1     -10.199  10.581  66.032  1.00  0.00    -0.310 A  
HETATM   16  C   UNL     1      -8.460   9.076  67.145  1.00  0.00    -0.113 C  
HETATM   17  C   UNL     1      -9.826  10.128  64.750  1.00  0.00    -0.382 A  
HETATM   18  C   UNL     1     -10.088  10.878  63.602  1.00  0.00    -0.414 A  
HETATM   19  C   UNL     1     -10.749  12.095  63.702  1.00  0.00    -0.518 A  
HETATM   20  C   UNL     1     -11.167  12.548  64.950  1.00  0.00    -0.344 A  
HETATM   21  C   UNL     1     -10.903  11.801  66.107  1.00  0.00    -0.291 A  
HETATM   22  I   UNL     1     -11.640  12.622  67.904  1.00  0.00    -0.363 I  
ENDBRANCH  12  13
ENDBRANCH  11  12
ENDBRANCH  10  11
ENDBRANCH   9  10
ENDBRANCH   8   9
ENDBRANCH   7   8
ENDBRANCH   6   7
ENDBRANCH   4   6
ENDBRANCH   3   4
ENDBRANCH   2   3
TORSDOF 10
ENDMDL
MODEL      375
REMARK 921   NORMALIZED FREE ENERGY PREDICTED BY IDOCK:   -2.41 KCAL/MOL
REMARK 922        TOTAL FREE ENERGY PREDICTED BY IDOCK:   -5.22 KCAL/MOL
REMARK 923 INTER-LIGAND FREE ENERGY PREDICTED BY IDOCK:   -4.24 KCAL/MOL
REMARK 924 INTRA-LIGAND FREE ENERGY PREDICTED BY IDOCK:   -0.98 KCAL/MOL
REMARK 927      BINDING AFFINITY PREDICTED BY RF-SCORE:    0.00 PKD
ROOT
HETATM    1  C   UNL     1      -6.793  11.366  68.659  1.00  0.00    -0.078 C  
HETATM    2  C   UNL     1      -7.757  10.254  69.029  1.00  0.00    -0.110 C  
ENDROOT
BRANCH   2   3
HETATM    3  O   UNL     1      -7.785   9.319  67.943  1.00  0.00    -0.088 OA 
BRANCH   3   4
HETATM    4  C   UNL     1      -8.925   8.576  67.866  1.00  0.00    -0.137 C  
HETATM    5  O   UNL     1      -9.590   8.203  68.821  1.00  0.00    -0.148 OA 
BRANCH   4   6
HETATM    6  C   UNL     1      -9.285   8.371  66.417  1.00  0.00    -0.253 C  
BRANCH   6   7
HETATM    7  C   UNL     1      -8.066   8.587  65.528  1.00  0.00    -0.126 C  
BRANCH   7   8
HETATM    8  C   UNL     1      -8.232   9.796  64.615  1.00  0.00    -0.150 C  
BRANCH   8   9
HETATM    9  C   UNL     1      -9.503   9.651  63.780  1.00  0.00     0.080 C  
BRANCH   9  10
HETATM   10  C   UNL     1     -10.085  11.010  63.416  1.00  0.00    -0.424 C  
BRANCH  10  11
HETATM   11  C   UNL     1      -9.339  12.138  64.129  1.00  0.00     0.308 C  
BRANCH  11  12
HETATM   12  C   UNL     1     -10.302  13.266  64.484  1.00  0.00    -0.394 C  
BRANCH  12  13
HETATM   13  C   UNL     1     -10.123  13.742  65.928  1.00  0.00    -0.325 C  
HETATM   14  C   UNL     1     -11.349  14.528  66.442  1.00  0.00    -0.349 C  
HETATM   15  C   UNL     1     -11.059  15.135  67.813  1.00  0.00    -0.313 A  
HETATM   16  C   UNL     1     -12.625  13.669  66.427  1.00  0.00    -0.289 C  
HETATM   17  C   UNL     1     -11.319  14.379  68.976  1.00  0.00    -0.297 A  
HETATM   18  C   UNL     1     -11.114  14.904  70.253  1.00  0.00    -0.228 A  
HETATM   19  C   UNL     1     -10.624  16.195  70.404  1.00  0.00    -0.058 A  
HETATM   20  C   UNL     1     -10.319  16.950  69.276  1.00  0.00    -0.298 A  
HETATM   21  C   UNL     1     -10.526  16.429  67.990  1.00  0.00    -0.303 A  
HETATM   22  I   UNL     1      -9.975  17.698  66.398  1.00  0.00    -0.261 I  
ENDBRANCH  12  13
ENDBRANCH  11  12
ENDBRANCH  10  11
ENDBRANCH   9  10
ENDBRANCH   8   9
ENDBRANCH   7   8
ENDBRANCH   6   7
ENDBRANCH   4   6
ENDBRANCH   3   4
ENDBRANCH   2   3
TORSDOF 10
ENDMDL
MODEL      376
REMARK 921   NORMALIZED FREE ENERGY PREDICTED BY IDOCK:   -2.40 KCAL/MOL
REMARK 922        TOTAL FREE ENERGY PREDICTED BY IDOCK:   -5.21 KCAL/MOL
REMARK 923 INTER-LIGAND FREE ENERGY PREDICTED BY IDOCK:   -4.71 KCAL/MOL
REMARK 924 INTRA-LIGAND FREE ENERGY PREDICTED BY IDOCK:   -0.50 KCAL/MOL
REMARK 927      BINDING AFFINITY PREDICTED BY RF-SCORE:    0.00 PKD
ROOT
HETATM    1  C   UNL     1     -12.822  16.062  73.870  1.00  0.00    -0.652 C  
HETATM    2  C   UNL     1     -12.359  14.704  73.375  1.00  0.00    -0.265 C  
ENDROOT
BRANCH   2   3
HETATM    3  O   UNL     1     -11.352  14.921  72.378  1.00  0.00    -0.235 OA 
BRANCH   3   4
HETATM    4  C   UNL     1     -11.827  15.372  71.183  1.00  0.00    -0.371 C  
HETATM    5  O   UNL     1     -11.880  16.544  70.841  1.00  0.00    -0.131 OA 
BRANCH   4   6
HETATM    6  C   UNL     1     -12.186  14.192  70.317  1.00  0.00    -0.416 C  
BRANCH   6   7
HETATM    7  C   UNL     1     -11.244  14.100  69.122  1.00  0.00    -0.307 C  
BRANCH   7   8
HETATM    8  C   UNL     1     -10.647  12.706  68.972  1.00  0.00    -0.079 C  
BRANCH   8   9
HETATM    9  C   UNL     1     -11.543  11.677  69.659  1.00  0.00    -0.401 C  
BRANCH   9  10
HETATM   10  C   UNL     1     -11.820  10.488  68.748  1.00  0.00    -0.093 C  
BRANCH  10  11
HETATM   11  C   UNL     1     -10.770   9.394  68.936  1.00  0.00    -0.203 C  
BRANCH  11  12
HETATM   12  C   UNL     1     -10.530   8.659  67.621  1.00  0.00    -0.311 C  
BRANCH  12  13
HETATM   13  C   UNL     1      -9.435   7.598  67.746  1.00  0.00    -0.160 C  
HETATM   14  C   UNL     1     -10.012   6.171  67.860  1.00  0.00    -0.149 C  
HETATM   15  C   UNL     1      -8.901   5.166  68.161  1.00  0.00    -0.107 A  
HETATM   16  C   UNL     1     -10.841   5.790  66.620  1.00  0.00    -0.290 C  
HETATM   17  C   UNL     1      -8.195   4.571  67.094  1.00  0.00    -0.101 A  
HETATM   18  C   UNL     1      -7.203   3.614  67.315  1.00  0.00    -0.063 A  
HETATM   19  C   UNL     1      -6.874   3.240  68.611  1.00  0.00    -0.045 A  
HETATM   20  C   UNL     1      -7.523   3.840  69.685  1.00  0.00    -0.052 A  
HETATM   21  C   UNL     1      -8.524   4.800  69.470  1.00  0.00    -0.082 A  
HETATM   22  I   UNL     1      -9.374   5.630  71.212  1.00  0.00    -0.196 I  
ENDBRANCH  12  13
ENDBRANCH  11  12
ENDBRANCH  10  11
ENDBRANCH   9  10
ENDBRANCH   8   9
ENDBRANCH   7   8
ENDBRANCH   6   7
ENDBRANCH   4   6
ENDBRANCH   3   4
ENDBRANCH   2   3
TORSDOF 10
ENDMDL
MODEL      377
REMARK 921   NORMALIZED FREE ENERGY PREDICTED BY IDOCK:   -2.40 KCAL/MOL
REMARK 922        TOTAL FREE ENERGY PREDICTED BY IDOCK:   -5.20 KCAL/MOL
REMARK 923 INTER-LIGAND FREE ENERGY PREDICTED BY IDOCK:   -4.36 KCAL/MOL
REMARK 924 INTRA-LIGAND FREE ENERGY PREDICTED BY IDOCK:   -0.84 KCAL/MOL
REMARK 927      BINDING AFFINITY PREDICTED BY RF-SCORE:    0.00 PKD
ROOT
HETATM    1  C   UNL     1      -8.222   5.217  64.301  1.00  0.00    -0.132 C  
HETATM    2  C   UNL     1      -9.046   4.991  65.556  1.00  0.00    -0.158 C  
ENDROOT
BRANCH   2   3
HETATM    3  O   UNL     1      -8.231   5.336  66.682  1.00  0.00    -0.108 OA 
BRANCH   3   4
HETATM    4  C   UNL     1      -7.851   4.277  67.451  1.00  0.00    -0.092 C  
HETATM    5  O   UNL     1      -8.166   3.112  67.253  1.00  0.00    -0.081 OA 
BRANCH   4   6
HETATM    6  C   UNL     1      -6.906   4.756  68.523  1.00  0.00    -0.051 C  
BRANCH   6   7
HETATM    7  C   UNL     1      -7.522   4.561  69.904  1.00  0.00    -0.050 C  
BRANCH   7   8
HETATM    8  C   UNL     1      -7.800   5.889  70.597  1.00  0.00    -0.105 C  
BRANCH   8   9
HETATM    9  C   UNL     1      -9.301   6.058  70.823  1.00  0.00    -0.169 C  
BRANCH   9  10
HETATM   10  C   UNL     1      -9.942   6.864  69.701  1.00  0.00    -0.179 C  
BRANCH  10  11
HETATM   11  C   UNL     1     -11.017   7.805  70.245  1.00  0.00    -0.252 C  
BRANCH  11  12
HETATM   12  C   UNL     1     -10.374   8.959  71.008  1.00  0.00    -0.321 C  
BRANCH  12  13
HETATM   13  C   UNL     1     -10.345  10.249  70.184  1.00  0.00    -0.210 C  
HETATM   14  C   UNL     1     -11.657  10.474  69.402  1.00  0.00    -0.318 C  
HETATM   15  C   UNL     1     -11.520  11.669  68.460  1.00  0.00    -0.358 A  
HETATM   16  C   UNL     1     -12.869  10.591  70.343  1.00  0.00    -0.274 C  
HETATM   17  C   UNL     1     -11.824  12.963  68.933  1.00  0.00    -0.352 A  
HETATM   18  C   UNL     1     -11.760  14.082  68.100  1.00  0.00    -0.387 A  
HETATM   19  C   UNL     1     -11.369  13.940  66.775  1.00  0.00    -0.347 A  
HETATM   20  C   UNL     1     -11.022  12.682  66.292  1.00  0.00    -0.314 A  
HETATM   21  C   UNL     1     -11.089  11.554  67.123  1.00  0.00    -0.297 A  
HETATM   22  I   UNL     1     -10.493   9.737  66.234  1.00  0.00     0.192 I  
ENDBRANCH  12  13
ENDBRANCH  11  12
ENDBRANCH  10  11
ENDBRANCH   9  10
ENDBRANCH   8   9
ENDBRANCH   7   8
ENDBRANCH   6   7
ENDBRANCH   4   6
ENDBRANCH   3   4
ENDBRANCH   2   3
TORSDOF 10
ENDMDL
MODEL      378
REMARK 921   NORMALIZED FREE ENERGY PREDICTED BY IDOCK:   -2.35 KCAL/MOL
REMARK 922        TOTAL FREE ENERGY PREDICTED BY IDOCK:   -5.13 KCAL/MOL
REMARK 923 INTER-LIGAND FREE ENERGY PREDICTED BY IDOCK:   -4.25 KCAL/MOL
REMARK 924 INTRA-LIGAND FREE ENERGY PREDICTED BY IDOCK:   -0.88 KCAL/MOL
REMARK 927      BINDING AFFINITY PREDICTED BY RF-SCORE:    0.00 PKD
ROOT
HETATM    1  C   UNL     1     -10.995  20.070  65.982  1.00  0.00    -0.078 C  
HETATM    2  C   UNL     1     -10.605  18.640  66.309  1.00  0.00    -0.348 C  
ENDROOT
BRANCH   2   3
HETATM    3  O   UNL     1     -11.182  18.309  67.579  1.00  0.00    -0.101 OA 
BRANCH   3   4
HETATM    4  C   UNL     1     -10.306  17.769  68.473  1.00  0.00    -0.364 C  
HETATM    5  O   UNL     1      -9.784  18.371  69.401  1.00  0.00    -0.064 OA 
BRANCH   4   6
HETATM    6  C   UNL     1     -10.161  16.295  68.196  1.00  0.00    -0.258 C  
BRANCH   6   7
HETATM    7  C   UNL     1     -11.465  15.564  68.494  1.00  0.00    -0.369 C  
BRANCH   7   8
HETATM    8  C   UNL     1     -11.810  14.548  67.411  1.00  0.00    -0.416 C  
BRANCH   8   9
HETATM    9  C   UNL     1     -10.669  13.545  67.252  1.00  0.00    -0.272 C  
BRANCH   9  10
HETATM   10  C   UNL     1     -10.542  12.652  68.479  1.00  0.00    -0.262 C  
BRANCH  10  11
HETATM   11  C   UNL     1     -11.713  11.674  68.571  1.00  0.00    -0.378 C  
BRANCH  11  12
HETATM   12  C   UNL     1     -11.199  10.242  68.685  1.00  0.00    -0.263 C  
BRANCH  12  13
HETATM   13  C   UNL     1      -9.948  10.148  69.563  1.00  0.00    -0.257 C  
HETATM   14  C   UNL     1      -8.825   9.325  68.896  1.00  0.00    -0.135 C  
HETATM   15  C   UNL     1      -7.671   9.105  69.873  1.00  0.00    -0.087 A  
HETATM   16  C   UNL     1      -8.371   9.952  67.566  1.00  0.00    -0.114 C  
HETATM   17  C   UNL     1      -6.637  10.061  69.952  1.00  0.00    -0.089 A  
HETATM   18  C   UNL     1      -5.538   9.885  70.794  1.00  0.00    -0.074 A  
HETATM   19  C   UNL     1      -5.451   8.755  71.597  1.00  0.00    -0.044 A  
HETATM   20  C   UNL     1      -6.476   7.814  71.572  1.00  0.00    -0.038 A  
HETATM   21  C   UNL     1      -7.582   7.984  70.725  1.00  0.00    -0.077 A  
HETATM   22  I   UNL     1      -9.055   6.480  70.844  1.00  0.00    -0.160 I  
ENDBRANCH  12  13
ENDBRANCH  11  12
ENDBRANCH  10  11
ENDBRANCH   9  10
ENDBRANCH   8   9
ENDBRANCH   7   8
ENDBRANCH   6   7
ENDBRANCH   4   6
ENDBRANCH   3   4
ENDBRANCH   2   3
TORSDOF 10
ENDMDL
MODEL      379
REMARK 921   NORMALIZED FREE ENERGY PREDICTED BY IDOCK:   -2.35 KCAL/MOL
REMARK 922        TOTAL FREE ENERGY PREDICTED BY IDOCK:   -5.12 KCAL/MOL
REMARK 923 INTER-LIGAND FREE ENERGY PREDICTED BY IDOCK:   -3.68 KCAL/MOL
REMARK 924 INTRA-LIGAND FREE ENERGY PREDICTED BY IDOCK:   -1.45 KCAL/MOL
REMARK 927      BINDING AFFINITY PREDICTED BY RF-SCORE:    0.00 PKD
ROOT
HETATM    1  C   UNL     1      -9.690  11.896  65.647  1.00  0.00    -0.248 C  
HETATM    2  C   UNL     1      -9.298  12.860  66.751  1.00  0.00    -0.243 C  
ENDROOT
BRANCH   2   3
HETATM    3  O   UNL     1     -10.410  13.735  66.982  1.00  0.00    -0.257 OA 
BRANCH   3   4
HETATM    4  C   UNL     1     -10.961  13.632  68.225  1.00  0.00    -0.254 C  
HETATM    5  O   UNL     1     -10.795  14.428  69.138  1.00  0.00    -0.252 OA 
BRANCH   4   6
HETATM    6  C   UNL     1     -11.880  12.439  68.262  1.00  0.00    -0.364 C  
BRANCH   6   7
HETATM    7  C   UNL     1     -11.622  11.604  69.511  1.00  0.00    -0.397 C  
BRANCH   7   8
HETATM    8  C   UNL     1     -12.631  10.471  69.658  1.00  0.00     0.060 C  
BRANCH   8   9
HETATM    9  C   UNL     1     -12.410   9.743  70.983  1.00  0.00    -0.422 C  
BRANCH   9  10
HETATM   10  C   UNL     1     -10.968   9.877  71.455  1.00  0.00    -0.117 C  
BRANCH  10  11
HETATM   11  C   UNL     1     -10.216   8.554  71.308  1.00  0.00    -0.287 C  
BRANCH  11  12
HETATM   12  C   UNL     1      -8.717   8.810  71.182  1.00  0.00    -0.265 C  
BRANCH  12  13
HETATM   13  C   UNL     1      -8.359   9.492  69.860  1.00  0.00    -0.180 C  
HETATM   14  C   UNL     1      -6.937   9.129  69.379  1.00  0.00    -0.052 C  
HETATM   15  C   UNL     1      -6.554   9.966  68.160  1.00  0.00    -0.056 A  
HETATM   16  C   UNL     1      -6.785   7.617  69.138  1.00  0.00    -0.048 C  
HETATM   17  C   UNL     1      -6.883   9.501  66.869  1.00  0.00    -0.080 A  
HETATM   18  C   UNL     1      -6.516  10.205  65.720  1.00  0.00    -0.107 A  
HETATM   19  C   UNL     1      -5.826  11.405  65.832  1.00  0.00     0.207 A  
HETATM   20  C   UNL     1      -5.524  11.910  67.093  1.00  0.00    -0.128 A  
HETATM   21  C   UNL     1      -5.887  11.205  68.250  1.00  0.00    -0.045 A  
HETATM   22  I   UNL     1      -5.383  12.136  70.074  1.00  0.00    -0.142 I  
ENDBRANCH  12  13
ENDBRANCH  11  12
ENDBRANCH  10  11
ENDBRANCH   9  10
ENDBRANCH   8   9
ENDBRANCH   7   8
ENDBRANCH   6   7
ENDBRANCH   4   6
ENDBRANCH   3   4
ENDBRANCH   2   3
TORSDOF 10
ENDMDL
MODEL      380
REMARK 921   NORMALIZED FREE ENERGY PREDICTED BY IDOCK:   -2.35 KCAL/MOL
REMARK 922        TOTAL FREE ENERGY PREDICTED BY IDOCK:   -5.12 KCAL/MOL
REMARK 923 INTER-LIGAND FREE ENERGY PREDICTED BY IDOCK:   -4.14 KCAL/MOL
REMARK 924 INTRA-LIGAND FREE ENERGY PREDICTED BY IDOCK:   -0.98 KCAL/MOL
REMARK 927      BINDING AFFINITY PREDICTED BY RF-SCORE:    0.00 PKD
ROOT
HETATM    1  C   UNL     1      -6.017   8.448  64.062  1.00  0.00    -0.067 C  
HETATM    2  C   UNL     1      -6.560   9.447  65.067  1.00  0.00    -0.084 C  
ENDROOT
BRANCH   2   3
HETATM    3  O   UNL     1      -7.619  10.174  64.432  1.00  0.00    -0.144 OA 
BRANCH   3   4
HETATM    4  C   UNL     1      -8.860   9.639  64.611  1.00  0.00    -0.219 C  
HETATM    5  O   UNL     1      -9.188   8.912  65.538  1.00  0.00    -0.220 OA 
BRANCH   4   6
HETATM    6  C   UNL     1      -9.784  10.161  63.541  1.00  0.00    -0.145 C  
BRANCH   6   7
HETATM    7  C   UNL     1      -9.563  11.654  63.326  1.00  0.00    -0.334 C  
BRANCH   7   8
HETATM    8  C   UNL     1     -10.878  12.423  63.276  1.00  0.00    -0.300 C  
BRANCH   8   9
HETATM    9  C   UNL     1     -10.783  13.678  64.141  1.00  0.00    -0.141 C  
BRANCH   9  10
HETATM   10  C   UNL     1     -11.875  13.702  65.203  1.00  0.00    -0.364 C  
BRANCH  10  11
HETATM   11  C   UNL     1     -12.324  12.287  65.564  1.00  0.00    -0.101 C  
BRANCH  11  12
HETATM   12  C   UNL     1     -11.493  11.748  66.724  1.00  0.00    -0.352 C  
BRANCH  12  13
HETATM   13  C   UNL     1     -10.071  12.316  66.726  1.00  0.00    -0.224 C  
HETATM   14  C   UNL     1      -9.428  12.282  68.129  1.00  0.00    -0.213 C  
HETATM   15  C   UNL     1      -8.089  13.016  68.122  1.00  0.00    -0.155 A  
HETATM   16  C   UNL     1      -9.319  10.846  68.672  1.00  0.00    -0.188 C  
HETATM   17  C   UNL     1      -6.912  12.311  67.795  1.00  0.00    -0.115 A  
HETATM   18  C   UNL     1      -5.658  12.924  67.819  1.00  0.00    -0.130 A  
HETATM   19  C   UNL     1      -5.549  14.268  68.151  1.00  0.00    -0.124 A  
HETATM   20  C   UNL     1      -6.696  15.001  68.438  1.00  0.00    -0.111 A  
HETATM   21  C   UNL     1      -7.958  14.389  68.420  1.00  0.00    -0.141 A  
HETATM   22  I   UNL     1      -9.588  15.658  68.844  1.00  0.00    -0.271 I  
ENDBRANCH  12  13
ENDBRANCH  11  12
ENDBRANCH  10  11
ENDBRANCH   9  10
ENDBRANCH   8   9
ENDBRANCH   7   8
ENDBRANCH   6   7
ENDBRANCH   4   6
ENDBRANCH   3   4
ENDBRANCH   2   3
TORSDOF 10
ENDMDL
MODEL      381
REMARK 921   NORMALIZED FREE ENERGY PREDICTED BY IDOCK:   -2.33 KCAL/MOL
REMARK 922        TOTAL FREE ENERGY PREDICTED BY IDOCK:   -5.09 KCAL/MOL
REMARK 923 INTER-LIGAND FREE ENERGY PREDICTED BY IDOCK:   -4.66 KCAL/MOL
REMARK 924 INTRA-LIGAND FREE ENERGY PREDICTED BY IDOCK:   -0.44 KCAL/MOL
REMARK 927      BINDING AFFINITY PREDICTED BY RF-SCORE:    0.00 PKD
ROOT
HETATM    1  C   UNL     1      -9.877   4.202  66.367  1.00  0.00    -0.214 C  
HETATM    2  C   UNL     1      -9.366   5.522  66.913  1.00  0.00    -0.127 C  
ENDROOT
BRANCH   2   3
HETATM    3  O   UNL     1     -10.433   6.474  66.826  1.00  0.00    -0.234 OA 
BRANCH   3   4
HETATM    4  C   UNL     1     -10.332   7.519  67.697  1.00  0.00    -0.229 C  
HETATM    5  O   UNL     1     -10.828   7.558  68.813  1.00  0.00    -0.140 OA 
BRANCH   4   6
HETATM    6  C   UNL     1      -9.433   8.573  67.102  1.00  0.00    -0.208 C  
BRANCH   6   7
HETATM    7  C   UNL     1     -10.256   9.750  66.592  1.00  0.00    -0.296 C  
BRANCH   7   8
HETATM    8  C   UNL     1      -9.978  10.047  65.123  1.00  0.00    -0.350 C  
BRANCH   8   9
HETATM    9  C   UNL     1     -10.916  11.144  64.624  1.00  0.00    -0.238 C  
BRANCH   9  10
HETATM   10  C   UNL     1     -10.177  12.463  64.441  1.00  0.00    -0.342 C  
BRANCH  10  11
HETATM   11  C   UNL     1     -10.770  13.555  65.331  1.00  0.00    -0.308 C  
BRANCH  11  12
HETATM   12  C   UNL     1     -10.163  14.910  64.982  1.00  0.00    -0.365 C  
BRANCH  12  13
HETATM   13  C   UNL     1      -9.950  15.782  66.221  1.00  0.00    -0.315 C  
HETATM   14  C   UNL     1      -9.740  17.269  65.862  1.00  0.00    -0.111 C  
HETATM   15  C   UNL     1      -9.355  18.071  67.104  1.00  0.00    -0.259 A  
HETATM   16  C   UNL     1     -10.959  17.856  65.127  1.00  0.00     0.644 C  
HETATM   17  C   UNL     1     -10.368  18.625  67.914  1.00  0.00    -0.442 A  
HETATM   18  C   UNL     1     -10.068  19.403  69.034  1.00  0.00    -0.417 A  
HETATM   19  C   UNL     1      -8.745  19.632  69.387  1.00  0.00     0.182 A  
HETATM   20  C   UNL     1      -7.724  19.064  68.631  1.00  0.00    -0.378 A  
HETATM   21  C   UNL     1      -8.019  18.284  67.503  1.00  0.00    -0.231 A  
HETATM   22  I   UNL     1      -6.351  17.473  66.500  1.00  0.00    -0.275 I  
ENDBRANCH  12  13
ENDBRANCH  11  12
ENDBRANCH  10  11
ENDBRANCH   9  10
ENDBRANCH   8   9
ENDBRANCH   7   8
ENDBRANCH   6   7
ENDBRANCH   4   6
ENDBRANCH   3   4
ENDBRANCH   2   3
TORSDOF 10
ENDMDL
MODEL      382
REMARK 921   NORMALIZED FREE ENERGY PREDICTED BY IDOCK:   -2.32 KCAL/MOL
REMARK 922        TOTAL FREE ENERGY PREDICTED BY IDOCK:   -5.08 KCAL/MOL
REMARK 923 INTER-LIGAND FREE ENERGY PREDICTED BY IDOCK:   -4.28 KCAL/MOL
REMARK 924 INTRA-LIGAND FREE ENERGY PREDICTED BY IDOCK:   -0.80 KCAL/MOL
REMARK 927      BINDING AFFINITY PREDICTED BY RF-SCORE:    0.00 PKD
ROOT
HETATM    1  C   UNL     1     -12.218  12.319  63.963  1.00  0.00    -0.569 C  
HETATM    2  C   UNL     1     -11.302  13.110  64.879  1.00  0.00    -0.309 C  
ENDROOT
BRANCH   2   3
HETATM    3  O   UNL     1     -10.878  14.280  64.168  1.00  0.00    -0.101 OA 
BRANCH   3   4
HETATM    4  C   UNL     1     -11.387  15.449  64.650  1.00  0.00    -0.355 C  
HETATM    5  O   UNL     1     -11.669  16.427  63.973  1.00  0.00    -1.044 OA 
BRANCH   4   6
HETATM    6  C   UNL     1     -11.635  15.309  66.129  1.00  0.00     0.008 C  
BRANCH   6   7
HETATM    7  C   UNL     1     -10.850  16.361  66.904  1.00  0.00    -0.118 C  
BRANCH   7   8
HETATM    8  C   UNL     1      -9.347  16.110  66.844  1.00  0.00    -0.245 C  
BRANCH   8   9
HETATM    9  C   UNL     1      -8.885  15.396  68.112  1.00  0.00    -0.170 C  
BRANCH   9  10
HETATM   10  C   UNL     1      -9.974  14.485  68.664  1.00  0.00    -0.237 C  
BRANCH  10  11
HETATM   11  C   UNL     1      -9.618  13.014  68.456  1.00  0.00    -0.113 C  
BRANCH  11  12
HETATM   12  C   UNL     1      -8.140  12.870  68.109  1.00  0.00    -0.158 C  
BRANCH  12  13
HETATM   13  C   UNL     1      -7.735  11.408  67.909  1.00  0.00    -0.114 C  
HETATM   14  C   UNL     1      -6.584  11.253  66.892  1.00  0.00    -0.130 C  
HETATM   15  C   UNL     1      -6.332   9.777  66.588  1.00  0.00    -0.066 A  
HETATM   16  C   UNL     1      -5.314  11.993  67.350  1.00  0.00    -0.112 C  
HETATM   17  C   UNL     1      -5.438   9.045  67.396  1.00  0.00    -0.041 A  
HETATM   18  C   UNL     1      -5.140   7.706  67.133  1.00  0.00    -0.026 A  
HETATM   19  C   UNL     1      -5.744   7.057  66.065  1.00  0.00    -0.031 A  
HETATM   20  C   UNL     1      -6.662   7.741  65.275  1.00  0.00    -0.047 A  
HETATM   21  C   UNL     1      -6.963   9.087  65.532  1.00  0.00    -0.080 A  
HETATM   22  I   UNL     1      -8.403   9.953  64.258  1.00  0.00    -0.221 I  
ENDBRANCH  12  13
ENDBRANCH  11  12
ENDBRANCH  10  11
ENDBRANCH   9  10
ENDBRANCH   8   9
ENDBRANCH   7   8
ENDBRANCH   6   7
ENDBRANCH   4   6
ENDBRANCH   3   4
ENDBRANCH   2   3
TORSDOF 10
ENDMDL
MODEL      383
REMARK 921   NORMALIZED FREE ENERGY PREDICTED BY IDOCK:   -2.32 KCAL/MOL
REMARK 922        TOTAL FREE ENERGY PREDICTED BY IDOCK:   -5.08 KCAL/MOL
REMARK 923 INTER-LIGAND FREE ENERGY PREDICTED BY IDOCK:   -4.12 KCAL/MOL
REMARK 924 INTRA-LIGAND FREE ENERGY PREDICTED BY IDOCK:   -0.95 KCAL/MOL
REMARK 927      BINDING AFFINITY PREDICTED BY RF-SCORE:    0.00 PKD
ROOT
HETATM    1  C   UNL     1      -9.245   3.338  69.815  1.00  0.00    -0.221 C  
HETATM    2  C   UNL     1      -9.681   3.552  68.377  1.00  0.00     0.020 C  
ENDROOT
BRANCH   2   3
HETATM    3  O   UNL     1      -9.789   4.964  68.158  1.00  0.00    -0.152 OA 
BRANCH   3   4
HETATM    4  C   UNL     1      -9.020   5.439  67.139  1.00  0.00    -0.112 C  
HETATM    5  O   UNL     1      -7.935   4.986  66.804  1.00  0.00    -0.102 OA 
BRANCH   4   6
HETATM    6  C   UNL     1      -9.761   6.545  66.433  1.00  0.00    -0.133 C  
BRANCH   6   7
HETATM    7  C   UNL     1      -9.161   7.901  66.788  1.00  0.00    -0.206 C  
BRANCH   7   8
HETATM    8  C   UNL     1      -8.499   8.564  65.585  1.00  0.00    -0.170 C  
BRANCH   8   9
HETATM    9  C   UNL     1      -8.154  10.015  65.913  1.00  0.00    -0.126 C  
BRANCH   9  10
HETATM   10  C   UNL     1      -6.968  10.101  66.865  1.00  0.00    -0.089 C  
BRANCH  10  11
HETATM   11  C   UNL     1      -7.274  11.026  68.043  1.00  0.00    -0.086 C  
BRANCH  11  12
HETATM   12  C   UNL     1      -6.948  10.330  69.360  1.00  0.00    -0.083 C  
BRANCH  12  13
HETATM   13  C   UNL     1      -8.156  10.279  70.299  1.00  0.00     0.296 C  
HETATM   14  C   UNL     1      -9.235   9.288  69.812  1.00  0.00    -0.191 C  
HETATM   15  C   UNL     1     -10.492   9.400  70.673  1.00  0.00    -0.354 A  
HETATM   16  C   UNL     1      -8.693   7.850  69.729  1.00  0.00    -0.137 C  
HETATM   17  C   UNL     1     -10.602   8.621  71.844  1.00  0.00    -0.411 A  
HETATM   18  C   UNL     1     -11.748   8.652  72.640  1.00  0.00    -0.206 A  
HETATM   19  C   UNL     1     -12.809   9.480  72.299  1.00  0.00    -0.426 A  
HETATM   20  C   UNL     1     -12.713  10.291  71.173  1.00  0.00    -0.502 A  
HETATM   21  C   UNL     1     -11.565  10.261  70.366  1.00  0.00    -0.328 A  
HETATM   22  I   UNL     1     -11.578  11.582  68.723  1.00  0.00    -0.404 I  
ENDBRANCH  12  13
ENDBRANCH  11  12
ENDBRANCH  10  11
ENDBRANCH   9  10
ENDBRANCH   8   9
ENDBRANCH   7   8
ENDBRANCH   6   7
ENDBRANCH   4   6
ENDBRANCH   3   4
ENDBRANCH   2   3
TORSDOF 10
ENDMDL
MODEL      384
REMARK 921   NORMALIZED FREE ENERGY PREDICTED BY IDOCK:   -2.30 KCAL/MOL
REMARK 922        TOTAL FREE ENERGY PREDICTED BY IDOCK:   -5.04 KCAL/MOL
REMARK 923 INTER-LIGAND FREE ENERGY PREDICTED BY IDOCK:   -4.39 KCAL/MOL
REMARK 924 INTRA-LIGAND FREE ENERGY PREDICTED BY IDOCK:   -0.65 KCAL/MOL
REMARK 927      BINDING AFFINITY PREDICTED BY RF-SCORE:    0.00 PKD
ROOT
HETATM    1  C   UNL     1     -10.255   5.201  70.127  1.00  0.00    -0.348 C  
HETATM    2  C   UNL     1      -9.780   5.132  68.687  1.00  0.00    -0.151 C  
ENDROOT
BRANCH   2   3
HETATM    3  O   UNL     1      -8.782   4.108  68.604  1.00  0.00    -0.091 OA 
BRANCH   3   4
HETATM    4  C   UNL     1      -7.527   4.511  68.953  1.00  0.00    -0.056 C  
HETATM    5  O   UNL     1      -6.662   3.791  69.430  1.00  0.00    -0.036 OA 
BRANCH   4   6
HETATM    6  C   UNL     1      -7.347   5.957  68.570  1.00  0.00    -0.085 C  
BRANCH   6   7
HETATM    7  C   UNL     1      -6.895   6.073  67.119  1.00  0.00    -0.063 C  
BRANCH   7   8
HETATM    8  C   UNL     1      -7.705   7.111  66.350  1.00  0.00    -0.100 C  
BRANCH   8   9
HETATM    9  C   UNL     1      -8.124   8.244  67.285  1.00  0.00    -0.109 C  
BRANCH   9  10
HETATM   10  C   UNL     1      -8.099   9.589  66.570  1.00  0.00    -0.112 C  
BRANCH  10  11
HETATM   11  C   UNL     1      -9.367   9.795  65.741  1.00  0.00    -0.278 C  
BRANCH  11  12
HETATM   12  C   UNL     1     -10.602   9.692  66.630  1.00  0.00    -0.173 C  
BRANCH  12  13
HETATM   13  C   UNL     1     -10.790  10.935  67.502  1.00  0.00    -0.324 C  
HETATM   14  C   UNL     1     -10.536  12.243  66.721  1.00  0.00    -0.242 C  
HETATM   15  C   UNL     1     -10.558  13.443  67.665  1.00  0.00    -0.249 A  
HETATM   16  C   UNL     1     -11.505  12.397  65.536  1.00  0.00    -0.404 C  
HETATM   17  C   UNL     1     -11.782  14.090  67.937  1.00  0.00    -0.397 A  
HETATM   18  C   UNL     1     -11.849  15.218  68.757  1.00  0.00    -0.332 A  
HETATM   19  C   UNL     1     -10.695  15.720  69.344  1.00  0.00    -0.266 A  
HETATM   20  C   UNL     1      -9.479  15.079  69.128  1.00  0.00    -0.195 A  
HETATM   21  C   UNL     1      -9.405  13.947  68.303  1.00  0.00    -0.209 A  
HETATM   22  I   UNL     1      -7.490  13.084  68.117  1.00  0.00    -0.175 I  
ENDBRANCH  12  13
ENDBRANCH  11  12
ENDBRANCH  10  11
ENDBRANCH   9  10
ENDBRANCH   8   9
ENDBRANCH   7   8
ENDBRANCH   6   7
ENDBRANCH   4   6
ENDBRANCH   3   4
ENDBRANCH   2   3
TORSDOF 10
ENDMDL
MODEL      385
REMARK 921   NORMALIZED FREE ENERGY PREDICTED BY IDOCK:   -2.30 KCAL/MOL
REMARK 922        TOTAL FREE ENERGY PREDICTED BY IDOCK:   -5.04 KCAL/MOL
REMARK 923 INTER-LIGAND FREE ENERGY PREDICTED BY IDOCK:   -4.15 KCAL/MOL
REMARK 924 INTRA-LIGAND FREE ENERGY PREDICTED BY IDOCK:   -0.89 KCAL/MOL
REMARK 927      BINDING AFFINITY PREDICTED BY RF-SCORE:    0.00 PKD
ROOT
HETATM    1  C   UNL     1      -5.707   7.126  73.482  1.00  0.00    -0.050 C  
HETATM    2  C   UNL     1      -6.012   6.997  72.001  1.00  0.00    -0.038 C  
ENDROOT
BRANCH   2   3
HETATM    3  O   UNL     1      -7.437   6.976  71.848  1.00  0.00    -0.085 OA 
BRANCH   3   4
HETATM    4  C   UNL     1      -8.046   8.178  72.059  1.00  0.00    -0.138 C  
HETATM    5  O   UNL     1      -8.653   8.492  73.072  1.00  0.00    -0.355 OA 
BRANCH   4   6
HETATM    6  C   UNL     1      -7.769   9.085  70.888  1.00  0.00    -0.149 C  
BRANCH   6   7
HETATM    7  C   UNL     1      -8.486   8.581  69.640  1.00  0.00    -0.130 C  
BRANCH   7   8
HETATM    8  C   UNL     1     -10.001   8.695  69.768  1.00  0.00    -0.190 C  
BRANCH   8   9
HETATM    9  C   UNL     1     -10.416  10.165  69.777  1.00  0.00    -0.301 C  
BRANCH   9  10
HETATM   10  C   UNL     1     -10.341  10.770  68.381  1.00  0.00    -0.199 C  
BRANCH  10  11
HETATM   11  C   UNL     1      -9.934  12.242  68.440  1.00  0.00    -0.210 C  
BRANCH  11  12
HETATM   12  C   UNL     1      -8.430  12.383  68.233  1.00  0.00    -0.170 C  
BRANCH  12  13
HETATM   13  C   UNL     1      -8.073  13.644  67.441  1.00  0.00    -0.184 C  
HETATM   14  C   UNL     1      -7.679  14.820  68.359  1.00  0.00    -0.122 C  
HETATM   15  C   UNL     1      -7.507  16.101  67.545  1.00  0.00    -0.179 A  
HETATM   16  C   UNL     1      -6.445  14.487  69.217  1.00  0.00    -0.123 C  
HETATM   17  C   UNL     1      -6.250  16.397  66.976  1.00  0.00    -0.155 A  
HETATM   18  C   UNL     1      -6.028  17.576  66.261  1.00  0.00    -0.249 A  
HETATM   19  C   UNL     1      -7.064  18.483  66.078  1.00  0.00    -0.306 A  
HETATM   20  C   UNL     1      -8.325  18.199  66.591  1.00  0.00    -0.283 A  
HETATM   21  C   UNL     1      -8.553  17.018  67.313  1.00  0.00    -0.195 A  
HETATM   22  I   UNL     1     -10.532  16.734  67.986  1.00  0.00    -0.340 I  
ENDBRANCH  12  13
ENDBRANCH  11  12
ENDBRANCH  10  11
ENDBRANCH   9  10
ENDBRANCH   8   9
ENDBRANCH   7   8
ENDBRANCH   6   7
ENDBRANCH   4   6
ENDBRANCH   3   4
ENDBRANCH   2   3
TORSDOF 10
ENDMDL
MODEL      386
REMARK 921   NORMALIZED FREE ENERGY PREDICTED BY IDOCK:   -2.30 KCAL/MOL
REMARK 922        TOTAL FREE ENERGY PREDICTED BY IDOCK:   -5.04 KCAL/MOL
REMARK 923 INTER-LIGAND FREE ENERGY PREDICTED BY IDOCK:   -4.19 KCAL/MOL
REMARK 924 INTRA-LIGAND FREE ENERGY PREDICTED BY IDOCK:   -0.84 KCAL/MOL
REMARK 927      BINDING AFFINITY PREDICTED BY RF-SCORE:    0.00 PKD
ROOT
HETATM    1  C   UNL     1     -10.719   6.038  70.052  1.00  0.00    -0.380 C  
HETATM    2  C   UNL     1     -10.839   6.628  68.658  1.00  0.00    -0.262 C  
ENDROOT
BRANCH   2   3
HETATM    3  O   UNL     1      -9.973   5.885  67.792  1.00  0.00    -0.118 OA 
BRANCH   3   4
HETATM    4  C   UNL     1      -8.831   6.540  67.437  1.00  0.00    -0.115 C  
HETATM    5  O   UNL     1      -7.712   6.048  67.423  1.00  0.00    -0.095 OA 
BRANCH   4   6
HETATM    6  C   UNL     1      -9.181   7.931  66.976  1.00  0.00    -0.181 C  
BRANCH   6   7
HETATM    7  C   UNL     1      -8.238   8.378  65.865  1.00  0.00    -0.123 C  
BRANCH   7   8
HETATM    8  C   UNL     1      -8.943   9.260  64.840  1.00  0.00    -0.229 C  
BRANCH   8   9
HETATM    9  C   UNL     1     -10.217   9.848  65.443  1.00  0.00    -0.149 C  
BRANCH   9  10
HETATM   10  C   UNL     1     -10.087  11.350  65.655  1.00  0.00    -0.293 C  
BRANCH  10  11
HETATM   11  C   UNL     1      -9.602  11.668  67.069  1.00  0.00    -0.196 C  
BRANCH  11  12
HETATM   12  C   UNL     1      -8.229  12.330  67.020  1.00  0.00    -0.155 C  
BRANCH  12  13
HETATM   13  C   UNL     1      -8.327  13.851  66.884  1.00  0.00    -0.029 C  
HETATM   14  C   UNL     1      -9.566  14.425  67.604  1.00  0.00    -0.214 C  
HETATM   15  C   UNL     1      -9.724  15.912  67.294  1.00  0.00    -0.224 A  
HETATM   16  C   UNL     1      -9.537  14.129  69.114  1.00  0.00     0.132 C  
HETATM   17  C   UNL     1      -9.071  16.863  68.107  1.00  0.00    -0.231 A  
HETATM   18  C   UNL     1      -9.220  18.235  67.894  1.00  0.00    -0.284 A  
HETATM   19  C   UNL     1     -10.011  18.695  66.849  1.00  0.00    -0.373 A  
HETATM   20  C   UNL     1     -10.634  17.780  66.005  1.00  0.00    -0.229 A  
HETATM   21  C   UNL     1     -10.491  16.401  66.216  1.00  0.00    -0.293 A  
HETATM   22  I   UNL     1     -11.475  15.164  64.820  1.00  0.00    -0.153 I  
ENDBRANCH  12  13
ENDBRANCH  11  12
ENDBRANCH  10  11
ENDBRANCH   9  10
ENDBRANCH   8   9
ENDBRANCH   7   8
ENDBRANCH   6   7
ENDBRANCH   4   6
ENDBRANCH   3   4
ENDBRANCH   2   3
TORSDOF 10
ENDMDL
MODEL      387
REMARK 921   NORMALIZED FREE ENERGY PREDICTED BY IDOCK:   -2.29 KCAL/MOL
REMARK 922        TOTAL FREE ENERGY PREDICTED BY IDOCK:   -5.03 KCAL/MOL
REMARK 923 INTER-LIGAND FREE ENERGY PREDICTED BY IDOCK:   -4.08 KCAL/MOL
REMARK 924 INTRA-LIGAND FREE ENERGY PREDICTED BY IDOCK:   -0.95 KCAL/MOL
REMARK 927      BINDING AFFINITY PREDICTED BY RF-SCORE:    0.00 PKD
ROOT
HETATM    1  C   UNL     1      -9.567   7.272  72.391  1.00  0.00    -0.180 C  
HETATM    2  C   UNL     1     -10.790   6.642  71.750  1.00  0.00    -0.233 C  
ENDROOT
BRANCH   2   3
HETATM    3  O   UNL     1     -10.335   5.648  70.823  1.00  0.00    -0.215 OA 
BRANCH   3   4
HETATM    4  C   UNL     1     -10.688   5.879  69.527  1.00  0.00    -0.343 C  
HETATM    5  O   UNL     1     -11.406   6.791  69.144  1.00  0.00    -0.211 OA 
BRANCH   4   6
HETATM    6  C   UNL     1      -9.978   4.893  68.637  1.00  0.00    -0.195 C  
BRANCH   6   7
HETATM    7  C   UNL     1      -9.054   5.619  67.666  1.00  0.00    -0.106 C  
BRANCH   7   8
HETATM    8  C   UNL     1      -7.780   6.106  68.347  1.00  0.00    -0.103 C  
BRANCH   8   9
HETATM    9  C   UNL     1      -7.838   7.619  68.542  1.00  0.00    -0.121 C  
BRANCH   9  10
HETATM   10  C   UNL     1      -6.688   8.314  67.824  1.00  0.00    -0.066 C  
BRANCH  10  11
HETATM   11  C   UNL     1      -6.495   7.749  66.418  1.00  0.00    -0.047 C  
BRANCH  11  12
HETATM   12  C   UNL     1      -7.246   8.599  65.398  1.00  0.00    -0.083 C  
BRANCH  12  13
HETATM   13  C   UNL     1      -8.380   9.401  66.041  1.00  0.00    -0.123 C  
HETATM   14  C   UNL     1      -8.466  10.840  65.488  1.00  0.00    -0.153 C  
HETATM   15  C   UNL     1      -9.487  11.657  66.278  1.00  0.00    -0.233 A  
HETATM   16  C   UNL     1      -8.733  10.854  63.972  1.00  0.00     0.001 C  
HETATM   17  C   UNL     1     -10.840  11.647  65.881  1.00  0.00    -0.339 A  
HETATM   18  C   UNL     1     -11.804  12.412  66.541  1.00  0.00    -0.407 A  
HETATM   19  C   UNL     1     -11.444  13.193  67.631  1.00  0.00    -0.366 A  
HETATM   20  C   UNL     1     -10.124  13.192  68.072  1.00  0.00    -0.232 A  
HETATM   21  C   UNL     1      -9.151  12.428  67.410  1.00  0.00    -0.183 A  
HETATM   22  I   UNL     1      -7.213  12.517  68.237  1.00  0.00    -0.144 I  
ENDBRANCH  12  13
ENDBRANCH  11  12
ENDBRANCH  10  11
ENDBRANCH   9  10
ENDBRANCH   8   9
ENDBRANCH   7   8
ENDBRANCH   6   7
ENDBRANCH   4   6
ENDBRANCH   3   4
ENDBRANCH   2   3
TORSDOF 10
ENDMDL
MODEL      388
REMARK 921   NORMALIZED FREE ENERGY PREDICTED BY IDOCK:   -2.29 KCAL/MOL
REMARK 922        TOTAL FREE ENERGY PREDICTED BY IDOCK:   -5.03 KCAL/MOL
REMARK 923 INTER-LIGAND FREE ENERGY PREDICTED BY IDOCK:   -4.36 KCAL/MOL
REMARK 924 INTRA-LIGAND FREE ENERGY PREDICTED BY IDOCK:   -0.67 KCAL/MOL
REMARK 927      BINDING AFFINITY PREDICTED BY RF-SCORE:    0.00 PKD
ROOT
HETATM    1  C   UNL     1     -10.822   4.633  73.615  1.00  0.00    -0.375 C  
HETATM    2  C   UNL     1     -10.882   5.291  72.249  1.00  0.00    -0.207 C  
ENDROOT
BRANCH   2   3
HETATM    3  O   UNL     1     -11.896   6.303  72.295  1.00  0.00    -0.311 OA 
BRANCH   3   4
HETATM    4  C   UNL     1     -11.452   7.530  72.692  1.00  0.00    -0.319 C  
HETATM    5  O   UNL     1     -10.309   7.788  73.039  1.00  0.00    -0.295 OA 
BRANCH   4   6
HETATM    6  C   UNL     1     -12.568   8.532  72.542  1.00  0.00    -0.346 C  
BRANCH   6   7
HETATM    7  C   UNL     1     -12.617   9.067  71.116  1.00  0.00    -0.263 C  
BRANCH   7   8
HETATM    8  C   UNL     1     -12.322  10.562  71.058  1.00  0.00    -0.503 C  
BRANCH   8   9
HETATM    9  C   UNL     1     -12.158  11.006  69.606  1.00  0.00    -0.411 C  
BRANCH   9  10
HETATM   10  C   UNL     1     -10.722  10.826  69.131  1.00  0.00    -0.265 C  
BRANCH  10  11
HETATM   11  C   UNL     1     -10.543  11.352  67.707  1.00  0.00    -0.231 C  
BRANCH  11  12
HETATM   12  C   UNL     1      -9.062  11.405  67.346  1.00  0.00    -0.160 C  
BRANCH  12  13
HETATM   13  C   UNL     1      -8.524  10.038  66.917  1.00  0.00    -0.125 C  
HETATM   14  C   UNL     1      -7.146   9.728  67.540  1.00  0.00    -0.088 C  
HETATM   15  C   UNL     1      -6.567   8.444  66.949  1.00  0.00    -0.058 A  
HETATM   16  C   UNL     1      -7.207   9.704  69.078  1.00  0.00    -0.071 C  
HETATM   17  C   UNL     1      -6.882   7.204  67.544  1.00  0.00    -0.070 A  
HETATM   18  C   UNL     1      -6.343   6.006  67.070  1.00  0.00    -0.042 A  
HETATM   19  C   UNL     1      -5.490   6.013  65.975  1.00  0.00    -0.013 A  
HETATM   20  C   UNL     1      -5.194   7.216  65.341  1.00  0.00    -0.028 A  
HETATM   21  C   UNL     1      -5.730   8.423  65.815  1.00  0.00    -0.043 A  
HETATM   22  I   UNL     1      -5.205  10.142  64.712  1.00  0.00    -0.137 I  
ENDBRANCH  12  13
ENDBRANCH  11  12
ENDBRANCH  10  11
ENDBRANCH   9  10
ENDBRANCH   8   9
ENDBRANCH   7   8
ENDBRANCH   6   7
ENDBRANCH   4   6
ENDBRANCH   3   4
ENDBRANCH   2   3
TORSDOF 10
ENDMDL
MODEL      389
REMARK 921   NORMALIZED FREE ENERGY PREDICTED BY IDOCK:   -2.29 KCAL/MOL
REMARK 922        TOTAL FREE ENERGY PREDICTED BY IDOCK:   -5.02 KCAL/MOL
REMARK 923 INTER-LIGAND FREE ENERGY PREDICTED BY IDOCK:   -5.06 KCAL/MOL
REMARK 924 INTRA-LIGAND FREE ENERGY PREDICTED BY IDOCK:    0.04 KCAL/MOL
REMARK 927      BINDING AFFINITY PREDICTED BY RF-SCORE:    0.00 PKD
ROOT
HETATM    1  C   UNL     1     -12.905  15.482  70.718  1.00  0.00    -0.513 C  
HETATM    2  C   UNL     1     -12.365  14.145  71.191  1.00  0.00    -0.372 C  
ENDROOT
BRANCH   2   3
HETATM    3  O   UNL     1     -11.751  13.499  70.068  1.00  0.00    -0.286 OA 
BRANCH   3   4
HETATM    4  C   UNL     1     -11.665  14.272  68.949  1.00  0.00    -0.328 C  
HETATM    5  O   UNL     1     -12.519  14.350  68.078  1.00  0.00    -0.084 OA 
BRANCH   4   6
HETATM    6  C   UNL     1     -10.397  15.085  69.004  1.00  0.00    -0.243 C  
BRANCH   6   7
HETATM    7  C   UNL     1     -10.209  15.870  67.711  1.00  0.00    -0.260 C  
BRANCH   7   8
HETATM    8  C   UNL     1      -9.070  15.311  66.865  1.00  0.00    -0.263 C  
BRANCH   8   9
HETATM    9  C   UNL     1      -9.048  13.786  66.959  1.00  0.00    -0.253 C  
BRANCH   9  10
HETATM   10  C   UNL     1      -7.723  13.285  67.516  1.00  0.00    -0.175 C  
BRANCH  10  11
HETATM   11  C   UNL     1      -7.807  11.805  67.890  1.00  0.00    -0.135 C  
BRANCH  11  12
HETATM   12  C   UNL     1      -9.149  11.502  68.549  1.00  0.00    -0.157 C  
BRANCH  12  13
HETATM   13  C   UNL     1      -9.483  10.009  68.515  1.00  0.00    -0.150 C  
HETATM   14  C   UNL     1      -9.740   9.434  69.924  1.00  0.00    -0.236 C  
HETATM   15  C   UNL     1      -9.891   7.915  69.863  1.00  0.00    -0.182 A  
HETATM   16  C   UNL     1     -10.929  10.125  70.615  1.00  0.00    -0.357 C  
HETATM   17  C   UNL     1     -11.164   7.353  69.629  1.00  0.00    -0.065 A  
HETATM   18  C   UNL     1     -11.364   5.971  69.610  1.00  0.00    -0.328 A  
HETATM   19  C   UNL     1     -10.291   5.111  69.803  1.00  0.00    -0.332 A  
HETATM   20  C   UNL     1      -9.016   5.635  69.995  1.00  0.00    -0.150 A  
HETATM   21  C   UNL     1      -8.810   7.023  70.019  1.00  0.00    -0.142 A  
HETATM   22  I   UNL     1      -6.810   7.638  70.284  1.00  0.00    -0.047 I  
ENDBRANCH  12  13
ENDBRANCH  11  12
ENDBRANCH  10  11
ENDBRANCH   9  10
ENDBRANCH   8   9
ENDBRANCH   7   8
ENDBRANCH   6   7
ENDBRANCH   4   6
ENDBRANCH   3   4
ENDBRANCH   2   3
TORSDOF 10
ENDMDL
MODEL      390
REMARK 921   NORMALIZED FREE ENERGY PREDICTED BY IDOCK:   -2.27 KCAL/MOL
REMARK 922        TOTAL FREE ENERGY PREDICTED BY IDOCK:   -5.00 KCAL/MOL
REMARK 923 INTER-LIGAND FREE ENERGY PREDICTED BY IDOCK:   -4.01 KCAL/MOL
REMARK 924 INTRA-LIGAND FREE ENERGY PREDICTED BY IDOCK:   -0.99 KCAL/MOL
REMARK 927      BINDING AFFINITY PREDICTED BY RF-SCORE:    0.00 PKD
ROOT
HETATM    1  C   UNL     1      -9.093   7.576  73.627  1.00  0.00    -0.305 C  
HETATM    2  C   UNL     1     -10.159   6.723  74.291  1.00  0.00    -0.317 C  
ENDROOT
BRANCH   2   3
HETATM    3  O   UNL     1      -9.823   5.349  74.064  1.00  0.00    -0.159 OA 
BRANCH   3   4
HETATM    4  C   UNL     1     -10.501   4.763  73.037  1.00  0.00    -0.202 C  
HETATM    5  O   UNL     1     -11.663   4.993  72.737  1.00  0.00    -0.199 OA 
BRANCH   4   6
HETATM    6  C   UNL     1      -9.564   3.861  72.276  1.00  0.00    -0.202 C  
BRANCH   6   7
HETATM    7  C   UNL     1      -9.694   4.099  70.776  1.00  0.00    -0.266 C  
BRANCH   7   8
HETATM    8  C   UNL     1      -9.079   5.429  70.354  1.00  0.00    -0.170 C  
BRANCH   8   9
HETATM    9  C   UNL     1     -10.155   6.343  69.774  1.00  0.00    -0.211 C  
BRANCH   9  10
HETATM   10  C   UNL     1      -9.601   7.207  68.649  1.00  0.00    -0.140 C  
BRANCH  10  11
HETATM   11  C   UNL     1     -10.701   7.597  67.661  1.00  0.00    -0.246 C  
BRANCH  11  12
HETATM   12  C   UNL     1     -10.909   9.108  67.672  1.00  0.00    -0.160 C  
BRANCH  12  13
HETATM   13  C   UNL     1      -9.604   9.868  67.921  1.00  0.00    -0.157 C  
HETATM   14  C   UNL     1      -9.248  10.818  66.758  1.00  0.00    -0.174 C  
HETATM   15  C   UNL     1      -7.858  11.418  66.963  1.00  0.00    -0.158 A  
HETATM   16  C   UNL     1     -10.334  11.887  66.542  1.00  0.00    -0.249 C  
HETATM   17  C   UNL     1      -7.719  12.610  67.704  1.00  0.00    -0.155 A  
HETATM   18  C   UNL     1      -6.477  13.223  67.882  1.00  0.00    -0.147 A  
HETATM   19  C   UNL     1      -5.335  12.649  67.340  1.00  0.00    -0.058 A  
HETATM   20  C   UNL     1      -5.434  11.450  66.640  1.00  0.00    -0.135 A  
HETATM   21  C   UNL     1      -6.680  10.832  66.455  1.00  0.00    -0.131 A  
HETATM   22  I   UNL     1      -6.638   9.005  65.402  1.00  0.00    -0.070 I  
ENDBRANCH  12  13
ENDBRANCH  11  12
ENDBRANCH  10  11
ENDBRANCH   9  10
ENDBRANCH   8   9
ENDBRANCH   7   8
ENDBRANCH   6   7
ENDBRANCH   4   6
ENDBRANCH   3   4
ENDBRANCH   2   3
TORSDOF 10
ENDMDL
MODEL      391
REMARK 921   NORMALIZED FREE ENERGY PREDICTED BY IDOCK:   -2.25 KCAL/MOL
REMARK 922        TOTAL FREE ENERGY PREDICTED BY IDOCK:   -4.96 KCAL/MOL
REMARK 923 INTER-LIGAND FREE ENERGY PREDICTED BY IDOCK:   -4.12 KCAL/MOL
REMARK 924 INTRA-LIGAND FREE ENERGY PREDICTED BY IDOCK:   -0.84 KCAL/MOL
REMARK 927      BINDING AFFINITY PREDICTED BY RF-SCORE:    0.00 PKD
ROOT
HETATM    1  C   UNL     1     -13.224   6.963  71.389  1.00  0.00    -0.287 C  
HETATM    2  C   UNL     1     -12.100   7.838  71.914  1.00  0.00    -0.304 C  
ENDROOT
BRANCH   2   3
HETATM    3  O   UNL     1     -12.406   9.195  71.571  1.00  0.00    -0.311 OA 
BRANCH   3   4
HETATM    4  C   UNL     1     -11.359   9.897  71.051  1.00  0.00    -0.386 C  
HETATM    5  O   UNL     1     -10.178   9.619  71.205  1.00  0.00    -0.272 OA 
BRANCH   4   6
HETATM    6  C   UNL     1     -11.890  11.007  70.182  1.00  0.00    -0.441 C  
BRANCH   6   7
HETATM    7  C   UNL     1     -11.016  11.181  68.945  1.00  0.00    -0.276 C  
BRANCH   7   8
HETATM    8  C   UNL     1     -11.820  11.660  67.742  1.00  0.00    -0.247 C  
BRANCH   8   9
HETATM    9  C   UNL     1     -10.986  11.529  66.469  1.00  0.00    -0.346 C  
BRANCH   9  10
HETATM   10  C   UNL     1      -9.500  11.685  66.763  1.00  0.00    -0.197 C  
BRANCH  10  11
HETATM   11  C   UNL     1      -8.662  10.785  65.855  1.00  0.00    -0.189 C  
BRANCH  11  12
HETATM   12  C   UNL     1      -7.881   9.773  66.688  1.00  0.00    -0.109 C  
BRANCH  12  13
HETATM   13  C   UNL     1      -7.504   8.530  65.879  1.00  0.00    -0.077 C  
HETATM   14  C   UNL     1      -8.169   7.249  66.428  1.00  0.00    -0.120 C  
HETATM   15  C   UNL     1      -7.629   6.014  65.709  1.00  0.00    -0.084 A  
HETATM   16  C   UNL     1      -9.705   7.341  66.386  1.00  0.00    -0.148 C  
HETATM   17  C   UNL     1      -8.250   5.577  64.520  1.00  0.00    -0.129 A  
HETATM   18  C   UNL     1      -7.823   4.429  63.850  1.00  0.00    -0.088 A  
HETATM   19  C   UNL     1      -6.749   3.697  64.339  1.00  0.00    -0.044 A  
HETATM   20  C   UNL     1      -6.090   4.127  65.486  1.00  0.00    -0.024 A  
HETATM   21  C   UNL     1      -6.516   5.278  66.166  1.00  0.00    -0.040 A  
HETATM   22  I   UNL     1      -5.378   5.802  67.862  1.00  0.00    -0.005 I  
ENDBRANCH  12  13
ENDBRANCH  11  12
ENDBRANCH  10  11
ENDBRANCH   9  10
ENDBRANCH   8   9
ENDBRANCH   7   8
ENDBRANCH   6   7
ENDBRANCH   4   6
ENDBRANCH   3   4
ENDBRANCH   2   3
TORSDOF 10
ENDMDL
MODEL      392
REMARK 921   NORMALIZED FREE ENERGY PREDICTED BY IDOCK:   -2.24 KCAL/MOL
REMARK 922        TOTAL FREE ENERGY PREDICTED BY IDOCK:   -4.95 KCAL/MOL
REMARK 923 INTER-LIGAND FREE ENERGY PREDICTED BY IDOCK:   -3.91 KCAL/MOL
REMARK 924 INTRA-LIGAND FREE ENERGY PREDICTED BY IDOCK:   -1.04 KCAL/MOL
REMARK 927      BINDING AFFINITY PREDICTED BY RF-SCORE:    0.00 PKD
ROOT
HETATM    1  C   UNL     1      -6.851   7.538  64.519  1.00  0.00    -0.051 C  
HETATM    2  C   UNL     1      -7.866   6.769  63.694  1.00  0.00    -0.106 C  
ENDROOT
BRANCH   2   3
HETATM    3  O   UNL     1      -8.622   5.943  64.590  1.00  0.00    -0.084 OA 
BRANCH   3   4
HETATM    4  C   UNL     1      -8.369   4.609  64.478  1.00  0.00    -0.123 C  
HETATM    5  O   UNL     1      -8.087   4.028  63.440  1.00  0.00    -0.085 OA 
BRANCH   4   6
HETATM    6  C   UNL     1      -8.397   3.983  65.849  1.00  0.00    -0.109 C  
BRANCH   6   7
HETATM    7  C   UNL     1      -7.813   4.938  66.884  1.00  0.00    -0.099 C  
BRANCH   7   8
HETATM    8  C   UNL     1      -8.562   4.869  68.210  1.00  0.00    -0.105 C  
BRANCH   8   9
HETATM    9  C   UNL     1     -10.053   4.652  67.958  1.00  0.00    -0.077 C  
BRANCH   9  10
HETATM   10  C   UNL     1     -10.715   5.918  67.429  1.00  0.00    -0.370 C  
BRANCH  10  11
HETATM   11  C   UNL     1     -10.994   6.908  68.559  1.00  0.00    -0.198 C  
BRANCH  11  12
HETATM   12  C   UNL     1     -11.365   6.161  69.836  1.00  0.00    -0.454 C  
BRANCH  12  13
HETATM   13  C   UNL     1     -10.302   6.318  70.925  1.00  0.00    -0.253 C  
HETATM   14  C   UNL     1     -10.061   7.796  71.300  1.00  0.00    -0.203 C  
HETATM   15  C   UNL     1      -8.874   7.921  72.254  1.00  0.00    -0.202 A  
HETATM   16  C   UNL     1     -11.337   8.462  71.845  1.00  0.00    -0.382 C  
HETATM   17  C   UNL     1      -9.088   7.820  73.645  1.00  0.00    -0.345 A  
HETATM   18  C   UNL     1      -8.044   7.972  74.560  1.00  0.00    -0.277 A  
HETATM   19  C   UNL     1      -6.753   8.208  74.108  1.00  0.00    -0.149 A  
HETATM   20  C   UNL     1      -6.504   8.271  72.741  1.00  0.00    -0.094 A  
HETATM   21  C   UNL     1      -7.548   8.123  71.816  1.00  0.00    -0.090 A  
HETATM   22  I   UNL     1      -6.982   8.210  69.787  1.00  0.00    -0.054 I  
ENDBRANCH  12  13
ENDBRANCH  11  12
ENDBRANCH  10  11
ENDBRANCH   9  10
ENDBRANCH   8   9
ENDBRANCH   7   8
ENDBRANCH   6   7
ENDBRANCH   4   6
ENDBRANCH   3   4
ENDBRANCH   2   3
TORSDOF 10
ENDMDL
MODEL      393
REMARK 921   NORMALIZED FREE ENERGY PREDICTED BY IDOCK:   -2.24 KCAL/MOL
REMARK 922        TOTAL FREE ENERGY PREDICTED BY IDOCK:   -4.94 KCAL/MOL
REMARK 923 INTER-LIGAND FREE ENERGY PREDICTED BY IDOCK:   -4.14 KCAL/MOL
REMARK 924 INTRA-LIGAND FREE ENERGY PREDICTED BY IDOCK:   -0.80 KCAL/MOL
REMARK 927      BINDING AFFINITY PREDICTED BY RF-SCORE:    0.00 PKD
ROOT
HETATM    1  C   UNL     1      -5.780   3.629  63.719  1.00  0.00    -0.014 C  
HETATM    2  C   UNL     1      -7.111   3.788  64.431  1.00  0.00    -0.054 C  
ENDROOT
BRANCH   2   3
HETATM    3  O   UNL     1      -6.841   3.983  65.825  1.00  0.00    -0.054 OA 
BRANCH   3   4
HETATM    4  C   UNL     1      -7.070   2.887  66.604  1.00  0.00    -0.054 C  
HETATM    5  O   UNL     1      -7.810   1.959  66.315  1.00  0.00    -0.072 OA 
BRANCH   4   6
HETATM    6  C   UNL     1      -6.194   2.959  67.828  1.00  0.00    -0.032 C  
BRANCH   6   7
HETATM    7  C   UNL     1      -6.925   2.394  69.041  1.00  0.00    -0.040 C  
BRANCH   7   8
HETATM    8  C   UNL     1      -7.341   3.489  70.016  1.00  0.00    -0.041 C  
BRANCH   8   9
HETATM    9  C   UNL     1      -8.863   3.624  70.032  1.00  0.00    -0.147 C  
BRANCH   9  10
HETATM   10  C   UNL     1      -9.322   4.809  69.193  1.00  0.00    -0.195 C  
BRANCH  10  11
HETATM   11  C   UNL     1     -10.618   5.404  69.743  1.00  0.00    -0.347 C  
BRANCH  11  12
HETATM   12  C   UNL     1     -10.396   5.941  71.153  1.00  0.00    -0.276 C  
BRANCH  12  13
HETATM   13  C   UNL     1     -10.569   7.460  71.225  1.00  0.00    -0.231 C  
HETATM   14  C   UNL     1     -11.840   7.940  70.493  1.00  0.00    -0.037 C  
HETATM   15  C   UNL     1     -11.880   9.466  70.434  1.00  0.00    -0.140 A  
HETATM   16  C   UNL     1     -13.115   7.333  71.106  1.00  0.00    -0.291 C  
HETATM   17  C   UNL     1     -12.470  10.187  71.494  1.00  0.00    -0.526 A  
HETATM   18  C   UNL     1     -12.572  11.579  71.466  1.00  0.00    -0.363 A  
HETATM   19  C   UNL     1     -12.068  12.292  70.387  1.00  0.00    -0.385 A  
HETATM   20  C   UNL     1     -11.443  11.612  69.346  1.00  0.00    -0.372 A  
HETATM   21  C   UNL     1     -11.341  10.213  69.366  1.00  0.00    -0.178 A  
HETATM   22  I   UNL     1     -10.331   9.355  67.725  1.00  0.00    -0.292 I  
ENDBRANCH  12  13
ENDBRANCH  11  12
ENDBRANCH  10  11
ENDBRANCH   9  10
ENDBRANCH   8   9
ENDBRANCH   7   8
ENDBRANCH   6   7
ENDBRANCH   4   6
ENDBRANCH   3   4
ENDBRANCH   2   3
TORSDOF 10
ENDMDL
MODEL      394
REMARK 921   NORMALIZED FREE ENERGY PREDICTED BY IDOCK:   -2.21 KCAL/MOL
REMARK 922        TOTAL FREE ENERGY PREDICTED BY IDOCK:   -4.90 KCAL/MOL
REMARK 923 INTER-LIGAND FREE ENERGY PREDICTED BY IDOCK:   -4.15 KCAL/MOL
REMARK 924 INTRA-LIGAND FREE ENERGY PREDICTED BY IDOCK:   -0.75 KCAL/MOL
REMARK 927      BINDING AFFINITY PREDICTED BY RF-SCORE:    0.00 PKD
ROOT
HETATM    1  C   UNL     1     -10.346  19.406  65.363  1.00  0.00     0.158 C  
HETATM    2  C   UNL     1     -10.017  18.814  66.721  1.00  0.00    -0.358 C  
ENDROOT
BRANCH   2   3
HETATM    3  O   UNL     1     -10.495  17.463  66.737  1.00  0.00    -0.310 OA 
BRANCH   3   4
HETATM    4  C   UNL     1      -9.700  16.574  66.078  1.00  0.00    -0.301 C  
HETATM    5  O   UNL     1      -8.491  16.465  66.225  1.00  0.00    -0.299 OA 
BRANCH   4   6
HETATM    6  C   UNL     1     -10.559  15.686  65.216  1.00  0.00    -0.448 C  
BRANCH   6   7
HETATM    7  C   UNL     1     -11.533  14.887  66.075  1.00  0.00    -0.275 C  
BRANCH   7   8
HETATM    8  C   UNL     1     -10.920  13.583  66.570  1.00  0.00    -0.295 C  
BRANCH   8   9
HETATM    9  C   UNL     1     -10.216  13.810  67.907  1.00  0.00    -0.245 C  
BRANCH   9  10
HETATM   10  C   UNL     1      -8.951  12.970  68.016  1.00  0.00    -0.199 C  
BRANCH  10  11
HETATM   11  C   UNL     1      -9.233  11.503  67.692  1.00  0.00    -0.171 C  
BRANCH  11  12
HETATM   12  C   UNL     1      -8.018  10.866  67.026  1.00  0.00    -0.132 C  
BRANCH  12  13
HETATM   13  C   UNL     1      -7.811   9.416  67.472  1.00  0.00    -0.099 C  
HETATM   14  C   UNL     1      -8.952   8.490  67.002  1.00  0.00    -0.157 C  
HETATM   15  C   UNL     1      -8.800   7.099  67.616  1.00  0.00    -0.119 A  
HETATM   16  C   UNL     1      -9.064   8.456  65.467  1.00  0.00    -0.108 C  
HETATM   17  C   UNL     1      -8.020   6.129  66.952  1.00  0.00    -0.105 A  
HETATM   18  C   UNL     1      -7.887   4.830  67.448  1.00  0.00    -0.094 A  
HETATM   19  C   UNL     1      -8.515   4.472  68.634  1.00  0.00    -0.093 A  
HETATM   20  C   UNL     1      -9.257   5.419  69.332  1.00  0.00    -0.150 A  
HETATM   21  C   UNL     1      -9.397   6.724  68.837  1.00  0.00    -0.129 A  
HETATM   22  I   UNL     1     -10.525   8.035  70.044  1.00  0.00    -0.221 I  
ENDBRANCH  12  13
ENDBRANCH  11  12
ENDBRANCH  10  11
ENDBRANCH   9  10
ENDBRANCH   8   9
ENDBRANCH   7   8
ENDBRANCH   6   7
ENDBRANCH   4   6
ENDBRANCH   3   4
ENDBRANCH   2   3
TORSDOF 10
ENDMDL
MODEL      395
REMARK 921   NORMALIZED FREE ENERGY PREDICTED BY IDOCK:   -2.15 KCAL/MOL
REMARK 922        TOTAL FREE ENERGY PREDICTED BY IDOCK:   -4.81 KCAL/MOL
REMARK 923 INTER-LIGAND FREE ENERGY PREDICTED BY IDOCK:   -4.37 KCAL/MOL
REMARK 924 INTRA-LIGAND FREE ENERGY PREDICTED BY IDOCK:   -0.44 KCAL/MOL
REMARK 927      BINDING AFFINITY PREDICTED BY RF-SCORE:    0.00 PKD
ROOT
HETATM    1  C   UNL     1     -12.603  14.120  65.391  1.00  0.00    -0.485 C  
HETATM    2  C   UNL     1     -11.450  13.259  65.871  1.00  0.00    -0.332 C  
ENDROOT
BRANCH   2   3
HETATM    3  O   UNL     1     -10.710  14.017  66.837  1.00  0.00    -0.282 OA 
BRANCH   3   4
HETATM    4  C   UNL     1      -9.803  14.883  66.302  1.00  0.00    -0.294 C  
HETATM    5  O   UNL     1      -9.734  15.192  65.121  1.00  0.00    -0.232 OA 
BRANCH   4   6
HETATM    6  C   UNL     1      -8.966  15.469  67.409  1.00  0.00    -0.203 C  
BRANCH   6   7
HETATM    7  C   UNL     1      -7.522  15.641  66.954  1.00  0.00    -0.169 C  
BRANCH   7   8
HETATM    8  C   UNL     1      -6.574  14.708  67.699  1.00  0.00    -0.177 C  
BRANCH   8   9
HETATM    9  C   UNL     1      -7.373  13.700  68.523  1.00  0.00    -0.114 C  
BRANCH   9  10
HETATM   10  C   UNL     1      -7.353  12.320  67.879  1.00  0.00    -0.111 C  
BRANCH  10  11
HETATM   11  C   UNL     1      -7.048  11.235  68.912  1.00  0.00    -0.104 C  
BRANCH  11  12
HETATM   12  C   UNL     1      -8.343  10.607  69.417  1.00  0.00    -0.073 C  
BRANCH  12  13
HETATM   13  C   UNL     1      -8.549   9.192  68.872  1.00  0.00    -0.131 C  
HETATM   14  C   UNL     1     -10.036   8.780  68.858  1.00  0.00    -0.210 C  
HETATM   15  C   UNL     1     -10.180   7.307  68.479  1.00  0.00    -0.197 A  
HETATM   16  C   UNL     1     -10.879   9.710  67.968  1.00  0.00    -0.250 C  
HETATM   17  C   UNL     1     -10.284   6.948  67.119  1.00  0.00    -0.308 A  
HETATM   18  C   UNL     1     -10.462   5.621  66.722  1.00  0.00    -0.353 A  
HETATM   19  C   UNL     1     -10.522   4.613  67.675  1.00  0.00     0.141 A  
HETATM   20  C   UNL     1     -10.381   4.931  69.022  1.00  0.00    -0.087 A  
HETATM   21  C   UNL     1     -10.205   6.263  69.427  1.00  0.00    -0.193 A  
HETATM   22  I   UNL     1      -9.972   6.556  71.502  1.00  0.00    -0.205 I  
ENDBRANCH  12  13
ENDBRANCH  11  12
ENDBRANCH  10  11
ENDBRANCH   9  10
ENDBRANCH   8   9
ENDBRANCH   7   8
ENDBRANCH   6   7
ENDBRANCH   4   6
ENDBRANCH   3   4
ENDBRANCH   2   3
TORSDOF 10
ENDMDL
MODEL      396
REMARK 921   NORMALIZED FREE ENERGY PREDICTED BY IDOCK:   -2.14 KCAL/MOL
REMARK 922        TOTAL FREE ENERGY PREDICTED BY IDOCK:   -4.80 KCAL/MOL
REMARK 923 INTER-LIGAND FREE ENERGY PREDICTED BY IDOCK:   -4.33 KCAL/MOL
REMARK 924 INTRA-LIGAND FREE ENERGY PREDICTED BY IDOCK:   -0.47 KCAL/MOL
REMARK 927      BINDING AFFINITY PREDICTED BY RF-SCORE:    0.00 PKD
ROOT
HETATM    1  C   UNL     1     -13.749  13.818  72.143  1.00  0.00    -0.634 C  
HETATM    2  C   UNL     1     -12.922  12.553  72.007  1.00  0.00    -0.273 C  
ENDROOT
BRANCH   2   3
HETATM    3  O   UNL     1     -13.813  11.435  72.107  1.00  0.00    -0.037 OA 
BRANCH   3   4
HETATM    4  C   UNL     1     -13.214  10.220  71.957  1.00  0.00    -0.411 C  
HETATM    5  O   UNL     1     -12.011  10.035  71.845  1.00  0.00    -0.290 OA 
BRANCH   4   6
HETATM    6  C   UNL     1     -14.259   9.138  72.046  1.00  0.00    -0.319 C  
BRANCH   6   7
HETATM    7  C   UNL     1     -13.665   7.868  72.643  1.00  0.00     0.302 C  
BRANCH   7   8
HETATM    8  C   UNL     1     -13.045   6.972  71.576  1.00  0.00    -0.395 C  
BRANCH   8   9
HETATM    9  C   UNL     1     -11.808   6.272  72.134  1.00  0.00    -0.365 C  
BRANCH   9  10
HETATM   10  C   UNL     1     -10.926   5.732  71.017  1.00  0.00    -0.300 C  
BRANCH  10  11
HETATM   11  C   UNL     1      -9.472   6.163  71.205  1.00  0.00    -0.177 C  
BRANCH  11  12
HETATM   12  C   UNL     1      -8.603   5.596  70.087  1.00  0.00    -0.127 C  
BRANCH  12  13
HETATM   13  C   UNL     1      -8.276   6.646  69.023  1.00  0.00    -0.117 C  
HETATM   14  C   UNL     1      -8.851   6.277  67.639  1.00  0.00    -0.111 C  
HETATM   15  C   UNL     1      -8.353   7.253  66.574  1.00  0.00    -0.121 A  
HETATM   16  C   UNL     1     -10.385   6.160  67.671  1.00  0.00    -0.250 C  
HETATM   17  C   UNL     1      -9.077   8.438  66.327  1.00  0.00    -0.241 A  
HETATM   18  C   UNL     1      -8.689   9.340  65.333  1.00  0.00    -0.208 A  
HETATM   19  C   UNL     1      -7.554   9.091  64.573  1.00  0.00    -0.108 A  
HETATM   20  C   UNL     1      -6.797   7.951  64.822  1.00  0.00    -0.055 A  
HETATM   21  C   UNL     1      -7.183   7.039  65.816  1.00  0.00    -0.073 A  
HETATM   22  I   UNL     1      -5.898   5.388  66.081  1.00  0.00    -0.019 I  
ENDBRANCH  12  13
ENDBRANCH  11  12
ENDBRANCH  10  11
ENDBRANCH   9  10
ENDBRANCH   8   9
ENDBRANCH   7   8
ENDBRANCH   6   7
ENDBRANCH   4   6
ENDBRANCH   3   4
ENDBRANCH   2   3
TORSDOF 10
ENDMDL
MODEL      397
REMARK 921   NORMALIZED FREE ENERGY PREDICTED BY IDOCK:   -2.13 KCAL/MOL
REMARK 922        TOTAL FREE ENERGY PREDICTED BY IDOCK:   -4.77 KCAL/MOL
REMARK 923 INTER-LIGAND FREE ENERGY PREDICTED BY IDOCK:   -4.10 KCAL/MOL
REMARK 924 INTRA-LIGAND FREE ENERGY PREDICTED BY IDOCK:   -0.67 KCAL/MOL
REMARK 927      BINDING AFFINITY PREDICTED BY RF-SCORE:    0.00 PKD
ROOT
HETATM    1  C   UNL     1     -13.178  15.838  73.401  1.00  0.00    -0.653 C  
HETATM    2  C   UNL     1     -13.576  14.774  72.394  1.00  0.00    -0.446 C  
ENDROOT
BRANCH   2   3
HETATM    3  O   UNL     1     -12.375  14.232  71.832  1.00  0.00    -0.324 OA 
BRANCH   3   4
HETATM    4  C   UNL     1     -11.968  14.834  70.679  1.00  0.00    -0.309 C  
HETATM    5  O   UNL     1     -11.742  16.028  70.548  1.00  0.00    -0.357 OA 
BRANCH   4   6
HETATM    6  C   UNL     1     -11.749  13.783  69.621  1.00  0.00    -0.379 C  
BRANCH   6   7
HETATM    7  C   UNL     1     -10.987  14.367  68.437  1.00  0.00    -0.261 C  
BRANCH   7   8
HETATM    8  C   UNL     1      -9.602  13.749  68.288  1.00  0.00    -0.219 C  
BRANCH   8   9
HETATM    9  C   UNL     1      -9.664  12.547  67.348  1.00  0.00    -0.194 C  
BRANCH   9  10
HETATM   10  C   UNL     1      -8.384  11.724  67.415  1.00  0.00    -0.159 C  
BRANCH  10  11
HETATM   11  C   UNL     1      -8.085  11.287  68.848  1.00  0.00    -0.090 C  
BRANCH  11  12
HETATM   12  C   UNL     1      -7.028  10.187  68.856  1.00  0.00    -0.063 C  
BRANCH  12  13
HETATM   13  C   UNL     1      -7.556   8.877  68.265  1.00  0.00    -0.092 C  
HETATM   14  C   UNL     1      -6.633   8.319  67.161  1.00  0.00    -0.058 C  
HETATM   15  C   UNL     1      -7.282   7.116  66.478  1.00  0.00    -0.079 A  
HETATM   16  C   UNL     1      -5.223   8.012  67.698  1.00  0.00    -0.033 C  
HETATM   17  C   UNL     1      -7.081   5.825  67.009  1.00  0.00    -0.070 A  
HETATM   18  C   UNL     1      -7.614   4.689  66.396  1.00  0.00    -0.090 A  
HETATM   19  C   UNL     1      -8.381   4.815  65.246  1.00  0.00    -0.127 A  
HETATM   20  C   UNL     1      -8.631   6.080  64.722  1.00  0.00     0.036 A  
HETATM   21  C   UNL     1      -8.095   7.224  65.331  1.00  0.00    -0.133 A  
HETATM   22  I   UNL     1      -8.607   9.058  64.424  1.00  0.00    -0.001 I  
ENDBRANCH  12  13
ENDBRANCH  11  12
ENDBRANCH  10  11
ENDBRANCH   9  10
ENDBRANCH   8   9
ENDBRANCH   7   8
ENDBRANCH   6   7
ENDBRANCH   4   6
ENDBRANCH   3   4
ENDBRANCH   2   3
TORSDOF 10
ENDMDL
MODEL      398
REMARK 921   NORMALIZED FREE ENERGY PREDICTED BY IDOCK:   -2.12 KCAL/MOL
REMARK 922        TOTAL FREE ENERGY PREDICTED BY IDOCK:   -4.76 KCAL/MOL
REMARK 923 INTER-LIGAND FREE ENERGY PREDICTED BY IDOCK:   -5.02 KCAL/MOL
REMARK 924 INTRA-LIGAND FREE ENERGY PREDICTED BY IDOCK:    0.26 KCAL/MOL
REMARK 927      BINDING AFFINITY PREDICTED BY RF-SCORE:    0.00 PKD
ROOT
HETATM    1  C   UNL     1     -12.258  13.373  63.838  1.00  0.00    -0.478 C  
HETATM    2  C   UNL     1     -11.722  12.077  64.416  1.00  0.00    -0.320 C  
ENDROOT
BRANCH   2   3
HETATM    3  O   UNL     1     -11.085  11.355  63.354  1.00  0.00    -0.378 OA 
BRANCH   3   4
HETATM    4  C   UNL     1      -9.883  10.804  63.686  1.00  0.00    -0.350 C  
HETATM    5  O   UNL     1      -9.256  10.012  62.997  1.00  0.00    -0.262 OA 
BRANCH   4   6
HETATM    6  C   UNL     1      -9.409  11.397  64.987  1.00  0.00    -0.158 C  
BRANCH   6   7
HETATM    7  C   UNL     1      -8.901  10.303  65.920  1.00  0.00    -0.176 C  
BRANCH   7   8
HETATM    8  C   UNL     1      -9.252  10.587  67.376  1.00  0.00    -0.154 C  
BRANCH   8   9
HETATM    9  C   UNL     1     -10.642  10.040  67.695  1.00  0.00    -0.323 C  
BRANCH   9  10
HETATM   10  C   UNL     1     -10.759   8.570  67.317  1.00  0.00    -0.219 C  
BRANCH  10  11
HETATM   11  C   UNL     1     -10.309   7.668  68.466  1.00  0.00    -0.225 C  
BRANCH  11  12
HETATM   12  C   UNL     1     -11.005   6.313  68.378  1.00  0.00    -0.409 C  
BRANCH  12  13
HETATM   13  C   UNL     1     -10.906   5.529  69.689  1.00  0.00    -0.279 C  
HETATM   14  C   UNL     1      -9.444   5.288  70.118  1.00  0.00    -0.217 C  
HETATM   15  C   UNL     1      -9.387   4.354  71.326  1.00  0.00    -0.210 A  
HETATM   16  C   UNL     1      -8.691   6.610  70.351  1.00  0.00    -0.151 C  
HETATM   17  C   UNL     1      -9.461   4.896  72.626  1.00  0.00    -0.159 A  
HETATM   18  C   UNL     1      -9.368   4.091  73.763  1.00  0.00    -0.110 A  
HETATM   19  C   UNL     1      -9.220   2.717  73.631  1.00  0.00    -0.094 A  
HETATM   20  C   UNL     1      -9.186   2.148  72.361  1.00  0.00    -0.123 A  
HETATM   21  C   UNL     1      -9.275   2.952  71.216  1.00  0.00    -0.124 A  
HETATM   22  I   UNL     1      -9.244   1.919  69.378  1.00  0.00    -0.099 I  
ENDBRANCH  12  13
ENDBRANCH  11  12
ENDBRANCH  10  11
ENDBRANCH   9  10
ENDBRANCH   8   9
ENDBRANCH   7   8
ENDBRANCH   6   7
ENDBRANCH   4   6
ENDBRANCH   3   4
ENDBRANCH   2   3
TORSDOF 10
ENDMDL
MODEL      399
REMARK 921   NORMALIZED FREE ENERGY PREDICTED BY IDOCK:   -2.10 KCAL/MOL
REMARK 922        TOTAL FREE ENERGY PREDICTED BY IDOCK:   -4.73 KCAL/MOL
REMARK 923 INTER-LIGAND FREE ENERGY PREDICTED BY IDOCK:   -3.59 KCAL/MOL
REMARK 924 INTRA-LIGAND FREE ENERGY PREDICTED BY IDOCK:   -1.14 KCAL/MOL
REMARK 927      BINDING AFFINITY PREDICTED BY RF-SCORE:    0.00 PKD
ROOT
HETATM    1  C   UNL     1      -6.685   5.837  63.332  1.00  0.00    -0.036 C  
HETATM    2  C   UNL     1      -7.846   5.213  62.579  1.00  0.00    -0.073 C  
ENDROOT
BRANCH   2   3
HETATM    3  O   UNL     1      -8.734   4.637  63.545  1.00  0.00    -0.130 OA 
BRANCH   3   4
HETATM    4  C   UNL     1      -8.558   3.300  63.747  1.00  0.00    -0.089 C  
HETATM    5  O   UNL     1      -8.098   2.517  62.929  1.00  0.00    -0.067 OA 
BRANCH   4   6
HETATM    6  C   UNL     1      -8.931   2.961  65.167  1.00  0.00    -0.134 C  
BRANCH   6   7
HETATM    7  C   UNL     1      -8.357   3.993  66.131  1.00  0.00    -0.108 C  
BRANCH   7   8
HETATM    8  C   UNL     1      -9.342   4.349  67.239  1.00  0.00    -0.175 C  
BRANCH   8   9
HETATM    9  C   UNL     1     -10.509   5.150  66.664  1.00  0.00    -0.328 C  
BRANCH   9  10
HETATM   10  C   UNL     1     -10.129   6.611  66.459  1.00  0.00    -0.140 C  
BRANCH  10  11
HETATM   11  C   UNL     1     -10.276   7.406  67.755  1.00  0.00    -0.250 C  
BRANCH  11  12
HETATM   12  C   UNL     1     -11.507   6.938  68.526  1.00  0.00     0.192 C  
BRANCH  12  13
HETATM   13  C   UNL     1     -11.135   6.143  69.779  1.00  0.00    -0.486 C  
HETATM   14  C   UNL     1     -10.455   7.022  70.851  1.00  0.00    -0.233 C  
HETATM   15  C   UNL     1      -9.941   6.160  72.003  1.00  0.00    -0.194 A  
HETATM   16  C   UNL     1     -11.377   8.161  71.322  1.00  0.00    -0.300 C  
HETATM   17  C   UNL     1     -10.796   5.867  73.085  1.00  0.00    -0.296 A  
HETATM   18  C   UNL     1     -10.360   5.122  74.183  1.00  0.00    -0.307 A  
HETATM   19  C   UNL     1      -9.062   4.633  74.220  1.00  0.00    -0.112 A  
HETATM   20  C   UNL     1      -8.207   4.871  73.148  1.00  0.00    -0.101 A  
HETATM   21  C   UNL     1      -8.638   5.621  72.043  1.00  0.00    -0.130 A  
HETATM   22  I   UNL     1      -7.224   5.851  70.496  1.00  0.00    -0.089 I  
ENDBRANCH  12  13
ENDBRANCH  11  12
ENDBRANCH  10  11
ENDBRANCH   9  10
ENDBRANCH   8   9
ENDBRANCH   7   8
ENDBRANCH   6   7
ENDBRANCH   4   6
ENDBRANCH   3   4
ENDBRANCH   2   3
TORSDOF 10
ENDMDL
MODEL      400
REMARK 921   NORMALIZED FREE ENERGY PREDICTED BY IDOCK:   -2.09 KCAL/MOL
REMARK 922        TOTAL FREE ENERGY PREDICTED BY IDOCK:   -4.71 KCAL/MOL
REMARK 923 INTER-LIGAND FREE ENERGY PREDICTED BY IDOCK:   -3.71 KCAL/MOL
REMARK 924 INTRA-LIGAND FREE ENERGY PREDICTED BY IDOCK:   -1.00 KCAL/MOL
REMARK 927      BINDING AFFINITY PREDICTED BY RF-SCORE:    0.00 PKD
ROOT
HETATM    1  C   UNL     1      -8.809   7.822  73.644  1.00  0.00    -0.323 C  
HETATM    2  C   UNL     1      -7.824   8.113  72.527  1.00  0.00    -0.136 C  
ENDROOT
BRANCH   2   3
HETATM    3  O   UNL     1      -8.470   8.985  71.591  1.00  0.00    -0.339 OA 
BRANCH   3   4
HETATM    4  C   UNL     1      -7.664   9.433  70.586  1.00  0.00    -0.149 C  
HETATM    5  O   UNL     1      -8.011  10.181  69.684  1.00  0.00    -0.152 OA 
BRANCH   4   6
HETATM    6  C   UNL     1      -6.260   8.938  70.820  1.00  0.00    -0.043 C  
BRANCH   6   7
HETATM    7  C   UNL     1      -5.441   9.032  69.538  1.00  0.00    -0.034 C  
BRANCH   7   8
HETATM    8  C   UNL     1      -5.566   7.773  68.687  1.00  0.00    -0.027 C  
BRANCH   8   9
HETATM    9  C   UNL     1      -6.326   6.695  69.457  1.00  0.00    -0.042 C  
BRANCH   9  10
HETATM   10  C   UNL     1      -5.440   5.490  69.742  1.00  0.00    -0.004 C  
BRANCH  10  11
HETATM   11  C   UNL     1      -5.568   4.439  68.640  1.00  0.00    -0.013 C  
BRANCH  11  12
HETATM   12  C   UNL     1      -6.693   3.463  68.968  1.00  0.00    -0.037 C  
BRANCH  12  13
HETATM   13  C   UNL     1      -7.561   3.954  70.129  1.00  0.00    -0.048 C  
HETATM   14  C   UNL     1      -9.044   3.559  69.960  1.00  0.00    -0.197 C  
HETATM   15  C   UNL     1      -9.900   4.217  71.041  1.00  0.00    -0.251 A  
HETATM   16  C   UNL     1      -9.225   2.032  69.903  1.00  0.00    -0.178 C  
HETATM   17  C   UNL     1     -10.082   3.561  72.277  1.00  0.00    -0.220 A  
HETATM   18  C   UNL     1     -10.892   4.099  73.280  1.00  0.00    -0.315 A  
HETATM   19  C   UNL     1     -11.525   5.319  73.082  1.00  0.00    -0.316 A  
HETATM   20  C   UNL     1     -11.331   6.009  71.890  1.00  0.00    -0.335 A  
HETATM   21  C   UNL     1     -10.522   5.472  70.877  1.00  0.00    -0.249 A  
HETATM   22  I   UNL     1     -10.311   6.671  69.155  1.00  0.00    -0.299 I  
ENDBRANCH  12  13
ENDBRANCH  11  12
ENDBRANCH  10  11
ENDBRANCH   9  10
ENDBRANCH   8   9
ENDBRANCH   7   8
ENDBRANCH   6   7
ENDBRANCH   4   6
ENDBRANCH   3   4
ENDBRANCH   2   3
TORSDOF 10
ENDMDL
MODEL      401
REMARK 921   NORMALIZED FREE ENERGY PREDICTED BY IDOCK:   -2.08 KCAL/MOL
REMARK 922        TOTAL FREE ENERGY PREDICTED BY IDOCK:   -4.70 KCAL/MOL
REMARK 923 INTER-LIGAND FREE ENERGY PREDICTED BY IDOCK:   -4.04 KCAL/MOL
REMARK 924 INTRA-LIGAND FREE ENERGY PREDICTED BY IDOCK:   -0.66 KCAL/MOL
REMARK 927      BINDING AFFINITY PREDICTED BY RF-SCORE:    0.00 PKD
ROOT
HETATM    1  C   UNL     1     -10.589  18.699  66.763  1.00  0.00    -0.422 C  
HETATM    2  C   UNL     1     -10.354  18.339  68.218  1.00  0.00    -0.357 C  
ENDROOT
BRANCH   2   3
HETATM    3  O   UNL     1     -10.124  16.927  68.289  1.00  0.00    -0.273 OA 
BRANCH   3   4
HETATM    4  C   UNL     1      -8.813  16.562  68.200  1.00  0.00    -0.203 C  
HETATM    5  O   UNL     1      -7.882  17.144  68.737  1.00  0.00    -0.255 OA 
BRANCH   4   6
HETATM    6  C   UNL     1      -8.708  15.278  67.419  1.00  0.00    -0.194 C  
BRANCH   6   7
HETATM    7  C   UNL     1      -9.642  14.222  67.999  1.00  0.00    -0.223 C  
BRANCH   7   8
HETATM    8  C   UNL     1     -10.228  13.323  66.917  1.00  0.00    -0.250 C  
BRANCH   8   9
HETATM    9  C   UNL     1      -9.960  11.857  67.252  1.00  0.00    -0.200 C  
BRANCH   9  10
HETATM   10  C   UNL     1     -11.259  11.094  67.474  1.00  0.00    -0.369 C  
BRANCH  10  11
HETATM   11  C   UNL     1     -10.985   9.637  67.845  1.00  0.00    -0.205 C  
BRANCH  11  12
HETATM   12  C   UNL     1      -9.773   9.115  67.080  1.00  0.00    -0.245 C  
BRANCH  12  13
HETATM   13  C   UNL     1      -9.283   7.772  67.624  1.00  0.00    -0.146 C  
HETATM   14  C   UNL     1      -7.794   7.517  67.303  1.00  0.00    -0.118 C  
HETATM   15  C   UNL     1      -7.395   6.098  67.704  1.00  0.00    -0.080 A  
HETATM   16  C   UNL     1      -6.885   8.592  67.925  1.00  0.00    -0.067 C  
HETATM   17  C   UNL     1      -6.938   5.850  69.015  1.00  0.00    -0.068 A  
HETATM   18  C   UNL     1      -6.518   4.581  69.418  1.00  0.00    -0.036 A  
HETATM   19  C   UNL     1      -6.563   3.518  68.525  1.00  0.00    -0.041 A  
HETATM   20  C   UNL     1      -7.048   3.723  67.237  1.00  0.00    -0.059 A  
HETATM   21  C   UNL     1      -7.467   4.997  66.825  1.00  0.00    -0.087 A  
HETATM   22  I   UNL     1      -8.206   5.115  64.854  1.00  0.00    -0.146 I  
ENDBRANCH  12  13
ENDBRANCH  11  12
ENDBRANCH  10  11
ENDBRANCH   9  10
ENDBRANCH   8   9
ENDBRANCH   7   8
ENDBRANCH   6   7
ENDBRANCH   4   6
ENDBRANCH   3   4
ENDBRANCH   2   3
TORSDOF 10
ENDMDL
MODEL      402
REMARK 921   NORMALIZED FREE ENERGY PREDICTED BY IDOCK:   -2.08 KCAL/MOL
REMARK 922        TOTAL FREE ENERGY PREDICTED BY IDOCK:   -4.69 KCAL/MOL
REMARK 923 INTER-LIGAND FREE ENERGY PREDICTED BY IDOCK:   -4.39 KCAL/MOL
REMARK 924 INTRA-LIGAND FREE ENERGY PREDICTED BY IDOCK:   -0.30 KCAL/MOL
REMARK 927      BINDING AFFINITY PREDICTED BY RF-SCORE:    0.00 PKD
ROOT
HETATM    1  C   UNL     1      -6.640   6.171  63.093  1.00  0.00    -0.039 C  
HETATM    2  C   UNL     1      -7.831   5.410  62.539  1.00  0.00    -0.079 C  
ENDROOT
BRANCH   2   3
HETATM    3  O   UNL     1      -8.563   4.876  63.649  1.00  0.00    -0.130 OA 
BRANCH   3   4
HETATM    4  C   UNL     1      -8.116   3.667  64.093  1.00  0.00    -0.089 C  
HETATM    5  O   UNL     1      -7.656   2.782  63.385  1.00  0.00    -0.060 OA 
BRANCH   4   6
HETATM    6  C   UNL     1      -8.190   3.633  65.597  1.00  0.00    -0.097 C  
BRANCH   6   7
HETATM    7  C   UNL     1      -7.436   4.815  66.195  1.00  0.00    -0.086 C  
BRANCH   7   8
HETATM    8  C   UNL     1      -8.275   5.565  67.224  1.00  0.00    -0.101 C  
BRANCH   8   9
HETATM    9  C   UNL     1      -8.915   6.794  66.581  1.00  0.00    -0.154 C  
BRANCH   9  10
HETATM   10  C   UNL     1      -8.185   8.070  66.977  1.00  0.00    -0.116 C  
BRANCH  10  11
HETATM   11  C   UNL     1      -8.841   8.727  68.190  1.00  0.00    -0.141 C  
BRANCH  11  12
HETATM   12  C   UNL     1      -8.235  10.105  68.438  1.00  0.00    -0.112 C  
BRANCH  12  13
HETATM   13  C   UNL     1      -9.049  11.219  67.776  1.00  0.00    -0.152 C  
HETATM   14  C   UNL     1     -10.409  10.717  67.247  1.00  0.00    -0.265 C  
HETATM   15  C   UNL     1     -11.107  11.810  66.441  1.00  0.00    -0.360 A  
HETATM   16  C   UNL     1     -11.289  10.155  68.378  1.00  0.00    -0.179 C  
HETATM   17  C   UNL     1     -11.942  12.735  67.103  1.00  0.00    -0.351 A  
HETATM   18  C   UNL     1     -12.638  13.724  66.405  1.00  0.00    -0.309 A  
HETATM   19  C   UNL     1     -12.502  13.829  65.028  1.00  0.00    -0.449 A  
HETATM   20  C   UNL     1     -11.654  12.958  64.352  1.00  0.00    -0.415 A  
HETATM   21  C   UNL     1     -10.954  11.959  65.046  1.00  0.00    -0.312 A  
HETATM   22  I   UNL     1      -9.687  10.754  63.869  1.00  0.00    -0.395 I  
ENDBRANCH  12  13
ENDBRANCH  11  12
ENDBRANCH  10  11
ENDBRANCH   9  10
ENDBRANCH   8   9
ENDBRANCH   7   8
ENDBRANCH   6   7
ENDBRANCH   4   6
ENDBRANCH   3   4
ENDBRANCH   2   3
TORSDOF 10
ENDMDL
MODEL      403
REMARK 921   NORMALIZED FREE ENERGY PREDICTED BY IDOCK:   -2.07 KCAL/MOL
REMARK 922        TOTAL FREE ENERGY PREDICTED BY IDOCK:   -4.68 KCAL/MOL
REMARK 923 INTER-LIGAND FREE ENERGY PREDICTED BY IDOCK:   -3.80 KCAL/MOL
REMARK 924 INTRA-LIGAND FREE ENERGY PREDICTED BY IDOCK:   -0.88 KCAL/MOL
REMARK 927      BINDING AFFINITY PREDICTED BY RF-SCORE:    0.00 PKD
ROOT
HETATM    1  C   UNL     1      -5.507   3.384  63.678  1.00  0.00    -0.009 C  
HETATM    2  C   UNL     1      -6.747   3.307  64.551  1.00  0.00    -0.036 C  
ENDROOT
BRANCH   2   3
HETATM    3  O   UNL     1      -6.412   3.849  65.834  1.00  0.00    -0.032 OA 
BRANCH   3   4
HETATM    4  C   UNL     1      -6.390   2.934  66.845  1.00  0.00    -0.035 C  
HETATM    5  O   UNL     1      -6.937   1.842  66.820  1.00  0.00    -0.041 OA 
BRANCH   4   6
HETATM    6  C   UNL     1      -5.506   3.444  67.954  1.00  0.00    -0.017 C  
BRANCH   6   7
HETATM    7  C   UNL     1      -6.035   2.990  69.310  1.00  0.00    -0.024 C  
BRANCH   7   8
HETATM    8  C   UNL     1      -6.716   4.125  70.066  1.00  0.00    -0.034 C  
BRANCH   8   9
HETATM    9  C   UNL     1      -8.201   3.817  70.246  1.00  0.00    -0.073 C  
BRANCH   9  10
HETATM   10  C   UNL     1      -9.044   4.513  69.186  1.00  0.00    -0.173 C  
BRANCH  10  11
HETATM   11  C   UNL     1     -10.365   5.010  69.771  1.00  0.00    -0.286 C  
BRANCH  11  12
HETATM   12  C   UNL     1     -10.210   6.436  70.292  1.00  0.00    -0.236 C  
BRANCH  12  13
HETATM   13  C   UNL     1     -10.638   7.477  69.255  1.00  0.00    -0.215 C  
HETATM   14  C   UNL     1      -9.836   8.790  69.378  1.00  0.00    -0.186 C  
HETATM   15  C   UNL     1     -10.412   9.859  68.451  1.00  0.00    -0.239 A  
HETATM   16  C   UNL     1      -8.329   8.561  69.161  1.00  0.00    -0.120 C  
HETATM   17  C   UNL     1      -9.950   9.945  67.120  1.00  0.00    -0.252 A  
HETATM   18  C   UNL     1     -10.411  10.932  66.247  1.00  0.00    -0.304 A  
HETATM   19  C   UNL     1     -11.363  11.848  66.674  1.00  0.00    -0.400 A  
HETATM   20  C   UNL     1     -11.868  11.762  67.968  1.00  0.00    -0.304 A  
HETATM   21  C   UNL     1     -11.406  10.775  68.851  1.00  0.00    -0.284 A  
HETATM   22  I   UNL     1     -12.308  10.771  70.757  1.00  0.00    -0.495 I  
ENDBRANCH  12  13
ENDBRANCH  11  12
ENDBRANCH  10  11
ENDBRANCH   9  10
ENDBRANCH   8   9
ENDBRANCH   7   8
ENDBRANCH   6   7
ENDBRANCH   4   6
ENDBRANCH   3   4
ENDBRANCH   2   3
TORSDOF 10
ENDMDL
MODEL      404
REMARK 921   NORMALIZED FREE ENERGY PREDICTED BY IDOCK:   -2.06 KCAL/MOL
REMARK 922        TOTAL FREE ENERGY PREDICTED BY IDOCK:   -4.67 KCAL/MOL
REMARK 923 INTER-LIGAND FREE ENERGY PREDICTED BY IDOCK:   -2.79 KCAL/MOL
REMARK 924 INTRA-LIGAND FREE ENERGY PREDICTED BY IDOCK:   -1.88 KCAL/MOL
REMARK 927      BINDING AFFINITY PREDICTED BY RF-SCORE:    0.00 PKD
ROOT
HETATM    1  C   UNL     1      -8.122   7.555  71.773  1.00  0.00    -0.107 C  
HETATM    2  C   UNL     1      -6.981   8.555  71.753  1.00  0.00    -0.093 C  
ENDROOT
BRANCH   2   3
HETATM    3  O   UNL     1      -6.486   8.628  70.410  1.00  0.00    -0.034 OA 
BRANCH   3   4
HETATM    4  C   UNL     1      -7.197   9.452  69.589  1.00  0.00    -0.067 C  
HETATM    5  O   UNL     1      -8.077  10.220  69.951  1.00  0.00    -0.157 OA 
BRANCH   4   6
HETATM    6  C   UNL     1      -6.660   9.337  68.186  1.00  0.00    -0.059 C  
BRANCH   6   7
HETATM    7  C   UNL     1      -6.739   7.895  67.700  1.00  0.00    -0.068 C  
BRANCH   7   8
HETATM    8  C   UNL     1      -8.169   7.483  67.368  1.00  0.00    -0.116 C  
BRANCH   8   9
HETATM    9  C   UNL     1      -8.216   6.824  65.990  1.00  0.00    -0.129 C  
BRANCH   9  10
HETATM   10  C   UNL     1      -7.669   5.404  66.036  1.00  0.00    -0.091 C  
BRANCH  10  11
HETATM   11  C   UNL     1      -8.764   4.381  65.736  1.00  0.00    -0.120 C  
BRANCH  11  12
HETATM   12  C   UNL     1      -9.903   4.515  66.741  1.00  0.00    -0.242 C  
BRANCH  12  13
HETATM   13  C   UNL     1      -9.587   3.815  68.065  1.00  0.00    -0.179 C  
HETATM   14  C   UNL     1      -9.459   4.810  69.238  1.00  0.00    -0.221 C  
HETATM   15  C   UNL     1      -8.970   4.096  70.497  1.00  0.00    -0.154 A  
HETATM   16  C   UNL     1     -10.764   5.594  69.466  1.00  0.00    -0.380 C  
HETATM   17  C   UNL     1      -9.908   3.508  71.371  1.00  0.00    -0.214 A  
HETATM   18  C   UNL     1      -9.516   2.883  72.556  1.00  0.00    -0.168 A  
HETATM   19  C   UNL     1      -8.170   2.810  72.890  1.00  0.00    -0.070 A  
HETATM   20  C   UNL     1      -7.218   3.343  72.028  1.00  0.00    -0.050 A  
HETATM   21  C   UNL     1      -7.606   3.976  70.837  1.00  0.00    -0.047 A  
HETATM   22  I   UNL     1      -6.029   4.692  69.635  1.00  0.00    -0.019 I  
ENDBRANCH  12  13
ENDBRANCH  11  12
ENDBRANCH  10  11
ENDBRANCH   9  10
ENDBRANCH   8   9
ENDBRANCH   7   8
ENDBRANCH   6   7
ENDBRANCH   4   6
ENDBRANCH   3   4
ENDBRANCH   2   3
TORSDOF 10
ENDMDL
MODEL      405
REMARK 921   NORMALIZED FREE ENERGY PREDICTED BY IDOCK:   -2.04 KCAL/MOL
REMARK 922        TOTAL FREE ENERGY PREDICTED BY IDOCK:   -4.63 KCAL/MOL
REMARK 923 INTER-LIGAND FREE ENERGY PREDICTED BY IDOCK:   -4.61 KCAL/MOL
REMARK 924 INTRA-LIGAND FREE ENERGY PREDICTED BY IDOCK:   -0.02 KCAL/MOL
REMARK 927      BINDING AFFINITY PREDICTED BY RF-SCORE:    0.00 PKD
ROOT
HETATM    1  C   UNL     1      -9.249  15.448  66.114  1.00  0.00    -0.362 C  
HETATM    2  C   UNL     1     -10.474  14.552  66.134  1.00  0.00    -0.298 C  
ENDROOT
BRANCH   2   3
HETATM    3  O   UNL     1     -10.040  13.224  66.452  1.00  0.00    -0.276 OA 
BRANCH   3   4
HETATM    4  C   UNL     1     -11.009  12.271  66.345  1.00  0.00    -0.287 C  
HETATM    5  O   UNL     1     -11.513  11.892  65.297  1.00  0.00    -0.321 OA 
BRANCH   4   6
HETATM    6  C   UNL     1     -11.289  11.694  67.708  1.00  0.00    -0.356 C  
BRANCH   6   7
HETATM    7  C   UNL     1     -10.317  10.563  68.020  1.00  0.00    -0.212 C  
BRANCH   7   8
HETATM    8  C   UNL     1     -10.519  10.009  69.426  1.00  0.00    -0.252 C  
BRANCH   8   9
HETATM    9  C   UNL     1     -12.010   9.897  69.735  1.00  0.00     0.059 C  
BRANCH   9  10
HETATM   10  C   UNL     1     -12.246   9.334  71.130  1.00  0.00    -0.373 C  
BRANCH  10  11
HETATM   11  C   UNL     1     -12.252   7.806  71.114  1.00  0.00    -0.289 C  
BRANCH  11  12
HETATM   12  C   UNL     1     -10.843   7.274  70.868  1.00  0.00    -0.262 C  
BRANCH  12  13
HETATM   13  C   UNL     1     -10.676   5.835  71.363  1.00  0.00    -0.319 C  
HETATM   14  C   UNL     1     -10.085   5.771  72.787  1.00  0.00    -0.202 C  
HETATM   15  C   UNL     1      -9.768   4.327  73.171  1.00  0.00    -0.159 A  
HETATM   16  C   UNL     1     -10.989   6.477  73.813  1.00  0.00     0.087 C  
HETATM   17  C   UNL     1     -10.767   3.534  73.775  1.00  0.00    -0.304 A  
HETATM   18  C   UNL     1     -10.515   2.224  74.186  1.00  0.00    -0.200 A  
HETATM   19  C   UNL     1      -9.262   1.661  73.985  1.00  0.00    -0.068 A  
HETATM   20  C   UNL     1      -8.269   2.404  73.354  1.00  0.00    -0.062 A  
HETATM   21  C   UNL     1      -8.515   3.722  72.942  1.00  0.00    -0.094 A  
HETATM   22  I   UNL     1      -6.909   4.683  71.971  1.00  0.00    -0.060 I  
ENDBRANCH  12  13
ENDBRANCH  11  12
ENDBRANCH  10  11
ENDBRANCH   9  10
ENDBRANCH   8   9
ENDBRANCH   7   8
ENDBRANCH   6   7
ENDBRANCH   4   6
ENDBRANCH   3   4
ENDBRANCH   2   3
TORSDOF 10
ENDMDL
MODEL      406
REMARK 921   NORMALIZED FREE ENERGY PREDICTED BY IDOCK:   -1.99 KCAL/MOL
REMARK 922        TOTAL FREE ENERGY PREDICTED BY IDOCK:   -4.55 KCAL/MOL
REMARK 923 INTER-LIGAND FREE ENERGY PREDICTED BY IDOCK:   -3.82 KCAL/MOL
REMARK 924 INTRA-LIGAND FREE ENERGY PREDICTED BY IDOCK:   -0.74 KCAL/MOL
REMARK 927      BINDING AFFINITY PREDICTED BY RF-SCORE:    0.00 PKD
ROOT
HETATM    1  C   UNL     1      -9.329  15.566  69.410  1.00  0.00    -0.279 C  
HETATM    2  C   UNL     1      -8.912  14.864  68.130  1.00  0.00    -0.176 C  
ENDROOT
BRANCH   2   3
HETATM    3  O   UNL     1      -9.801  15.289  67.089  1.00  0.00    -0.222 OA 
BRANCH   3   4
HETATM    4  C   UNL     1     -10.862  14.460  66.878  1.00  0.00    -0.301 C  
HETATM    5  O   UNL     1     -12.023  14.714  67.162  1.00  0.00    -0.391 OA 
BRANCH   4   6
HETATM    6  C   UNL     1     -10.389  13.226  66.153  1.00  0.00    -0.290 C  
BRANCH   6   7
HETATM    7  C   UNL     1     -11.459  12.141  66.191  1.00  0.00    -0.429 C  
BRANCH   7   8
HETATM    8  C   UNL     1     -11.115  11.035  67.182  1.00  0.00    -0.333 C  
BRANCH   8   9
HETATM    9  C   UNL     1     -10.411   9.887  66.461  1.00  0.00    -0.259 C  
BRANCH   9  10
HETATM   10  C   UNL     1      -8.946   9.795  66.865  1.00  0.00    -0.154 C  
BRANCH  10  11
HETATM   11  C   UNL     1      -8.069   9.405  65.676  1.00  0.00    -0.112 C  
BRANCH  11  12
HETATM   12  C   UNL     1      -8.332   7.956  65.277  1.00  0.00    -0.140 C  
BRANCH  12  13
HETATM   13  C   UNL     1      -8.398   7.027  66.492  1.00  0.00    -0.121 C  
HETATM   14  C   UNL     1      -7.216   6.036  66.537  1.00  0.00    -0.073 C  
HETATM   15  C   UNL     1      -7.414   5.016  67.657  1.00  0.00    -0.079 A  
HETATM   16  C   UNL     1      -5.863   6.765  66.625  1.00  0.00    -0.022 C  
HETATM   17  C   UNL     1      -6.944   5.311  68.954  1.00  0.00    -0.056 A  
HETATM   18  C   UNL     1      -7.060   4.394  70.001  1.00  0.00    -0.045 A  
HETATM   19  C   UNL     1      -7.667   3.165  69.785  1.00  0.00    -0.044 A  
HETATM   20  C   UNL     1      -8.178   2.862  68.526  1.00  0.00    -0.080 A  
HETATM   21  C   UNL     1      -8.061   3.777  67.469  1.00  0.00    -0.090 A  
HETATM   22  I   UNL     1      -8.923   3.168  65.644  1.00  0.00    -0.119 I  
ENDBRANCH  12  13
ENDBRANCH  11  12
ENDBRANCH  10  11
ENDBRANCH   9  10
ENDBRANCH   8   9
ENDBRANCH   7   8
ENDBRANCH   6   7
ENDBRANCH   4   6
ENDBRANCH   3   4
ENDBRANCH   2   3
TORSDOF 10
ENDMDL
MODEL      407
REMARK 921   NORMALIZED FREE ENERGY PREDICTED BY IDOCK:   -1.99 KCAL/MOL
REMARK 922        TOTAL FREE ENERGY PREDICTED BY IDOCK:   -4.54 KCAL/MOL
REMARK 923 INTER-LIGAND FREE ENERGY PREDICTED BY IDOCK:   -3.08 KCAL/MOL
REMARK 924 INTRA-LIGAND FREE ENERGY PREDICTED BY IDOCK:   -1.47 KCAL/MOL
REMARK 927      BINDING AFFINITY PREDICTED BY RF-SCORE:    0.00 PKD
ROOT
HETATM    1  C   UNL     1      -8.468   8.737  71.827  1.00  0.00    -0.178 C  
HETATM    2  C   UNL     1      -8.479   9.250  70.399  1.00  0.00    -0.206 C  
ENDROOT
BRANCH   2   3
HETATM    3  O   UNL     1      -9.748   9.874  70.167  1.00  0.00    -0.247 OA 
BRANCH   3   4
HETATM    4  C   UNL     1      -9.749  10.801  69.168  1.00  0.00    -0.163 C  
HETATM    5  O   UNL     1     -10.728  11.425  68.786  1.00  0.00    -0.187 OA 
BRANCH   4   6
HETATM    6  C   UNL     1      -8.338  11.001  68.678  1.00  0.00    -0.153 C  
BRANCH   6   7
HETATM    7  C   UNL     1      -8.339  11.499  67.237  1.00  0.00    -0.154 C  
BRANCH   7   8
HETATM    8  C   UNL     1      -7.543  10.582  66.316  1.00  0.00    -0.133 C  
BRANCH   8   9
HETATM    9  C   UNL     1      -6.485   9.826  67.118  1.00  0.00    -0.069 C  
BRANCH   9  10
HETATM   10  C   UNL     1      -5.395   9.270  66.211  1.00  0.00    -0.040 C  
BRANCH  10  11
HETATM   11  C   UNL     1      -5.984   8.344  65.147  1.00  0.00    -0.045 C  
BRANCH  11  12
HETATM   12  C   UNL     1      -5.553   6.903  65.403  1.00  0.00    -0.031 C  
BRANCH  12  13
HETATM   13  C   UNL     1      -6.244   6.304  66.630  1.00  0.00    -0.037 C  
HETATM   14  C   UNL     1      -7.427   5.389  66.249  1.00  0.00    -0.087 C  
HETATM   15  C   UNL     1      -8.195   4.958  67.497  1.00  0.00    -0.105 A  
HETATM   16  C   UNL     1      -6.971   4.197  65.387  1.00  0.00    -0.058 C  
HETATM   17  C   UNL     1      -7.794   3.799  68.193  1.00  0.00    -0.072 A  
HETATM   18  C   UNL     1      -8.490   3.338  69.312  1.00  0.00    -0.097 A  
HETATM   19  C   UNL     1      -9.596   4.035  69.779  1.00  0.00    -0.280 A  
HETATM   20  C   UNL     1      -9.991   5.205  69.137  1.00  0.00    -0.273 A  
HETATM   21  C   UNL     1      -9.298   5.672  68.010  1.00  0.00    -0.108 A  
HETATM   22  I   UNL     1     -10.013   7.478  67.190  1.00  0.00    -0.356 I  
ENDBRANCH  12  13
ENDBRANCH  11  12
ENDBRANCH  10  11
ENDBRANCH   9  10
ENDBRANCH   8   9
ENDBRANCH   7   8
ENDBRANCH   6   7
ENDBRANCH   4   6
ENDBRANCH   3   4
ENDBRANCH   2   3
TORSDOF 10
ENDMDL
MODEL      408
REMARK 921   NORMALIZED FREE ENERGY PREDICTED BY IDOCK:   -1.94 KCAL/MOL
REMARK 922        TOTAL FREE ENERGY PREDICTED BY IDOCK:   -4.48 KCAL/MOL
REMARK 923 INTER-LIGAND FREE ENERGY PREDICTED BY IDOCK:   -4.13 KCAL/MOL
REMARK 924 INTRA-LIGAND FREE ENERGY PREDICTED BY IDOCK:   -0.35 KCAL/MOL
REMARK 927      BINDING AFFINITY PREDICTED BY RF-SCORE:    0.00 PKD
ROOT
HETATM    1  C   UNL     1     -12.622  11.768  63.643  1.00  0.00    -0.458 C  
HETATM    2  C   UNL     1     -11.516  12.762  63.341  1.00  0.00    -0.394 C  
ENDROOT
BRANCH   2   3
HETATM    3  O   UNL     1     -10.954  13.184  64.590  1.00  0.00    -0.320 OA 
BRANCH   3   4
HETATM    4  C   UNL     1     -11.722  14.071  65.284  1.00  0.00    -0.346 C  
HETATM    5  O   UNL     1     -12.753  14.583  64.874  1.00  0.00    -0.571 OA 
BRANCH   4   6
HETATM    6  C   UNL     1     -11.149  14.245  66.667  1.00  0.00    -0.321 C  
BRANCH   6   7
HETATM    7  C   UNL     1      -9.785  14.921  66.599  1.00  0.00    -0.276 C  
BRANCH   7   8
HETATM    8  C   UNL     1      -8.659  13.974  66.998  1.00  0.00    -0.193 C  
BRANCH   8   9
HETATM    9  C   UNL     1      -9.104  13.095  68.165  1.00  0.00    -0.200 C  
BRANCH   9  10
HETATM   10  C   UNL     1      -8.187  11.891  68.332  1.00  0.00    -0.160 C  
BRANCH  10  11
HETATM   11  C   UNL     1      -8.777  10.881  69.315  1.00  0.00     0.013 C  
BRANCH  11  12
HETATM   12  C   UNL     1      -8.265   9.478  69.004  1.00  0.00    -0.113 C  
BRANCH  12  13
HETATM   13  C   UNL     1      -8.401   8.536  70.203  1.00  0.00    -0.123 C  
HETATM   14  C   UNL     1      -7.035   8.011  70.694  1.00  0.00    -0.041 C  
HETATM   15  C   UNL     1      -7.227   6.942  71.768  1.00  0.00    -0.079 A  
HETATM   16  C   UNL     1      -6.114   9.157  71.150  1.00  0.00    -0.067 C  
HETATM   17  C   UNL     1      -7.330   7.328  73.121  1.00  0.00    -0.081 A  
HETATM   18  C   UNL     1      -7.460   6.387  74.144  1.00  0.00    -0.088 A  
HETATM   19  C   UNL     1      -7.512   5.034  73.841  1.00  0.00    -0.087 A  
HETATM   20  C   UNL     1      -7.454   4.624  72.512  1.00  0.00    -0.084 A  
HETATM   21  C   UNL     1      -7.320   5.564  71.480  1.00  0.00    -0.086 A  
HETATM   22  I   UNL     1      -7.286   4.769  69.528  1.00  0.00    -0.056 I  
ENDBRANCH  12  13
ENDBRANCH  11  12
ENDBRANCH  10  11
ENDBRANCH   9  10
ENDBRANCH   8   9
ENDBRANCH   7   8
ENDBRANCH   6   7
ENDBRANCH   4   6
ENDBRANCH   3   4
ENDBRANCH   2   3
TORSDOF 10
ENDMDL
MODEL      409
REMARK 921   NORMALIZED FREE ENERGY PREDICTED BY IDOCK:   -1.92 KCAL/MOL
REMARK 922        TOTAL FREE ENERGY PREDICTED BY IDOCK:   -4.45 KCAL/MOL
REMARK 923 INTER-LIGAND FREE ENERGY PREDICTED BY IDOCK:   -3.93 KCAL/MOL
REMARK 924 INTRA-LIGAND FREE ENERGY PREDICTED BY IDOCK:   -0.51 KCAL/MOL
REMARK 927      BINDING AFFINITY PREDICTED BY RF-SCORE:    0.00 PKD
ROOT
HETATM    1  C   UNL     1      -9.810  16.255  69.151  1.00  0.00    -0.258 C  
HETATM    2  C   UNL     1      -9.664  15.319  67.965  1.00  0.00    -0.211 C  
ENDROOT
BRANCH   2   3
HETATM    3  O   UNL     1     -10.913  14.641  67.786  1.00  0.00    -0.271 OA 
BRANCH   3   4
HETATM    4  C   UNL     1     -11.042  13.492  68.508  1.00  0.00    -0.272 C  
HETATM    5  O   UNL     1     -11.493  13.418  69.642  1.00  0.00    -0.261 OA 
BRANCH   4   6
HETATM    6  C   UNL     1     -10.631  12.321  67.653  1.00  0.00    -0.238 C  
BRANCH   6   7
HETATM    7  C   UNL     1     -10.449  12.756  66.203  1.00  0.00    -0.284 C  
BRANCH   7   8
HETATM    8  C   UNL     1      -9.807  11.664  65.356  1.00  0.00    -0.268 C  
BRANCH   8   9
HETATM    9  C   UNL     1      -9.137  10.629  66.258  1.00  0.00    -0.186 C  
BRANCH   9  10
HETATM   10  C   UNL     1      -9.597   9.218  65.918  1.00  0.00    -0.345 C  
BRANCH  10  11
HETATM   11  C   UNL     1     -10.646   8.725  66.915  1.00  0.00    -0.263 C  
BRANCH  11  12
HETATM   12  C   UNL     1      -9.980   8.321  68.226  1.00  0.00    -0.217 C  
BRANCH  12  13
HETATM   13  C   UNL     1      -8.811   7.357  68.006  1.00  0.00    -0.126 C  
HETATM   14  C   UNL     1      -9.160   5.910  68.414  1.00  0.00    -0.115 C  
HETATM   15  C   UNL     1      -7.919   5.021  68.349  1.00  0.00    -0.086 A  
HETATM   16  C   UNL     1     -10.337   5.354  67.594  1.00  0.00    -0.235 C  
HETATM   17  C   UNL     1      -7.589   4.379  67.137  1.00  0.00    -0.085 A  
HETATM   18  C   UNL     1      -6.492   3.521  67.038  1.00  0.00    -0.037 A  
HETATM   19  C   UNL     1      -5.681   3.298  68.143  1.00  0.00    -0.019 A  
HETATM   20  C   UNL     1      -5.957   3.950  69.340  1.00  0.00    -0.023 A  
HETATM   21  C   UNL     1      -7.060   4.811  69.448  1.00  0.00    -0.051 A  
HETATM   22  I   UNL     1      -7.304   5.741  71.324  1.00  0.00    -0.083 I  
ENDBRANCH  12  13
ENDBRANCH  11  12
ENDBRANCH  10  11
ENDBRANCH   9  10
ENDBRANCH   8   9
ENDBRANCH   7   8
ENDBRANCH   6   7
ENDBRANCH   4   6
ENDBRANCH   3   4
ENDBRANCH   2   3
TORSDOF 10
ENDMDL
MODEL      410
REMARK 921   NORMALIZED FREE ENERGY PREDICTED BY IDOCK:   -1.83 KCAL/MOL
REMARK 922        TOTAL FREE ENERGY PREDICTED BY IDOCK:   -4.30 KCAL/MOL
REMARK 923 INTER-LIGAND FREE ENERGY PREDICTED BY IDOCK:   -3.48 KCAL/MOL
REMARK 924 INTRA-LIGAND FREE ENERGY PREDICTED BY IDOCK:   -0.81 KCAL/MOL
REMARK 927      BINDING AFFINITY PREDICTED BY RF-SCORE:    0.00 PKD
ROOT
HETATM    1  C   UNL     1     -13.886   8.712  71.625  1.00  0.00    -0.440 C  
HETATM    2  C   UNL     1     -12.575   8.094  72.073  1.00  0.00    -0.330 C  
ENDROOT
BRANCH   2   3
HETATM    3  O   UNL     1     -11.514   8.952  71.634  1.00  0.00    -0.290 OA 
BRANCH   3   4
HETATM    4  C   UNL     1     -11.211   8.843  70.309  1.00  0.00    -0.197 C  
HETATM    5  O   UNL     1     -10.992   7.794  69.720  1.00  0.00    -0.237 OA 
BRANCH   4   6
HETATM    6  C   UNL     1     -11.283  10.206  69.671  1.00  0.00    -0.310 C  
BRANCH   6   7
HETATM    7  C   UNL     1      -9.971  10.537  68.969  1.00  0.00    -0.223 C  
BRANCH   7   8
HETATM    8  C   UNL     1      -9.881  12.012  68.594  1.00  0.00    -0.126 C  
BRANCH   8   9
HETATM    9  C   UNL     1      -9.635  12.156  67.093  1.00  0.00    -0.195 C  
BRANCH   9  10
HETATM   10  C   UNL     1      -8.595  11.157  66.604  1.00  0.00    -0.165 C  
BRANCH  10  11
HETATM   11  C   UNL     1      -9.051  10.473  65.316  1.00  0.00    -0.220 C  
BRANCH  11  12
HETATM   12  C   UNL     1      -7.888   9.722  64.675  1.00  0.00    -0.136 C  
BRANCH  12  13
HETATM   13  C   UNL     1      -7.494   8.479  65.477  1.00  0.00    -0.085 C  
HETATM   14  C   UNL     1      -7.802   7.170  64.718  1.00  0.00    -0.126 C  
HETATM   15  C   UNL     1      -7.562   5.960  65.619  1.00  0.00    -0.084 A  
HETATM   16  C   UNL     1      -7.032   7.087  63.388  1.00  0.00    -0.057 C  
HETATM   17  C   UNL     1      -6.277   5.380  65.675  1.00  0.00    -0.034 A  
HETATM   18  C   UNL     1      -6.017   4.246  66.447  1.00  0.00    -0.027 A  
HETATM   19  C   UNL     1      -7.031   3.672  67.201  1.00  0.00    -0.058 A  
HETATM   20  C   UNL     1      -8.299   4.246  67.199  1.00  0.00    -0.100 A  
HETATM   21  C   UNL     1      -8.567   5.383  66.423  1.00  0.00    -0.119 A  
HETATM   22  I   UNL     1     -10.530   6.138  66.570  1.00  0.00     0.078 I  
ENDBRANCH  12  13
ENDBRANCH  11  12
ENDBRANCH  10  11
ENDBRANCH   9  10
ENDBRANCH   8   9
ENDBRANCH   7   8
ENDBRANCH   6   7
ENDBRANCH   4   6
ENDBRANCH   3   4
ENDBRANCH   2   3
TORSDOF 10
ENDMDL
MODEL      411
REMARK 921   NORMALIZED FREE ENERGY PREDICTED BY IDOCK:   -1.82 KCAL/MOL
REMARK 922        TOTAL FREE ENERGY PREDICTED BY IDOCK:   -4.28 KCAL/MOL
REMARK 923 INTER-LIGAND FREE ENERGY PREDICTED BY IDOCK:   -3.39 KCAL/MOL
REMARK 924 INTRA-LIGAND FREE ENERGY PREDICTED BY IDOCK:   -0.89 KCAL/MOL
REMARK 927      BINDING AFFINITY PREDICTED BY RF-SCORE:    0.00 PKD
ROOT
HETATM    1  C   UNL     1      -5.917   6.373  66.046  1.00  0.00    -0.025 C  
HETATM    2  C   UNL     1      -5.847   7.870  65.807  1.00  0.00    -0.038 C  
ENDROOT
BRANCH   2   3
HETATM    3  O   UNL     1      -6.921   8.480  66.532  1.00  0.00    -0.073 OA 
BRANCH   3   4
HETATM    4  C   UNL     1      -8.073   8.628  65.818  1.00  0.00    -0.114 C  
HETATM    5  O   UNL     1      -9.048   7.895  65.891  1.00  0.00    -0.161 OA 
BRANCH   4   6
HETATM    6  C   UNL     1      -7.989   9.891  65.000  1.00  0.00    -0.137 C  
BRANCH   6   7
HETATM    7  C   UNL     1      -8.639  11.053  65.741  1.00  0.00    -0.151 C  
BRANCH   7   8
HETATM    8  C   UNL     1      -7.618  11.881  66.511  1.00  0.00     0.133 C  
BRANCH   8   9
HETATM    9  C   UNL     1      -8.068  12.053  67.960  1.00  0.00    -0.153 C  
BRANCH   9  10
HETATM   10  C   UNL     1      -8.373  10.708  68.608  1.00  0.00    -0.137 C  
BRANCH  10  11
HETATM   11  C   UNL     1      -9.839  10.621  69.032  1.00  0.00    -0.218 C  
BRANCH  11  12
HETATM   12  C   UNL     1     -10.419   9.262  68.655  1.00  0.00    -0.236 C  
BRANCH  12  13
HETATM   13  C   UNL     1     -10.120   8.195  69.711  1.00  0.00    -0.197 C  
HETATM   14  C   UNL     1     -10.096   8.777  71.141  1.00  0.00    -0.317 C  
HETATM   15  C   UNL     1      -9.620   7.723  72.140  1.00  0.00    -0.230 A  
HETATM   16  C   UNL     1     -11.451   9.396  71.527  1.00  0.00    -0.467 C  
HETATM   17  C   UNL     1     -10.560   6.855  72.733  1.00  0.00    -0.270 A  
HETATM   18  C   UNL     1     -10.183   5.906  73.685  1.00  0.00    -0.233 A  
HETATM   19  C   UNL     1      -8.850   5.785  74.056  1.00  0.00    -0.123 A  
HETATM   20  C   UNL     1      -7.894   6.600  73.457  1.00  0.00    -0.095 A  
HETATM   21  C   UNL     1      -8.267   7.558  72.503  1.00  0.00    -0.108 A  
HETATM   22  I   UNL     1      -6.684   8.678  71.675  1.00  0.00    -0.038 I  
ENDBRANCH  12  13
ENDBRANCH  11  12
ENDBRANCH  10  11
ENDBRANCH   9  10
ENDBRANCH   8   9
ENDBRANCH   7   8
ENDBRANCH   6   7
ENDBRANCH   4   6
ENDBRANCH   3   4
ENDBRANCH   2   3
TORSDOF 10
ENDMDL
MODEL      412
REMARK 921   NORMALIZED FREE ENERGY PREDICTED BY IDOCK:   -1.72 KCAL/MOL
REMARK 922        TOTAL FREE ENERGY PREDICTED BY IDOCK:   -4.13 KCAL/MOL
REMARK 923 INTER-LIGAND FREE ENERGY PREDICTED BY IDOCK:   -3.83 KCAL/MOL
REMARK 924 INTRA-LIGAND FREE ENERGY PREDICTED BY IDOCK:   -0.29 KCAL/MOL
REMARK 927      BINDING AFFINITY PREDICTED BY RF-SCORE:    0.00 PKD
ROOT
HETATM    1  C   UNL     1      -9.353  19.847  66.238  1.00  0.00    -0.474 C  
HETATM    2  C   UNL     1     -10.188  19.669  67.492  1.00  0.00    -0.432 C  
ENDROOT
BRANCH   2   3
HETATM    3  O   UNL     1     -10.364  18.263  67.705  1.00  0.00    -0.364 OA 
BRANCH   3   4
HETATM    4  C   UNL     1      -9.225  17.596  68.045  1.00  0.00    -0.271 C  
HETATM    5  O   UNL     1      -8.453  17.926  68.934  1.00  0.00    -0.238 OA 
BRANCH   4   6
HETATM    6  C   UNL     1      -9.120  16.342  67.218  1.00  0.00    -0.214 C  
BRANCH   6   7
HETATM    7  C   UNL     1     -10.429  16.075  66.483  1.00  0.00    -0.303 C  
BRANCH   7   8
HETATM    8  C   UNL     1     -10.774  14.591  66.452  1.00  0.00    -0.309 C  
BRANCH   8   9
HETATM    9  C   UNL     1      -9.683  13.786  67.156  1.00  0.00    -0.244 C  
BRANCH   9  10
HETATM   10  C   UNL     1      -8.861  12.978  66.161  1.00  0.00     0.294 C  
BRANCH  10  11
HETATM   11  C   UNL     1      -9.668  11.808  65.601  1.00  0.00    -0.256 C  
BRANCH  11  12
HETATM   12  C   UNL     1      -8.814  10.989  64.639  1.00  0.00    -0.022 C  
BRANCH  12  13
HETATM   13  C   UNL     1      -8.275   9.713  65.290  1.00  0.00    -0.131 C  
HETATM   14  C   UNL     1      -9.036   9.347  66.582  1.00  0.00    -0.181 C  
HETATM   15  C   UNL     1      -8.357   8.178  67.292  1.00  0.00    -0.121 A  
HETATM   16  C   UNL     1     -10.530   9.095  66.312  1.00  0.00    -0.035 C  
HETATM   17  C   UNL     1      -8.717   6.857  66.954  1.00  0.00    -0.118 A  
HETATM   18  C   UNL     1      -8.159   5.755  67.605  1.00  0.00    -0.102 A  
HETATM   19  C   UNL     1      -7.208   5.944  68.599  1.00  0.00    -0.083 A  
HETATM   20  C   UNL     1      -6.801   7.234  68.925  1.00  0.00    -0.072 A  
HETATM   21  C   UNL     1      -7.361   8.345  68.277  1.00  0.00    -0.095 A  
HETATM   22  I   UNL     1      -6.601  10.220  68.872  1.00  0.00    -0.062 I  
ENDBRANCH  12  13
ENDBRANCH  11  12
ENDBRANCH  10  11
ENDBRANCH   9  10
ENDBRANCH   8   9
ENDBRANCH   7   8
ENDBRANCH   6   7
ENDBRANCH   4   6
ENDBRANCH   3   4
ENDBRANCH   2   3
TORSDOF 10
ENDMDL
MODEL      413
REMARK 921   NORMALIZED FREE ENERGY PREDICTED BY IDOCK:   -1.71 KCAL/MOL
REMARK 922        TOTAL FREE ENERGY PREDICTED BY IDOCK:   -4.11 KCAL/MOL
REMARK 923 INTER-LIGAND FREE ENERGY PREDICTED BY IDOCK:   -3.30 KCAL/MOL
REMARK 924 INTRA-LIGAND FREE ENERGY PREDICTED BY IDOCK:   -0.81 KCAL/MOL
REMARK 927      BINDING AFFINITY PREDICTED BY RF-SCORE:    0.00 PKD
ROOT
HETATM    1  C   UNL     1      -6.661   5.852  63.337  1.00  0.00    -0.036 C  
HETATM    2  C   UNL     1      -7.941   5.299  62.738  1.00  0.00    -0.087 C  
ENDROOT
BRANCH   2   3
HETATM    3  O   UNL     1      -8.824   4.970  63.817  1.00  0.00    -0.124 OA 
BRANCH   3   4
HETATM    4  C   UNL     1      -8.843   3.648  64.150  1.00  0.00    -0.106 C  
HETATM    5  O   UNL     1      -8.641   2.723  63.377  1.00  0.00    -0.085 OA 
BRANCH   4   6
HETATM    6  C   UNL     1      -9.056   3.514  65.636  1.00  0.00    -0.149 C  
BRANCH   6   7
HETATM    7  C   UNL     1      -8.074   4.397  66.398  1.00  0.00    -0.102 C  
BRANCH   7   8
HETATM    8  C   UNL     1      -8.777   5.280  67.422  1.00  0.00    -0.106 C  
BRANCH   8   9
HETATM    9  C   UNL     1      -9.396   6.493  66.729  1.00  0.00    -0.179 C  
BRANCH   9  10
HETATM   10  C   UNL     1      -8.340   7.540  66.398  1.00  0.00    -0.126 C  
BRANCH  10  11
HETATM   11  C   UNL     1      -8.220   8.574  67.517  1.00  0.00    -0.117 C  
BRANCH  11  12
HETATM   12  C   UNL     1      -6.948   9.397  67.341  1.00  0.00    -0.085 C  
BRANCH  12  13
HETATM   13  C   UNL     1      -7.251  10.856  66.988  1.00  0.00    -0.114 C  
HETATM   14  C   UNL     1      -8.558  11.357  67.638  1.00  0.00    -0.130 C  
HETATM   15  C   UNL     1      -8.915  12.749  67.120  1.00  0.00    -0.214 A  
HETATM   16  C   UNL     1      -8.494  11.290  69.175  1.00  0.00     0.088 C  
HETATM   17  C   UNL     1      -8.399  13.886  67.775  1.00  0.00    -0.174 A  
HETATM   18  C   UNL     1      -8.731  15.180  67.369  1.00  0.00    -0.205 A  
HETATM   19  C   UNL     1      -9.573  15.373  66.282  1.00  0.00    -0.342 A  
HETATM   20  C   UNL     1     -10.065  14.270  65.590  1.00  0.00    -0.364 A  
HETATM   21  C   UNL     1      -9.738  12.968  65.996  1.00  0.00    -0.216 A  
HETATM   22  I   UNL     1     -10.541  11.420  64.810  1.00  0.00    -0.324 I  
ENDBRANCH  12  13
ENDBRANCH  11  12
ENDBRANCH  10  11
ENDBRANCH   9  10
ENDBRANCH   8   9
ENDBRANCH   7   8
ENDBRANCH   6   7
ENDBRANCH   4   6
ENDBRANCH   3   4
ENDBRANCH   2   3
TORSDOF 10
ENDMDL
MODEL      414
REMARK 921   NORMALIZED FREE ENERGY PREDICTED BY IDOCK:   -1.55 KCAL/MOL
REMARK 922        TOTAL FREE ENERGY PREDICTED BY IDOCK:   -3.85 KCAL/MOL
REMARK 923 INTER-LIGAND FREE ENERGY PREDICTED BY IDOCK:   -3.98 KCAL/MOL
REMARK 924 INTRA-LIGAND FREE ENERGY PREDICTED BY IDOCK:    0.13 KCAL/MOL
REMARK 927      BINDING AFFINITY PREDICTED BY RF-SCORE:    0.00 PKD
ROOT
HETATM    1  C   UNL     1     -13.481   7.704  71.571  1.00  0.00    -0.394 C  
HETATM    2  C   UNL     1     -12.102   7.899  72.175  1.00  0.00    -0.326 C  
ENDROOT
BRANCH   2   3
HETATM    3  O   UNL     1     -11.720   9.263  71.964  1.00  0.00    -0.356 OA 
BRANCH   3   4
HETATM    4  C   UNL     1     -11.038   9.487  70.805  1.00  0.00    -0.323 C  
HETATM    5  O   UNL     1      -9.963   8.985  70.512  1.00  0.00    -0.187 OA 
BRANCH   4   6
HETATM    6  C   UNL     1     -11.863  10.373  69.908  1.00  0.00    -0.314 C  
BRANCH   6   7
HETATM    7  C   UNL     1     -10.961  11.246  69.043  1.00  0.00    -0.288 C  
BRANCH   7   8
HETATM    8  C   UNL     1     -11.763  12.200  68.165  1.00  0.00    -0.402 C  
BRANCH   8   9
HETATM    9  C   UNL     1     -11.005  12.481  66.870  1.00  0.00    -0.296 C  
BRANCH   9  10
HETATM   10  C   UNL     1     -11.655  13.609  66.081  1.00  0.00    -0.369 C  
BRANCH  10  11
HETATM   11  C   UNL     1     -10.800  14.875  66.121  1.00  0.00    -0.327 C  
BRANCH  11  12
HETATM   12  C   UNL     1     -11.031  15.628  67.427  1.00  0.00    -0.293 C  
BRANCH  12  13
HETATM   13  C   UNL     1     -10.280  16.961  67.464  1.00  0.00    -0.295 C  
HETATM   14  C   UNL     1      -9.711  17.352  66.083  1.00  0.00    -0.235 C  
HETATM   15  C   UNL     1      -8.821  18.588  66.200  1.00  0.00    -0.128 A  
HETATM   16  C   UNL     1     -10.823  17.514  65.032  1.00  0.00     0.401 C  
HETATM   17  C   UNL     1      -9.398  19.871  66.093  1.00  0.00    -0.442 A  
HETATM   18  C   UNL     1      -8.623  21.031  66.147  1.00  0.00     0.994 A  
HETATM   19  C   UNL     1      -7.250  20.941  66.332  1.00  0.00    -0.084 A  
HETATM   20  C   UNL     1      -6.657  19.691  66.483  1.00  0.00    -0.191 A  
HETATM   21  C   UNL     1      -7.430  18.522  66.426  1.00  0.00    -0.251 A  
HETATM   22  I   UNL     1      -6.372  16.720  66.711  1.00  0.00     0.122 I  
ENDBRANCH  12  13
ENDBRANCH  11  12
ENDBRANCH  10  11
ENDBRANCH   9  10
ENDBRANCH   8   9
ENDBRANCH   7   8
ENDBRANCH   6   7
ENDBRANCH   4   6
ENDBRANCH   3   4
ENDBRANCH   2   3
TORSDOF 10
ENDMDL
MODEL      415
REMARK 921   NORMALIZED FREE ENERGY PREDICTED BY IDOCK:   -1.42 KCAL/MOL
REMARK 922        TOTAL FREE ENERGY PREDICTED BY IDOCK:   -3.65 KCAL/MOL
REMARK 923 INTER-LIGAND FREE ENERGY PREDICTED BY IDOCK:   -3.31 KCAL/MOL
REMARK 924 INTRA-LIGAND FREE ENERGY PREDICTED BY IDOCK:   -0.34 KCAL/MOL
REMARK 927      BINDING AFFINITY PREDICTED BY RF-SCORE:    0.00 PKD
ROOT
HETATM    1  C   UNL     1      -8.111   7.983  72.055  1.00  0.00    -0.164 C  
HETATM    2  C   UNL     1      -6.948   8.952  72.165  1.00  0.00     0.089 C  
ENDROOT
BRANCH   2   3
HETATM    3  O   UNL     1      -6.313   9.020  70.883  1.00  0.00    -0.046 OA 
BRANCH   3   4
HETATM    4  C   UNL     1      -7.064   9.608  69.910  1.00  0.00    -0.095 C  
HETATM    5  O   UNL     1      -8.144  10.154  70.085  1.00  0.00    -0.146 OA 
BRANCH   4   6
HETATM    6  C   UNL     1      -6.310   9.562  68.606  1.00  0.00    -0.048 C  
BRANCH   6   7
HETATM    7  C   UNL     1      -6.320   8.150  68.032  1.00  0.00    -0.055 C  
BRANCH   7   8
HETATM    8  C   UNL     1      -7.629   7.834  67.319  1.00  0.00    -0.104 C  
BRANCH   8   9
HETATM    9  C   UNL     1      -7.420   6.695  66.323  1.00  0.00    -0.081 C  
BRANCH   9  10
HETATM   10  C   UNL     1      -7.894   5.365  66.894  1.00  0.00    -0.101 C  
BRANCH  10  11
HETATM   11  C   UNL     1      -8.975   4.741  66.014  1.00  0.00    -0.126 C  
BRANCH  11  12
HETATM   12  C   UNL     1     -10.262   5.555  66.100  1.00  0.00    -0.136 C  
BRANCH  12  13
HETATM   13  C   UNL     1     -10.905   5.472  67.487  1.00  0.00    -0.100 C  
HETATM   14  C   UNL     1     -10.357   6.546  68.452  1.00  0.00    -0.220 C  
HETATM   15  C   UNL     1     -10.887   6.317  69.866  1.00  0.00    -0.399 A  
HETATM   16  C   UNL     1     -10.630   7.970  67.935  1.00  0.00    -0.210 C  
HETATM   17  C   UNL     1     -12.115   6.897  70.249  1.00  0.00    -0.182 A  
HETATM   18  C   UNL     1     -12.621   6.755  71.543  1.00  0.00    -0.371 A  
HETATM   19  C   UNL     1     -11.922   6.011  72.484  1.00  0.00    -0.176 A  
HETATM   20  C   UNL     1     -10.729   5.392  72.124  1.00  0.00    -0.286 A  
HETATM   21  C   UNL     1     -10.214   5.533  70.827  1.00  0.00    -0.235 A  
HETATM   22  I   UNL     1      -8.418   4.497  70.446  1.00  0.00    -0.120 I  
ENDBRANCH  12  13
ENDBRANCH  11  12
ENDBRANCH  10  11
ENDBRANCH   9  10
ENDBRANCH   8   9
ENDBRANCH   7   8
ENDBRANCH   6   7
ENDBRANCH   4   6
ENDBRANCH   3   4
ENDBRANCH   2   3
TORSDOF 10
ENDMDL
MODEL      416
REMARK 921   NORMALIZED FREE ENERGY PREDICTED BY IDOCK:   -1.35 KCAL/MOL
REMARK 922        TOTAL FREE ENERGY PREDICTED BY IDOCK:   -3.54 KCAL/MOL
REMARK 923 INTER-LIGAND FREE ENERGY PREDICTED BY IDOCK:   -3.23 KCAL/MOL
REMARK 924 INTRA-LIGAND FREE ENERGY PREDICTED BY IDOCK:   -0.30 KCAL/MOL
REMARK 927      BINDING AFFINITY PREDICTED BY RF-SCORE:    0.00 PKD
ROOT
HETATM    1  C   UNL     1      -8.584   6.250  65.333  1.00  0.00    -0.097 C  
HETATM    2  C   UNL     1      -8.262   7.244  66.434  1.00  0.00    -0.120 C  
ENDROOT
BRANCH   2   3
HETATM    3  O   UNL     1      -8.155   8.541  65.835  1.00  0.00    -0.106 OA 
BRANCH   3   4
HETATM    4  C   UNL     1      -7.487   9.459  66.589  1.00  0.00    -0.093 C  
HETATM    5  O   UNL     1      -6.288   9.437  66.828  1.00  0.00    -0.064 OA 
BRANCH   4   6
HETATM    6  C   UNL     1      -8.440  10.551  66.999  1.00  0.00    -0.128 C  
BRANCH   6   7
HETATM    7  C   UNL     1      -9.782   9.961  67.415  1.00  0.00    -0.199 C  
BRANCH   7   8
HETATM    8  C   UNL     1     -10.954  10.736  66.823  1.00  0.00    -0.214 C  
BRANCH   8   9
HETATM    9  C   UNL     1     -11.695  11.487  67.927  1.00  0.00    -0.317 C  
BRANCH   9  10
HETATM   10  C   UNL     1     -10.726  12.081  68.941  1.00  0.00    -0.222 C  
BRANCH  10  11
HETATM   11  C   UNL     1     -10.437  13.549  68.633  1.00  0.00    -0.242 C  
BRANCH  11  12
HETATM   12  C   UNL     1      -8.932  13.791  68.572  1.00  0.00    -0.120 C  
BRANCH  12  13
HETATM   13  C   UNL     1      -8.593  15.182  68.031  1.00  0.00    -0.156 C  
HETATM   14  C   UNL     1      -9.654  16.235  68.417  1.00  0.00    -0.216 C  
HETATM   15  C   UNL     1      -9.374  17.561  67.711  1.00  0.00    -0.257 A  
HETATM   16  C   UNL     1      -9.780  16.386  69.943  1.00  0.00     0.329 C  
HETATM   17  C   UNL     1      -8.520  18.504  68.320  1.00  0.00    -0.341 A  
HETATM   18  C   UNL     1      -8.268  19.748  67.739  1.00  0.00    -0.340 A  
HETATM   19  C   UNL     1      -8.847  20.076  66.521  1.00  0.00    -0.414 A  
HETATM   20  C   UNL     1      -9.662  19.150  65.876  1.00  0.00    -0.107 A  
HETATM   21  C   UNL     1      -9.922  17.900  66.457  1.00  0.00    -0.357 A  
HETATM   22  I   UNL     1     -11.146  16.611  65.323  1.00  0.00     0.547 I  
ENDBRANCH  12  13
ENDBRANCH  11  12
ENDBRANCH  10  11
ENDBRANCH   9  10
ENDBRANCH   8   9
ENDBRANCH   7   8
ENDBRANCH   6   7
ENDBRANCH   4   6
ENDBRANCH   3   4
ENDBRANCH   2   3
TORSDOF 10
ENDMDL
MODEL      417
REMARK 921   NORMALIZED FREE ENERGY PREDICTED BY IDOCK:   -0.53 KCAL/MOL
REMARK 922        TOTAL FREE ENERGY PREDICTED BY IDOCK:   -2.23 KCAL/MOL
REMARK 923 INTER-LIGAND FREE ENERGY PREDICTED BY IDOCK:   -3.75 KCAL/MOL
REMARK 924 INTRA-LIGAND FREE ENERGY PREDICTED BY IDOCK:    1.51 KCAL/MOL
REMARK 927      BINDING AFFINITY PREDICTED BY RF-SCORE:    0.00 PKD
ROOT
HETATM    1  C   UNL     1      -8.986  16.357  69.819  1.00  0.00     0.556 C  
HETATM    2  C   UNL     1      -8.788  15.722  68.455  1.00  0.00    -0.185 C  
ENDROOT
BRANCH   2   3
HETATM    3  O   UNL     1     -10.062  15.241  68.007  1.00  0.00    -0.226 OA 
BRANCH   3   4
HETATM    4  C   UNL     1     -10.439  14.049  68.550  1.00  0.00    -0.249 C  
HETATM    5  O   UNL     1     -11.323  13.901  69.381  1.00  0.00    -0.256 OA 
BRANCH   4   6
HETATM    6  C   UNL     1      -9.660  12.938  67.895  1.00  0.00    -0.215 C  
BRANCH   6   7
HETATM    7  C   UNL     1      -8.288  13.435  67.454  1.00  0.00    -0.193 C  
BRANCH   7   8
HETATM    8  C   UNL     1      -7.448  12.321  66.841  1.00  0.00     0.013 C  
BRANCH   8   9
HETATM    9  C   UNL     1      -7.842  10.975  67.447  1.00  0.00    -0.118 C  
BRANCH   9  10
HETATM   10  C   UNL     1      -7.755   9.857  66.416  1.00  0.00    -0.104 C  
BRANCH  10  11
HETATM   11  C   UNL     1      -9.146   9.406  65.974  1.00  0.00    -0.228 C  
BRANCH  11  12
HETATM   12  C   UNL     1     -10.177   9.744  67.046  1.00  0.00    -0.292 C  
BRANCH  12  13
HETATM   13  C   UNL     1      -9.640   9.503  68.459  1.00  0.00    -0.150 C  
HETATM   14  C   UNL     1     -10.150   8.176  69.060  1.00  0.00    -0.211 C  
HETATM   15  C   UNL     1      -9.739   8.060  70.527  1.00  0.00    -0.179 A  
HETATM   16  C   UNL     1      -9.712   6.963  68.220  1.00  0.00    -0.132 C  
HETATM   17  C   UNL     1      -8.492   7.489  70.856  1.00  0.00    -0.125 A  
HETATM   18  C   UNL     1      -8.089   7.319  72.182  1.00  0.00    -0.100 A  
HETATM   19  C   UNL     1      -8.915   7.736  73.217  1.00  0.00    -0.289 A  
HETATM   20  C   UNL     1     -10.133   8.341  72.924  1.00  0.00    -0.285 A  
HETATM   21  C   UNL     1     -10.544   8.511  71.594  1.00  0.00    -0.283 A  
HETATM   22  I   UNL     1     -12.399   9.480  71.336  1.00  0.00    -0.496 I  
ENDBRANCH  12  13
ENDBRANCH  11  12
ENDBRANCH  10  11
ENDBRANCH   9  10
ENDBRANCH   8   9
ENDBRANCH   7   8
ENDBRANCH   6   7
ENDBRANCH   4   6
ENDBRANCH   3   4
ENDBRANCH   2   3
TORSDOF 10
ENDMDL
MODEL      418
REMARK 921   NORMALIZED FREE ENERGY PREDICTED BY IDOCK:   -0.34 KCAL/MOL
REMARK 922        TOTAL FREE ENERGY PREDICTED BY IDOCK:   -1.94 KCAL/MOL
REMARK 923 INTER-LIGAND FREE ENERGY PREDICTED BY IDOCK:   -1.66 KCAL/MOL
REMARK 924 INTRA-LIGAND FREE ENERGY PREDICTED BY IDOCK:   -0.29 KCAL/MOL
REMARK 927      BINDING AFFINITY PREDICTED BY RF-SCORE:    0.00 PKD
ROOT
HETATM    1  C   UNL     1      -8.662   5.918  63.002  1.00  0.00     0.258 C  
HETATM    2  C   UNL     1      -8.132   6.217  64.392  1.00  0.00    -0.102 C  
ENDROOT
BRANCH   2   3
HETATM    3  O   UNL     1      -7.470   7.487  64.344  1.00  0.00    -0.082 OA 
BRANCH   3   4
HETATM    4  C   UNL     1      -6.429   7.615  65.215  1.00  0.00    -0.041 C  
HETATM    5  O   UNL     1      -5.535   6.796  65.370  1.00  0.00    -0.025 OA 
BRANCH   4   6
HETATM    6  C   UNL     1      -6.503   8.965  65.880  1.00  0.00    -0.057 C  
BRANCH   6   7
HETATM    7  C   UNL     1      -5.773   8.942  67.218  1.00  0.00    -0.042 C  
BRANCH   7   8
HETATM    8  C   UNL     1      -6.673   9.381  68.367  1.00  0.00    -0.058 C  
BRANCH   8   9
HETATM    9  C   UNL     1      -7.540   8.212  68.830  1.00  0.00    -0.105 C  
BRANCH   9  10
HETATM   10  C   UNL     1      -8.998   8.414  68.439  1.00  0.00    -0.136 C  
BRANCH  10  11
HETATM   11  C   UNL     1      -9.917   8.277  69.652  1.00  0.00    -0.193 C  
BRANCH  11  12
HETATM   12  C   UNL     1      -9.372   9.089  70.823  1.00  0.00    -0.305 C  
BRANCH  12  13
HETATM   13  C   UNL     1      -9.837  10.547  70.779  1.00  0.00     1.505 C  
HETATM   14  C   UNL     1     -10.915  10.786  69.701  1.00  0.00    -0.320 C  
HETATM   15  C   UNL     1     -11.219  12.277  69.569  1.00  0.00    -0.185 A  
HETATM   16  C   UNL     1     -12.175   9.940  69.957  1.00  0.00     0.048 C  
HETATM   17  C   UNL     1     -12.208  12.859  70.390  1.00  0.00    -0.381 A  
HETATM   18  C   UNL     1     -12.555  14.207  70.277  1.00  0.00    -0.367 A  
HETATM   19  C   UNL     1     -11.908  15.016  69.353  1.00  0.00    -0.358 A  
HETATM   20  C   UNL     1     -10.899  14.480  68.558  1.00  0.00    -0.256 A  
HETATM   21  C   UNL     1     -10.548  13.126  68.665  1.00  0.00    -0.239 A  
HETATM   22  I   UNL     1      -8.974  12.496  67.411  1.00  0.00    -0.216 I  
ENDBRANCH  12  13
ENDBRANCH  11  12
ENDBRANCH  10  11
ENDBRANCH   9  10
ENDBRANCH   8   9
ENDBRANCH   7   8
ENDBRANCH   6   7
ENDBRANCH   4   6
ENDBRANCH   3   4
ENDBRANCH   2   3
TORSDOF 10
ENDMDL
MODEL      419
REMARK 921   NORMALIZED FREE ENERGY PREDICTED BY IDOCK:    0.23 KCAL/MOL
REMARK 922        TOTAL FREE ENERGY PREDICTED BY IDOCK:   -1.04 KCAL/MOL
REMARK 923 INTER-LIGAND FREE ENERGY PREDICTED BY IDOCK:   -3.40 KCAL/MOL
REMARK 924 INTRA-LIGAND FREE ENERGY PREDICTED BY IDOCK:    2.36 KCAL/MOL
REMARK 927      BINDING AFFINITY PREDICTED BY RF-SCORE:    0.00 PKD
ROOT
HETATM    1  C   UNL     1      -6.340  15.470  68.987  1.00  0.00    -0.113 C  
HETATM    2  C   UNL     1      -7.055  16.713  68.491  1.00  0.00    -0.172 C  
ENDROOT
BRANCH   2   3
HETATM    3  O   UNL     1      -6.060  17.697  68.185  1.00  0.00    -0.159 OA 
BRANCH   3   4
HETATM    4  C   UNL     1      -6.557  18.885  67.738  1.00  0.00    -0.209 C  
HETATM    5  O   UNL     1      -5.966  19.668  67.009  1.00  0.00    -0.178 OA 
BRANCH   4   6
HETATM    6  C   UNL     1      -7.982  19.032  68.205  1.00  0.00    -0.350 C  
BRANCH   6   7
HETATM    7  C   UNL     1      -8.677  17.675  68.237  1.00  0.00    -0.276 C  
BRANCH   7   8
HETATM    8  C   UNL     1     -10.126  17.765  67.772  1.00  0.00    -0.345 C  
BRANCH   8   9
HETATM    9  C   UNL     1     -10.191  18.403  66.386  1.00  0.00    -0.431 C  
BRANCH   9  10
HETATM   10  C   UNL     1     -10.664  17.405  65.338  1.00  0.00    -0.040 C  
BRANCH  10  11
HETATM   11  C   UNL     1     -10.469  15.967  65.820  1.00  0.00    -0.391 C  
BRANCH  11  12
HETATM   12  C   UNL     1     -11.608  15.083  65.321  1.00  0.00    -0.258 C  
BRANCH  12  13
HETATM   13  C   UNL     1     -11.398  13.612  65.687  1.00  0.00    -0.309 C  
HETATM   14  C   UNL     1     -10.888  13.435  67.133  1.00  0.00    -0.284 C  
HETATM   15  C   UNL     1     -10.522  11.975  67.397  1.00  0.00    -0.239 A  
HETATM   16  C   UNL     1     -11.885  13.996  68.162  1.00  0.00    -0.402 C  
HETATM   17  C   UNL     1     -11.513  11.084  67.858  1.00  0.00    -0.358 A  
HETATM   18  C   UNL     1     -11.220   9.752  68.158  1.00  0.00    -0.073 A  
HETATM   19  C   UNL     1      -9.930   9.268  67.983  1.00  0.00    -0.216 A  
HETATM   20  C   UNL     1      -8.940  10.113  67.489  1.00  0.00    -0.136 A  
HETATM   21  C   UNL     1      -9.228  11.453  67.190  1.00  0.00    -0.166 A  
HETATM   22  I   UNL     1      -7.619  12.575  66.418  1.00  0.00     1.702 I  
ENDBRANCH  12  13
ENDBRANCH  11  12
ENDBRANCH  10  11
ENDBRANCH   9  10
ENDBRANCH   8   9
ENDBRANCH   7   8
ENDBRANCH   6   7
ENDBRANCH   4   6
ENDBRANCH   3   4
ENDBRANCH   2   3
TORSDOF 10
ENDMDL
MODEL      420
REMARK 921   NORMALIZED FREE ENERGY PREDICTED BY IDOCK:    0.67 KCAL/MOL
REMARK 922        TOTAL FREE ENERGY PREDICTED BY IDOCK:   -0.33 KCAL/MOL
REMARK 923 INTER-LIGAND FREE ENERGY PREDICTED BY IDOCK:   -0.31 KCAL/MOL
REMARK 924 INTRA-LIGAND FREE ENERGY PREDICTED BY IDOCK:   -0.02 KCAL/MOL
REMARK 927      BINDING AFFINITY PREDICTED BY RF-SCORE:    0.00 PKD
ROOT
HETATM    1  C   UNL     1     -12.542   3.911  73.118  1.00  0.00     0.946 C  
HETATM    2  C   UNL     1     -11.639   5.036  72.646  1.00  0.00    -0.036 C  
ENDROOT
BRANCH   2   3
HETATM    3  O   UNL     1     -12.261   6.276  73.004  1.00  0.00     0.378 OA 
BRANCH   3   4
HETATM    4  C   UNL     1     -11.397   7.238  73.435  1.00  0.00     0.157 C  
HETATM    5  O   UNL     1     -10.339   7.030  74.010  1.00  0.00    -0.364 OA 
BRANCH   4   6
HETATM    6  C   UNL     1     -11.906   8.590  73.004  1.00  0.00     0.370 C  
BRANCH   6   7
HETATM    7  C   UNL     1     -12.319   8.562  71.537  1.00  0.00    -0.354 C  
BRANCH   7   8
HETATM    8  C   UNL     1     -11.216   8.002  70.645  1.00  0.00    -0.266 C  
BRANCH   8   9
HETATM    9  C   UNL     1     -10.434   9.144  70.001  1.00  0.00    -0.244 C  
BRANCH   9  10
HETATM   10  C   UNL     1     -11.055  10.495  70.328  1.00  0.00    -0.359 C  
BRANCH  10  11
HETATM   11  C   UNL     1     -11.865  11.030  69.147  1.00  0.00    -0.407 C  
BRANCH  11  12
HETATM   12  C   UNL     1     -11.008  11.962  68.296  1.00  0.00    -0.273 C  
BRANCH  12  13
HETATM   13  C   UNL     1      -9.615  11.384  68.034  1.00  0.00    -0.184 C  
HETATM   14  C   UNL     1      -9.097  11.722  66.620  1.00  0.00    -0.194 C  
HETATM   15  C   UNL     1      -7.792  10.981  66.336  1.00  0.00    -0.150 A  
HETATM   16  C   UNL     1      -8.981  13.241  66.403  1.00  0.00     0.010 C  
HETATM   17  C   UNL     1      -6.564  11.573  66.700  1.00  0.00    -0.081 A  
HETATM   18  C   UNL     1      -5.342  10.958  66.422  1.00  0.00    -0.099 A  
HETATM   19  C   UNL     1      -5.314   9.722  65.789  1.00  0.00    -0.044 A  
HETATM   20  C   UNL     1      -6.510   9.094  65.455  1.00  0.00    -0.068 A  
HETATM   21  C   UNL     1      -7.741   9.709  65.729  1.00  0.00    -0.106 A  
HETATM   22  I   UNL     1      -9.449   8.597  65.188  1.00  0.00     1.057 I  
ENDBRANCH  12  13
ENDBRANCH  11  12
ENDBRANCH  10  11
ENDBRANCH   9  10
ENDBRANCH   8   9
ENDBRANCH   7   8
ENDBRANCH   6   7
ENDBRANCH   4   6
ENDBRANCH   3   4
ENDBRANCH   2   3
TORSDOF 10
ENDMDL
MODEL      421
REMARK 921   NORMALIZED FREE ENERGY PREDICTED BY IDOCK:    0.77 KCAL/MOL
REMARK 922        TOTAL FREE ENERGY PREDICTED BY IDOCK:   -0.18 KCAL/MOL
REMARK 923 INTER-LIGAND FREE ENERGY PREDICTED BY IDOCK:    0.59 KCAL/MOL
REMARK 924 INTRA-LIGAND FREE ENERGY PREDICTED BY IDOCK:   -0.76 KCAL/MOL
REMARK 927      BINDING AFFINITY PREDICTED BY RF-SCORE:    0.00 PKD
ROOT
HETATM    1  C   UNL     1     -13.870   6.800  72.273  1.00  0.00     0.140 C  
HETATM    2  C   UNL     1     -13.100   5.507  72.464  1.00  0.00     1.028 C  
ENDROOT
BRANCH   2   3
HETATM    3  O   UNL     1     -11.711   5.838  72.586  1.00  0.00    -0.293 OA 
BRANCH   3   4
HETATM    4  C   UNL     1     -10.940   5.439  71.535  1.00  0.00    -0.094 C  
HETATM    5  O   UNL     1     -10.909   4.309  71.072  1.00  0.00     0.498 OA 
BRANCH   4   6
HETATM    6  C   UNL     1     -10.208   6.632  70.976  1.00  0.00    -0.214 C  
BRANCH   6   7
HETATM    7  C   UNL     1     -10.992   7.248  69.823  1.00  0.00    -0.235 C  
BRANCH   7   8
HETATM    8  C   UNL     1     -11.482   8.653  70.152  1.00  0.00    -0.009 C  
BRANCH   8   9
HETATM    9  C   UNL     1     -10.909   9.655  69.152  1.00  0.00    -0.212 C  
BRANCH   9  10
HETATM   10  C   UNL     1     -10.382  10.899  69.854  1.00  0.00     0.134 C  
BRANCH  10  11
HETATM   11  C   UNL     1     -11.482  11.947  70.019  1.00  0.00    -0.213 C  
BRANCH  11  12
HETATM   12  C   UNL     1     -11.408  12.974  68.894  1.00  0.00    -0.333 C  
BRANCH  12  13
HETATM   13  C   UNL     1     -11.567  12.329  67.514  1.00  0.00    -0.422 C  
HETATM   14  C   UNL     1     -10.489  12.806  66.517  1.00  0.00    -0.276 C  
HETATM   15  C   UNL     1     -10.789  12.281  65.114  1.00  0.00    -0.340 A  
HETATM   16  C   UNL     1      -9.071  12.450  66.997  1.00  0.00    -0.207 C  
HETATM   17  C   UNL     1     -10.294  11.019  64.724  1.00  0.00    -0.389 A  
HETATM   18  C   UNL     1     -10.501  10.515  63.439  1.00  0.00     0.274 A  
HETATM   19  C   UNL     1     -11.227  11.251  62.512  1.00  0.00     1.329 A  
HETATM   20  C   UNL     1     -11.764  12.481  62.880  1.00  0.00     0.243 A  
HETATM   21  C   UNL     1     -11.556  12.994  64.169  1.00  0.00    -0.407 A  
HETATM   22  I   UNL     1     -12.472  14.852  64.563  1.00  0.00     0.586 I  
ENDBRANCH  12  13
ENDBRANCH  11  12
ENDBRANCH  10  11
ENDBRANCH   9  10
ENDBRANCH   8   9
ENDBRANCH   7   8
ENDBRANCH   6   7
ENDBRANCH   4   6
ENDBRANCH   3   4
ENDBRANCH   2   3
TORSDOF 10
ENDMDL
MODEL      422
REMARK 921   NORMALIZED FREE ENERGY PREDICTED BY IDOCK:    2.48 KCAL/MOL
REMARK 922        TOTAL FREE ENERGY PREDICTED BY IDOCK:    2.53 KCAL/MOL
REMARK 923 INTER-LIGAND FREE ENERGY PREDICTED BY IDOCK:    2.94 KCAL/MOL
REMARK 924 INTRA-LIGAND FREE ENERGY PREDICTED BY IDOCK:   -0.40 KCAL/MOL
REMARK 927      BINDING AFFINITY PREDICTED BY RF-SCORE:    0.00 PKD
ROOT
HETATM    1  C   UNL     1     -13.878   6.796  72.267  1.00  0.00     0.140 C  
HETATM    2  C   UNL     1     -13.157   5.469  72.410  1.00  0.00     1.114 C  
ENDROOT
BRANCH   2   3
HETATM    3  O   UNL     1     -11.750   5.739  72.457  1.00  0.00    -0.309 OA 
BRANCH   3   4
HETATM    4  C   UNL     1     -11.056   5.314  71.363  1.00  0.00     0.086 C  
HETATM    5  O   UNL     1     -11.106   4.188  70.890  1.00  0.00     1.337 OA 
BRANCH   4   6
HETATM    6  C   UNL     1     -10.296   6.475  70.776  1.00  0.00    -0.241 C  
BRANCH   6   7
HETATM    7  C   UNL     1     -11.119   7.158  69.689  1.00  0.00    -0.206 C  
BRANCH   7   8
HETATM    8  C   UNL     1     -11.473   8.593  70.059  1.00  0.00     0.064 C  
BRANCH   8   9
HETATM    9  C   UNL     1     -10.936   9.554  69.000  1.00  0.00    -0.127 C  
BRANCH   9  10
HETATM   10  C   UNL     1     -11.532   9.257  67.630  1.00  0.00     1.086 C  
BRANCH  10  11
HETATM   11  C   UNL     1     -10.710   8.205  66.888  1.00  0.00    -0.186 C  
BRANCH  11  12
HETATM   12  C   UNL     1      -9.711   8.879  65.952  1.00  0.00    -0.259 C  
BRANCH  12  13
HETATM   13  C   UNL     1      -8.726   9.773  66.708  1.00  0.00    -0.140 C  
HETATM   14  C   UNL     1      -8.571  11.161  66.051  1.00  0.00    -0.154 C  
HETATM   15  C   UNL     1      -7.453  11.953  66.727  1.00  0.00    -0.017 A  
HETATM   16  C   UNL     1      -9.906  11.927  66.013  1.00  0.00    -0.258 C  
HETATM   17  C   UNL     1      -7.750  12.750  67.853  1.00  0.00    -0.143 A  
HETATM   18  C   UNL     1      -6.774  13.527  68.479  1.00  0.00    -0.095 A  
HETATM   19  C   UNL     1      -5.468  13.513  68.009  1.00  0.00    -0.117 A  
HETATM   20  C   UNL     1      -5.135  12.705  66.926  1.00  0.00     0.362 A  
HETATM   21  C   UNL     1      -6.112  11.924  66.291  1.00  0.00     0.582 A  
HETATM   22  I   UNL     1      -5.423  10.734  64.692  1.00  0.00     0.422 I  
ENDBRANCH  12  13
ENDBRANCH  11  12
ENDBRANCH  10  11
ENDBRANCH   9  10
ENDBRANCH   8   9
ENDBRANCH   7   8
ENDBRANCH   6   7
ENDBRANCH   4   6
ENDBRANCH   3   4
ENDBRANCH   2   3
TORSDOF 10
ENDMDL
MODEL      423
REMARK 921   NORMALIZED FREE ENERGY PREDICTED BY IDOCK:    6.31 KCAL/MOL
REMARK 922        TOTAL FREE ENERGY PREDICTED BY IDOCK:    8.61 KCAL/MOL
REMARK 923 INTER-LIGAND FREE ENERGY PREDICTED BY IDOCK:    4.84 KCAL/MOL
REMARK 924 INTRA-LIGAND FREE ENERGY PREDICTED BY IDOCK:    3.77 KCAL/MOL
REMARK 927      BINDING AFFINITY PREDICTED BY RF-SCORE:    0.00 PKD
ROOT
HETATM    1  C   UNL     1     -13.901  13.620  66.310  1.00  0.00     4.465 C  
HETATM    2  C   UNL     1     -12.857  13.189  67.323  1.00  0.00     1.559 C  
ENDROOT
BRANCH   2   3
HETATM    3  O   UNL     1     -11.855  14.213  67.382  1.00  0.00    -0.374 OA 
BRANCH   3   4
HETATM    4  C   UNL     1     -11.507  14.732  66.171  1.00  0.00    -0.311 C  
HETATM    5  O   UNL     1     -11.699  14.193  65.090  1.00  0.00    -0.333 OA 
BRANCH   4   6
HETATM    6  C   UNL     1     -10.938  16.113  66.369  1.00  0.00    -0.036 C  
BRANCH   6   7
HETATM    7  C   UNL     1     -10.155  16.551  65.137  1.00  0.00     0.247 C  
BRANCH   7   8
HETATM    8  C   UNL     1      -8.650  16.502  65.370  1.00  0.00     1.391 C  
BRANCH   8   9
HETATM    9  C   UNL     1      -8.352  15.878  66.733  1.00  0.00    -0.306 C  
BRANCH   9  10
HETATM   10  C   UNL     1      -9.190  14.628  66.965  1.00  0.00    -0.252 C  
BRANCH  10  11
HETATM   11  C   UNL     1      -8.365  13.528  67.632  1.00  0.00    -0.179 C  
BRANCH  11  12
HETATM   12  C   UNL     1      -8.990  12.163  67.364  1.00  0.00    -0.180 C  
BRANCH  12  13
HETATM   13  C   UNL     1      -8.087  11.275  66.503  1.00  0.00    -0.160 C  
HETATM   14  C   UNL     1      -8.813  10.744  65.248  1.00  0.00    -0.200 C  
HETATM   15  C   UNL     1      -7.941   9.725  64.516  1.00  0.00    -0.144 A  
HETATM   16  C   UNL     1      -9.288  11.889  64.336  1.00  0.00     0.186 C  
HETATM   17  C   UNL     1      -7.024  10.171  63.541  1.00  0.00    -0.116 A  
HETATM   18  C   UNL     1      -6.238   9.277  62.811  1.00  0.00    -0.094 A  
HETATM   19  C   UNL     1      -6.331   7.913  63.052  1.00  0.00    -0.072 A  
HETATM   20  C   UNL     1      -7.196   7.447  64.037  1.00  0.00    -0.081 A  
HETATM   21  C   UNL     1      -7.992   8.339  64.770  1.00  0.00    -0.146 A  
HETATM   22  I   UNL     1      -9.216   7.461  66.246  1.00  0.00    -0.029 I  
ENDBRANCH  12  13
ENDBRANCH  11  12
ENDBRANCH  10  11
ENDBRANCH   9  10
ENDBRANCH   8   9
ENDBRANCH   7   8
ENDBRANCH   6   7
ENDBRANCH   4   6
ENDBRANCH   3   4
ENDBRANCH   2   3
TORSDOF 10
ENDMDL
MODEL      424
REMARK 921   NORMALIZED FREE ENERGY PREDICTED BY IDOCK:    7.04 KCAL/MOL
REMARK 922        TOTAL FREE ENERGY PREDICTED BY IDOCK:    9.76 KCAL/MOL
REMARK 923 INTER-LIGAND FREE ENERGY PREDICTED BY IDOCK:    6.96 KCAL/MOL
REMARK 924 INTRA-LIGAND FREE ENERGY PREDICTED BY IDOCK:    2.81 KCAL/MOL
REMARK 927      BINDING AFFINITY PREDICTED BY RF-SCORE:    0.00 PKD
ROOT
HETATM    1  C   UNL     1      -8.759  17.273  70.203  1.00  0.00     2.479 C  
HETATM    2  C   UNL     1      -8.920  16.559  68.874  1.00  0.00    -0.245 C  
ENDROOT
BRANCH   2   3
HETATM    3  O   UNL     1     -10.096  15.743  68.955  1.00  0.00    -0.202 OA 
BRANCH   3   4
HETATM    4  C   UNL     1      -9.857  14.436  69.259  1.00  0.00     0.055 C  
HETATM    5  O   UNL     1     -10.039  13.922  70.353  1.00  0.00     1.524 OA 
BRANCH   4   6
HETATM    6  C   UNL     1      -9.427  13.709  68.012  1.00  0.00    -0.209 C  
BRANCH   6   7
HETATM    7  C   UNL     1      -8.525  14.595  67.160  1.00  0.00    -0.244 C  
BRANCH   7   8
HETATM    8  C   UNL     1      -8.261  13.989  65.787  1.00  0.00     2.601 C  
BRANCH   8   9
HETATM    9  C   UNL     1      -8.605  12.501  65.797  1.00  0.00     0.802 C  
BRANCH   9  10
HETATM   10  C   UNL     1      -9.247  12.071  64.485  1.00  0.00     0.392 C  
BRANCH  10  11
HETATM   11  C   UNL     1     -10.771  12.045  64.601  1.00  0.00    -0.355 C  
BRANCH  11  12
HETATM   12  C   UNL     1     -11.192  12.114  66.065  1.00  0.00    -0.382 C  
BRANCH  12  13
HETATM   13  C   UNL     1     -10.257  11.308  66.971  1.00  0.00    -0.250 C  
HETATM   14  C   UNL     1     -10.879   9.965  67.408  1.00  0.00    -0.293 C  
HETATM   15  C   UNL     1      -9.996   9.278  68.448  1.00  0.00    -0.196 A  
HETATM   16  C   UNL     1     -11.193   9.062  66.201  1.00  0.00     2.322 C  
HETATM   17  C   UNL     1      -8.960   8.421  68.021  1.00  0.00    -0.138 A  
HETATM   18  C   UNL     1      -8.154   7.735  68.932  1.00  0.00    -0.126 A  
HETATM   19  C   UNL     1      -8.348   7.903  70.296  1.00  0.00    -0.126 A  
HETATM   20  C   UNL     1      -9.335   8.774  70.747  1.00  0.00    -0.253 A  
HETATM   21  C   UNL     1     -10.151   9.463  69.837  1.00  0.00    -0.218 A  
HETATM   22  I   UNL     1     -11.567  10.767  70.697  1.00  0.00     0.018 I  
ENDBRANCH  12  13
ENDBRANCH  11  12
ENDBRANCH  10  11
ENDBRANCH   9  10
ENDBRANCH   8   9
ENDBRANCH   7   8
ENDBRANCH   6   7
ENDBRANCH   4   6
ENDBRANCH   3   4
ENDBRANCH   2   3
TORSDOF 10
ENDMDL
MODEL      425
REMARK 921   NORMALIZED FREE ENERGY PREDICTED BY IDOCK:    8.95 KCAL/MOL
REMARK 922        TOTAL FREE ENERGY PREDICTED BY IDOCK:   12.78 KCAL/MOL
REMARK 923 INTER-LIGAND FREE ENERGY PREDICTED BY IDOCK:    7.66 KCAL/MOL
REMARK 924 INTRA-LIGAND FREE ENERGY PREDICTED BY IDOCK:    5.12 KCAL/MOL
REMARK 927      BINDING AFFINITY PREDICTED BY RF-SCORE:    0.00 PKD
ROOT
HETATM    1  C   UNL     1     -14.008  13.595  66.367  1.00  0.00     5.902 C  
HETATM    2  C   UNL     1     -13.084  13.220  67.511  1.00  0.00     2.969 C  
ENDROOT
BRANCH   2   3
HETATM    3  O   UNL     1     -12.030  14.190  67.557  1.00  0.00    -0.383 OA 
BRANCH   3   4
HETATM    4  C   UNL     1     -11.468  14.472  66.348  1.00  0.00    -0.360 C  
HETATM    5  O   UNL     1     -11.509  13.747  65.364  1.00  0.00    -0.304 OA 
BRANCH   4   6
HETATM    6  C   UNL     1     -10.873  15.856  66.389  1.00  0.00    -0.193 C  
BRANCH   6   7
HETATM    7  C   UNL     1      -9.807  16.012  65.311  1.00  0.00     0.036 C  
BRANCH   7   8
HETATM    8  C   UNL     1      -8.401  16.039  65.899  1.00  0.00     0.296 C  
BRANCH   8   9
HETATM    9  C   UNL     1      -8.467  15.900  67.419  1.00  0.00    -0.194 C  
BRANCH   9  10
HETATM   10  C   UNL     1      -9.479  14.840  67.834  1.00  0.00    -0.201 C  
BRANCH  10  11
HETATM   11  C   UNL     1      -8.989  14.059  69.053  1.00  0.00     0.167 C  
BRANCH  11  12
HETATM   12  C   UNL     1      -9.691  12.707  69.131  1.00  0.00     0.495 C  
BRANCH  12  13
HETATM   13  C   UNL     1      -8.713  11.540  68.965  1.00  0.00     0.134 C  
HETATM   14  C   UNL     1      -8.170  11.431  67.525  1.00  0.00    -0.130 C  
HETATM   15  C   UNL     1      -7.344  10.157  67.358  1.00  0.00    -0.089 A  
HETATM   16  C   UNL     1      -7.403  12.698  67.107  1.00  0.00    -0.043 C  
HETATM   17  C   UNL     1      -5.965  10.180  67.654  1.00  0.00    -0.053 A  
HETATM   18  C   UNL     1      -5.158   9.055  67.476  1.00  0.00    -0.034 A  
HETATM   19  C   UNL     1      -5.712   7.868  67.016  1.00  0.00    -0.037 A  
HETATM   20  C   UNL     1      -7.077   7.802  66.755  1.00  0.00    -0.080 A  
HETATM   21  C   UNL     1      -7.893   8.930  66.929  1.00  0.00    -0.101 A  
HETATM   22  I   UNL     1      -9.941   8.639  66.522  1.00  0.00    -0.133 I  
ENDBRANCH  12  13
ENDBRANCH  11  12
ENDBRANCH  10  11
ENDBRANCH   9  10
ENDBRANCH   8   9
ENDBRANCH   7   8
ENDBRANCH   6   7
ENDBRANCH   4   6
ENDBRANCH   3   4
ENDBRANCH   2   3
TORSDOF 10
ENDMDL
MODEL      426
REMARK 921   NORMALIZED FREE ENERGY PREDICTED BY IDOCK:   15.44 KCAL/MOL
REMARK 922        TOTAL FREE ENERGY PREDICTED BY IDOCK:   23.06 KCAL/MOL
REMARK 923 INTER-LIGAND FREE ENERGY PREDICTED BY IDOCK:   22.93 KCAL/MOL
REMARK 924 INTRA-LIGAND FREE ENERGY PREDICTED BY IDOCK:    0.13 KCAL/MOL
REMARK 927      BINDING AFFINITY PREDICTED BY RF-SCORE:    0.00 PKD
ROOT
HETATM    1  C   UNL     1     -12.569  18.621  64.836  1.00  0.00    10.761 C  
HETATM    2  C   UNL     1     -12.854  18.642  66.327  1.00  0.00     9.494 C  
ENDROOT
BRANCH   2   3
HETATM    3  O   UNL     1     -12.649  17.316  66.831  1.00  0.00     4.083 OA 
BRANCH   3   4
HETATM    4  C   UNL     1     -11.447  16.765  66.499  1.00  0.00     0.954 C  
HETATM    5  O   UNL     1     -10.594  17.298  65.806  1.00  0.00    -0.438 OA 
BRANCH   4   6
HETATM    6  C   UNL     1     -11.301  15.439  67.200  1.00  0.00    -0.203 C  
BRANCH   6   7
HETATM    7  C   UNL     1     -11.913  15.502  68.595  1.00  0.00    -0.231 C  
BRANCH   7   8
HETATM    8  C   UNL     1     -10.848  15.589  69.682  1.00  0.00    -0.285 C  
BRANCH   8   9
HETATM    9  C   UNL     1      -9.865  16.713  69.362  1.00  0.00    -0.124 C  
BRANCH   9  10
HETATM   10  C   UNL     1      -8.454  16.174  69.161  1.00  0.00    -0.239 C  
BRANCH  10  11
HETATM   11  C   UNL     1      -8.400  14.667  69.406  1.00  0.00     0.085 C  
BRANCH  11  12
HETATM   12  C   UNL     1      -7.092  14.091  68.874  1.00  0.00    -0.111 C  
BRANCH  12  13
HETATM   13  C   UNL     1      -7.176  12.579  68.651  1.00  0.00    -0.103 C  
HETATM   14  C   UNL     1      -6.822  12.180  67.203  1.00  0.00    -0.119 C  
HETATM   15  C   UNL     1      -7.091  10.693  66.976  1.00  0.00    -0.100 A  
HETATM   16  C   UNL     1      -5.385  12.589  66.833  1.00  0.00     0.270 C  
HETATM   17  C   UNL     1      -6.078   9.753  67.262  1.00  0.00    -0.055 A  
HETATM   18  C   UNL     1      -6.258   8.388  67.030  1.00  0.00    -0.056 A  
HETATM   19  C   UNL     1      -7.464   7.922  66.524  1.00  0.00    -0.088 A  
HETATM   20  C   UNL     1      -8.497   8.821  66.272  1.00  0.00    -0.130 A  
HETATM   21  C   UNL     1      -8.321  10.193  66.500  1.00  0.00    -0.124 A  
HETATM   22  I   UNL     1     -10.001  11.402  66.097  1.00  0.00    -0.308 I  
ENDBRANCH  12  13
ENDBRANCH  11  12
ENDBRANCH  10  11
ENDBRANCH   9  10
ENDBRANCH   8   9
ENDBRANCH   7   8
ENDBRANCH   6   7
ENDBRANCH   4   6
ENDBRANCH   3   4
ENDBRANCH   2   3
TORSDOF 10
ENDMDL
