MODEL        1
REMARK 921   NORMALIZED FREE ENERGY PREDICTED BY IDOCK:   -5.46 KCAL/MOL
REMARK 922        TOTAL FREE ENERGY PREDICTED BY IDOCK:  -10.10 KCAL/MOL
REMARK 923 INTER-LIGAND FREE ENERGY PREDICTED BY IDOCK:   -8.97 KCAL/MOL
REMARK 924 INTRA-LIGAND FREE ENERGY PREDICTED BY IDOCK:   -1.12 KCAL/MOL
REMARK 927      BINDING AFFINITY PREDICTED BY RF-SCORE:    0.00 PKD
ROOT
HETATM    1  C   UNL     1     -14.230   8.514  72.108  1.00  0.00    -0.434 C  
HETATM    2  O   UNL     1     -13.033   7.741  72.101  1.00  0.00    -0.247 OA 
ENDROOT
BRANCH   2   3
HETATM    3  C   UNL     1     -11.900   8.484  72.532  1.00  0.00    -0.328 C  
BRANCH   3   4
HETATM    4  C   UNL     1     -10.925   8.840  71.397  1.00  0.00    -0.289 C  
HETATM    5  O   UNL     1      -9.761   9.162  71.625  1.00  0.00    -0.292 OA 
HETATM    6  N   UNL     1     -11.469   8.739  70.112  1.00  0.00    -0.454 N  
HETATM    7  H   UNL     1     -12.450   8.499  69.967  1.00  0.00     0.000 HD 
BRANCH   6   8
HETATM    8  C   UNL     1     -10.592   8.984  69.013  1.00  0.00    -0.190 A  
HETATM    9  C   UNL     1     -10.449  10.287  68.474  1.00  0.00    -0.192 A  
HETATM   10  C   UNL     1      -9.378  10.603  67.586  1.00  0.00    -0.156 A  
HETATM   11  I   UNL     1     -11.906  11.740  69.103  1.00  0.00    -0.282 I  
HETATM   12  C   UNL     1      -9.809   7.928  68.495  1.00  0.00    -0.177 A  
HETATM   13  C   UNL     1      -8.475   9.553  67.272  1.00  0.00    -0.128 A  
HETATM   14  I   UNL     1      -6.434  10.010  66.729  1.00  0.00    -0.079 I  
HETATM   15  I   UNL     1     -10.390   5.914  69.023  1.00  0.00    -0.358 I  
HETATM   16  C   UNL     1      -8.770   8.197  67.585  1.00  0.00    -0.130 A  
BRANCH  10  17
HETATM   17  C   UNL     1      -9.171  12.032  67.148  1.00  0.00    -0.190 C  
HETATM   18  O   UNL     1      -8.540  12.761  67.915  1.00  0.00    -0.160 OA 
HETATM   19  C   UNL     1     -10.352  11.820  64.880  1.00  0.00    -0.289 C  
HETATM   20  N   UNL     1      -9.711  12.560  65.959  1.00  0.00    -0.256 N  
BRANCH  20  21
HETATM   21  C   UNL     1      -9.635  14.030  65.734  1.00  0.00    -0.107 C  
BRANCH  21  22
HETATM   22  C   UNL     1     -10.998  14.648  65.327  1.00  0.00    -0.367 C  
HETATM   23  H   UNL     1     -12.829  14.782  66.082  1.00  0.00     0.000 HD 
HETATM   24  O   UNL     1     -11.994  14.403  66.332  1.00  0.00    -0.404 OA 
BRANCH  22  25
HETATM   25  C   UNL     1     -10.920  16.165  65.100  1.00  0.00    -0.316 C  
HETATM   26  H   UNL     1     -11.540  17.474  63.757  1.00  0.00     0.000 HD 
HETATM   27  O   UNL     1     -11.588  16.537  63.898  1.00  0.00    -1.175 OA 
ENDBRANCH  22  25
ENDBRANCH  21  22
ENDBRANCH  20  21
ENDBRANCH  10  17
BRANCH  16  28
HETATM   28  C   UNL     1      -8.029   7.069  66.939  1.00  0.00    -0.115 C  
HETATM   29  H   UNL     1      -9.214   7.208  65.212  1.00  0.00     0.000 HD 
HETATM   30  O   UNL     1      -7.123   6.481  67.506  1.00  0.00    -0.075 OA 
HETATM   31  N   UNL     1      -8.485   6.672  65.682  1.00  0.00    -0.150 N  
BRANCH  31  32
HETATM   32  C   UNL     1      -7.919   5.492  65.041  1.00  0.00    -0.113 C  
BRANCH  32  33
HETATM   33  C   UNL     1      -8.993   4.570  64.458  1.00  0.00    -0.152 C  
HETATM   34  O   UNL     1      -8.390   3.313  64.115  1.00  0.00    -0.089 OA 
HETATM   35  H   UNL     1      -9.056   2.740  63.753  1.00  0.00     0.000 HD 
BRANCH  33  36
HETATM   36  C   UNL     1     -10.148   4.365  65.452  1.00  0.00    -0.223 C  
HETATM   37  O   UNL     1     -11.417   4.571  64.835  1.00  0.00    -1.056 OA 
HETATM   38  H   UNL     1     -12.131   4.444  65.449  1.00  0.00     0.000 HD 
ENDBRANCH  33  36
ENDBRANCH  32  33
ENDBRANCH  31  32
ENDBRANCH  16  28
ENDBRANCH   6   8
ENDBRANCH   3   4
ENDBRANCH   2   3
TORSDOF 11
ENDMDL
MODEL        2
REMARK 921   NORMALIZED FREE ENERGY PREDICTED BY IDOCK:   -5.27 KCAL/MOL
REMARK 922        TOTAL FREE ENERGY PREDICTED BY IDOCK:   -9.78 KCAL/MOL
REMARK 923 INTER-LIGAND FREE ENERGY PREDICTED BY IDOCK:   -8.58 KCAL/MOL
REMARK 924 INTRA-LIGAND FREE ENERGY PREDICTED BY IDOCK:   -1.19 KCAL/MOL
REMARK 927      BINDING AFFINITY PREDICTED BY RF-SCORE:    0.00 PKD
ROOT
HETATM    1  C   UNL     1      -6.034   3.530  66.080  1.00  0.00    -0.023 C  
HETATM    2  O   UNL     1      -6.966   4.507  65.627  1.00  0.00    -0.060 OA 
ENDROOT
BRANCH   2   3
HETATM    3  C   UNL     1      -6.437   5.826  65.666  1.00  0.00    -0.043 C  
BRANCH   3   4
HETATM    4  C   UNL     1      -7.374   6.850  66.328  1.00  0.00    -0.076 C  
HETATM    5  O   UNL     1      -8.537   6.991  65.959  1.00  0.00    -0.139 OA 
HETATM    6  N   UNL     1      -6.796   7.569  67.381  1.00  0.00    -0.069 N  
HETATM    7  H   UNL     1      -5.816   7.444  67.636  1.00  0.00     0.000 HD 
BRANCH   6   8
HETATM    8  C   UNL     1      -7.638   8.482  68.084  1.00  0.00    -0.098 A  
HETATM    9  C   UNL     1      -7.742   9.836  67.678  1.00  0.00    -0.094 A  
HETATM   10  C   UNL     1      -8.782  10.676  68.175  1.00  0.00    -0.130 A  
HETATM   11  I   UNL     1      -6.275  10.515  66.257  1.00  0.00    -0.133 I  
HETATM   12  C   UNL     1      -8.426   8.017  69.161  1.00  0.00    -0.136 A  
HETATM   13  C   UNL     1      -9.695  10.091  69.091  1.00  0.00    -0.209 A  
HETATM   14  I   UNL     1     -11.712  10.853  69.241  1.00  0.00    -0.338 I  
HETATM   15  I   UNL     1      -7.898   6.107  70.024  1.00  0.00    -0.110 I  
HETATM   16  C   UNL     1      -9.434   8.835  69.705  1.00  0.00    -0.170 A  
BRANCH  10  17
HETATM   17  C   UNL     1      -8.950  12.066  67.610  1.00  0.00    -0.172 C  
HETATM   18  O   UNL     1      -8.414  12.984  68.232  1.00  0.00    -0.165 OA 
HETATM   19  C   UNL     1     -10.303  11.382  65.540  1.00  0.00    -0.266 C  
HETATM   20  N   UNL     1      -9.726  12.346  66.469  1.00  0.00    -0.235 N  
BRANCH  20  21
HETATM   21  C   UNL     1     -10.005  13.768  66.130  1.00  0.00    -0.308 C  
BRANCH  21  22
HETATM   22  C   UNL     1     -11.519  14.060  65.960  1.00  0.00    -0.338 C  
HETATM   23  H   UNL     1     -12.959  14.971  66.978  1.00  0.00     0.000 HD 
HETATM   24  O   UNL     1     -12.031  14.793  67.083  1.00  0.00    -0.351 OA 
BRANCH  22  25
HETATM   25  C   UNL     1     -11.832  14.865  64.689  1.00  0.00    -0.407 C  
HETATM   26  H   UNL     1     -12.491  14.510  62.861  1.00  0.00     0.000 HD 
HETATM   27  O   UNL     1     -12.298  14.013  63.647  1.00  0.00    -0.728 OA 
ENDBRANCH  22  25
ENDBRANCH  21  22
ENDBRANCH  20  21
ENDBRANCH  10  17
BRANCH  16  28
HETATM   28  C   UNL     1     -10.178   8.394  70.926  1.00  0.00    -0.194 C  
HETATM   29  H   UNL     1     -11.322   7.036  69.807  1.00  0.00     0.000 HD 
HETATM   30  O   UNL     1      -9.961   8.877  72.025  1.00  0.00    -0.329 OA 
HETATM   31  N   UNL     1     -11.190   7.456  70.727  1.00  0.00    -0.266 N  
BRANCH  31  32
HETATM   32  C   UNL     1     -12.061   7.077  71.833  1.00  0.00    -0.323 C  
BRANCH  32  33
HETATM   33  C   UNL     1     -13.541   7.324  71.525  1.00  0.00    -0.356 C  
HETATM   34  O   UNL     1     -14.329   6.347  72.221  1.00  0.00    -0.627 OA 
HETATM   35  H   UNL     1     -15.248   6.500  72.031  1.00  0.00     0.000 HD 
BRANCH  33  36
HETATM   36  C   UNL     1     -13.961   8.748  71.928  1.00  0.00    -0.436 C  
HETATM   37  O   UNL     1     -14.128   8.869  73.339  1.00  0.00    -1.256 OA 
HETATM   38  H   UNL     1     -14.387   9.749  73.588  1.00  0.00     0.000 HD 
ENDBRANCH  33  36
ENDBRANCH  32  33
ENDBRANCH  31  32
ENDBRANCH  16  28
ENDBRANCH   6   8
ENDBRANCH   3   4
ENDBRANCH   2   3
TORSDOF 11
ENDMDL
MODEL        3
REMARK 921   NORMALIZED FREE ENERGY PREDICTED BY IDOCK:   -5.23 KCAL/MOL
REMARK 922        TOTAL FREE ENERGY PREDICTED BY IDOCK:   -9.72 KCAL/MOL
REMARK 923 INTER-LIGAND FREE ENERGY PREDICTED BY IDOCK:   -8.55 KCAL/MOL
REMARK 924 INTRA-LIGAND FREE ENERGY PREDICTED BY IDOCK:   -1.17 KCAL/MOL
REMARK 927      BINDING AFFINITY PREDICTED BY RF-SCORE:    0.00 PKD
ROOT
HETATM    1  C   UNL     1     -10.933   6.063  72.943  1.00  0.00    -0.269 C  
HETATM    2  O   UNL     1     -10.557   7.376  73.348  1.00  0.00    -0.362 OA 
ENDROOT
BRANCH   2   3
HETATM    3  C   UNL     1     -11.163   8.387  72.553  1.00  0.00    -0.336 C  
BRANCH   3   4
HETATM    4  C   UNL     1     -10.434   8.651  71.225  1.00  0.00    -0.242 C  
HETATM    5  O   UNL     1      -9.234   8.911  71.189  1.00  0.00    -0.211 OA 
HETATM    6  N   UNL     1     -11.243   8.540  70.087  1.00  0.00    -0.406 N  
HETATM    7  H   UNL     1     -12.243   8.353  70.162  1.00  0.00     0.000 HD 
BRANCH   6   8
HETATM    8  C   UNL     1     -10.608   8.701  68.820  1.00  0.00    -0.140 A  
HETATM    9  C   UNL     1     -10.541   9.971  68.194  1.00  0.00    -0.227 A  
HETATM   10  C   UNL     1      -9.670  10.203  67.089  1.00  0.00    -0.214 A  
HETATM   11  I   UNL     1     -11.791  11.508  69.034  1.00  0.00    -0.267 I  
HETATM   12  C   UNL     1      -9.982   7.591  68.207  1.00  0.00    -0.173 A  
HETATM   13  C   UNL     1      -8.885   9.104  66.651  1.00  0.00    -0.128 A  
HETATM   14  I   UNL     1      -6.989   9.454  65.674  1.00  0.00    -0.096 I  
HETATM   15  I   UNL     1     -10.500   5.628  68.949  1.00  0.00    -0.199 I  
HETATM   16  C   UNL     1      -9.148   7.777  67.089  1.00  0.00    -0.154 A  
BRANCH  10  17
HETATM   17  C   UNL     1      -9.517  11.601  66.543  1.00  0.00    -0.206 C  
HETATM   18  O   UNL     1      -8.910  12.408  67.249  1.00  0.00    -0.176 OA 
HETATM   19  C   UNL     1     -10.697  11.175  64.304  1.00  0.00    -0.333 C  
HETATM   20  N   UNL     1     -10.080  12.018  65.321  1.00  0.00    -0.256 N  
BRANCH  20  21
HETATM   21  C   UNL     1     -10.058  13.469  64.985  1.00  0.00    -0.256 C  
BRANCH  21  22
HETATM   22  C   UNL     1     -11.321  14.220  65.481  1.00  0.00    -0.325 C  
HETATM   23  H   UNL     1     -11.751  15.679  66.756  1.00  0.00     0.000 HD 
HETATM   24  O   UNL     1     -10.977  15.219  66.453  1.00  0.00    -0.320 OA 
BRANCH  22  25
HETATM   25  C   UNL     1     -12.087  14.913  64.343  1.00  0.00    -0.401 C  
HETATM   26  H   UNL     1     -13.030  14.392  62.688  1.00  0.00     0.000 HD 
HETATM   27  O   UNL     1     -12.557  13.964  63.391  1.00  0.00    -0.853 OA 
ENDBRANCH  22  25
ENDBRANCH  21  22
ENDBRANCH  20  21
ENDBRANCH  10  17
BRANCH  16  28
HETATM   28  C   UNL     1      -8.593   6.592  66.364  1.00  0.00    -0.136 C  
HETATM   29  H   UNL     1     -10.255   6.527  65.084  1.00  0.00     0.000 HD 
HETATM   30  O   UNL     1      -7.531   6.080  66.679  1.00  0.00    -0.087 OA 
HETATM   31  N   UNL     1      -9.394   6.054  65.357  1.00  0.00     0.175 N  
BRANCH  31  32
HETATM   32  C   UNL     1      -9.000   4.816  64.696  1.00  0.00    -0.138 C  
BRANCH  32  33
HETATM   33  C   UNL     1     -10.118   3.768  64.701  1.00  0.00    -0.191 C  
HETATM   34  O   UNL     1     -11.364   4.419  64.990  1.00  0.00    -1.040 OA 
HETATM   35  H   UNL     1     -12.057   3.769  64.993  1.00  0.00     0.000 HD 
BRANCH  33  36
HETATM   36  C   UNL     1     -10.191   3.029  63.355  1.00  0.00    -0.178 C  
HETATM   37  O   UNL     1     -11.171   1.993  63.374  1.00  0.00    -0.404 OA 
HETATM   38  H   UNL     1     -11.216   1.536  62.542  1.00  0.00     0.000 HD 
ENDBRANCH  33  36
ENDBRANCH  32  33
ENDBRANCH  31  32
ENDBRANCH  16  28
ENDBRANCH   6   8
ENDBRANCH   3   4
ENDBRANCH   2   3
TORSDOF 11
ENDMDL
MODEL        4
REMARK 921   NORMALIZED FREE ENERGY PREDICTED BY IDOCK:   -5.23 KCAL/MOL
REMARK 922        TOTAL FREE ENERGY PREDICTED BY IDOCK:   -9.72 KCAL/MOL
REMARK 923 INTER-LIGAND FREE ENERGY PREDICTED BY IDOCK:   -8.26 KCAL/MOL
REMARK 924 INTRA-LIGAND FREE ENERGY PREDICTED BY IDOCK:   -1.45 KCAL/MOL
REMARK 927      BINDING AFFINITY PREDICTED BY RF-SCORE:    0.00 PKD
ROOT
HETATM    1  C   UNL     1     -14.385   8.650  72.184  1.00  0.00    -0.427 C  
HETATM    2  O   UNL     1     -13.169   9.332  72.477  1.00  0.00    -0.437 OA 
ENDROOT
BRANCH   2   3
HETATM    3  C   UNL     1     -12.038   8.471  72.435  1.00  0.00    -0.367 C  
BRANCH   3   4
HETATM    4  C   UNL     1     -11.016   8.844  71.346  1.00  0.00    -0.310 C  
HETATM    5  O   UNL     1      -9.832   9.034  71.612  1.00  0.00    -0.306 OA 
HETATM    6  N   UNL     1     -11.547   8.915  70.053  1.00  0.00    -0.457 N  
HETATM    7  H   UNL     1     -12.544   8.781  69.879  1.00  0.00     0.000 HD 
BRANCH   6   8
HETATM    8  C   UNL     1     -10.635   9.183  68.990  1.00  0.00    -0.199 A  
HETATM    9  C   UNL     1     -10.399  10.509  68.550  1.00  0.00    -0.179 A  
HETATM   10  C   UNL     1      -9.293  10.819  67.705  1.00  0.00    -0.156 A  
HETATM   11  I   UNL     1     -11.775  12.003  69.261  1.00  0.00    -0.334 I  
HETATM   12  C   UNL     1      -9.909   8.119  68.407  1.00  0.00    -0.171 A  
HETATM   13  C   UNL     1      -8.451   9.739  67.328  1.00  0.00    -0.125 A  
HETATM   14  I   UNL     1      -6.375  10.103  66.853  1.00  0.00    -0.078 I  
HETATM   15  I   UNL     1     -10.626   6.113  68.776  1.00  0.00    -0.404 I  
HETATM   16  C   UNL     1      -8.837   8.386  67.536  1.00  0.00    -0.139 A  
BRANCH  10  17
HETATM   17  C   UNL     1      -8.988  12.261  67.376  1.00  0.00    -0.183 C  
HETATM   18  O   UNL     1      -8.285  12.875  68.181  1.00  0.00    -0.148 OA 
HETATM   19  C   UNL     1     -10.234  12.323  65.134  1.00  0.00    -0.279 C  
HETATM   20  N   UNL     1      -9.514  12.923  66.250  1.00  0.00    -0.236 N  
BRANCH  20  21
HETATM   21  C   UNL     1      -9.331  14.397  66.141  1.00  0.00    -0.189 C  
BRANCH  21  22
HETATM   22  C   UNL     1     -10.658  15.149  65.861  1.00  0.00    -0.337 C  
HETATM   23  H   UNL     1     -12.348  15.545  66.824  1.00  0.00     0.000 HD 
HETATM   24  O   UNL     1     -11.535  15.085  66.996  1.00  0.00    -0.344 OA 
BRANCH  22  25
HETATM   25  C   UNL     1     -10.442  16.629  65.514  1.00  0.00    -0.267 C  
HETATM   26  H   UNL     1     -11.154  17.946  64.225  1.00  0.00     0.000 HD 
HETATM   27  O   UNL     1     -11.287  17.031  64.440  1.00  0.00    -1.140 OA 
ENDBRANCH  22  25
ENDBRANCH  21  22
ENDBRANCH  20  21
ENDBRANCH  10  17
BRANCH  16  28
HETATM   28  C   UNL     1      -8.155   7.262  66.820  1.00  0.00    -0.119 C  
HETATM   29  H   UNL     1      -9.065   7.795  65.005  1.00  0.00     0.000 HD 
HETATM   30  O   UNL     1      -7.413   6.485  67.396  1.00  0.00    -0.088 OA 
HETATM   31  N   UNL     1      -8.478   7.105  65.473  1.00  0.00    -0.132 N  
BRANCH  31  32
HETATM   32  C   UNL     1      -7.975   5.954  64.734  1.00  0.00    -0.126 C  
BRANCH  32  33
HETATM   33  C   UNL     1      -9.021   4.844  64.593  1.00  0.00    -0.111 C  
HETATM   34  O   UNL     1      -9.326   4.666  63.202  1.00  0.00    -0.283 OA 
HETATM   35  H   UNL     1      -9.975   3.977  63.115  1.00  0.00     0.000 HD 
BRANCH  33  36
HETATM   36  C   UNL     1      -8.521   3.528  65.212  1.00  0.00    -0.106 C  
HETATM   37  O   UNL     1      -7.831   3.752  66.440  1.00  0.00    -0.088 OA 
HETATM   38  H   UNL     1      -7.522   2.938  66.823  1.00  0.00     0.000 HD 
ENDBRANCH  33  36
ENDBRANCH  32  33
ENDBRANCH  31  32
ENDBRANCH  16  28
ENDBRANCH   6   8
ENDBRANCH   3   4
ENDBRANCH   2   3
TORSDOF 11
ENDMDL
MODEL        5
REMARK 921   NORMALIZED FREE ENERGY PREDICTED BY IDOCK:   -5.22 KCAL/MOL
REMARK 922        TOTAL FREE ENERGY PREDICTED BY IDOCK:   -9.69 KCAL/MOL
REMARK 923 INTER-LIGAND FREE ENERGY PREDICTED BY IDOCK:   -9.33 KCAL/MOL
REMARK 924 INTRA-LIGAND FREE ENERGY PREDICTED BY IDOCK:   -0.37 KCAL/MOL
REMARK 927      BINDING AFFINITY PREDICTED BY RF-SCORE:    0.00 PKD
ROOT
HETATM    1  C   UNL     1      -7.776   5.192  62.484  1.00  0.00    -0.064 C  
HETATM    2  O   UNL     1      -8.125   6.061  63.558  1.00  0.00    -0.117 OA 
ENDROOT
BRANCH   2   3
HETATM    3  C   UNL     1      -7.622   7.379  63.380  1.00  0.00    -0.114 C  
BRANCH   3   4
HETATM    4  C   UNL     1      -7.809   8.285  64.609  1.00  0.00    -0.132 C  
HETATM    5  O   UNL     1      -6.908   9.014  65.014  1.00  0.00    -0.075 OA 
HETATM    6  N   UNL     1      -9.082   8.221  65.188  1.00  0.00    -0.394 N  
HETATM    7  H   UNL     1      -9.793   7.577  64.840  1.00  0.00     0.000 HD 
BRANCH   6   8
HETATM    8  C   UNL     1      -9.341   9.093  66.287  1.00  0.00    -0.216 A  
HETATM    9  C   UNL     1      -9.908  10.376  66.080  1.00  0.00    -0.222 A  
HETATM   10  C   UNL     1     -10.437  11.131  67.167  1.00  0.00    -0.270 A  
HETATM   11  I   UNL     1      -9.950  11.077  64.046  1.00  0.00    -0.454 I  
HETATM   12  C   UNL     1      -9.087   8.651  67.605  1.00  0.00    -0.134 A  
HETATM   13  C   UNL     1     -10.364  10.538  68.455  1.00  0.00    -0.179 A  
HETATM   14  I   UNL     1     -11.813  11.063  69.971  1.00  0.00    -0.485 I  
HETATM   15  I   UNL     1      -7.818   6.917  67.840  1.00  0.00    -0.116 I  
HETATM   16  C   UNL     1      -9.559   9.392  68.704  1.00  0.00    -0.152 A  
BRANCH  10  17
HETATM   17  C   UNL     1     -11.164  12.425  66.891  1.00  0.00    -0.305 C  
HETATM   18  O   UNL     1     -12.191  12.350  66.216  1.00  0.00    -0.620 OA 
HETATM   19  C   UNL     1      -9.585  13.941  68.230  1.00  0.00    -0.218 C  
HETATM   20  N   UNL     1     -10.688  13.682  67.314  1.00  0.00    -0.277 N  
BRANCH  20  21
HETATM   21  C   UNL     1     -11.361  14.907  66.800  1.00  0.00    -0.328 C  
BRANCH  21  22
HETATM   22  C   UNL     1     -10.395  15.844  66.029  1.00  0.00    -0.348 C  
HETATM   23  H   UNL     1     -10.220  16.576  64.192  1.00  0.00     0.000 HD 
HETATM   24  O   UNL     1     -10.812  16.001  64.664  1.00  0.00    -0.608 OA 
BRANCH  22  25
HETATM   25  C   UNL     1     -10.296  17.243  66.656  1.00  0.00    -0.305 C  
HETATM   26  H   UNL     1     -10.409  19.123  66.060  1.00  0.00     0.000 HD 
HETATM   27  O   UNL     1     -10.470  18.258  65.672  1.00  0.00    -0.627 OA 
ENDBRANCH  22  25
ENDBRANCH  21  22
ENDBRANCH  20  21
ENDBRANCH  10  17
BRANCH  16  28
HETATM   28  C   UNL     1      -9.178   8.993  70.095  1.00  0.00    -0.192 C  
HETATM   29  H   UNL     1     -10.477   7.346  70.037  1.00  0.00     0.000 HD 
HETATM   30  O   UNL     1      -8.379   9.635  70.756  1.00  0.00    -0.264 OA 
HETATM   31  N   UNL     1      -9.848   7.891  70.625  1.00  0.00    -0.184 N  
BRANCH  31  32
HETATM   32  C   UNL     1      -9.647   7.518  72.020  1.00  0.00    -0.154 C  
BRANCH  32  33
HETATM   33  C   UNL     1     -10.925   6.984  72.674  1.00  0.00    -0.278 C  
HETATM   34  O   UNL     1     -10.896   7.296  74.074  1.00  0.00    -0.556 OA 
HETATM   35  H   UNL     1     -11.689   6.964  74.480  1.00  0.00     0.000 HD 
BRANCH  33  36
HETATM   36  C   UNL     1     -12.179   7.579  72.010  1.00  0.00    -0.280 C  
HETATM   37  O   UNL     1     -12.818   8.535  72.854  1.00  0.00    -0.656 OA 
HETATM   38  H   UNL     1     -13.592   8.903  72.444  1.00  0.00     0.000 HD 
ENDBRANCH  33  36
ENDBRANCH  32  33
ENDBRANCH  31  32
ENDBRANCH  16  28
ENDBRANCH   6   8
ENDBRANCH   3   4
ENDBRANCH   2   3
TORSDOF 11
ENDMDL
MODEL        6
REMARK 921   NORMALIZED FREE ENERGY PREDICTED BY IDOCK:   -5.16 KCAL/MOL
REMARK 922        TOTAL FREE ENERGY PREDICTED BY IDOCK:   -9.60 KCAL/MOL
REMARK 923 INTER-LIGAND FREE ENERGY PREDICTED BY IDOCK:   -8.49 KCAL/MOL
REMARK 924 INTRA-LIGAND FREE ENERGY PREDICTED BY IDOCK:   -1.11 KCAL/MOL
REMARK 927      BINDING AFFINITY PREDICTED BY RF-SCORE:    0.00 PKD
ROOT
HETATM    1  C   UNL     1     -10.294   5.914  73.747  1.00  0.00    -0.262 C  
HETATM    2  O   UNL     1     -10.662   7.288  73.659  1.00  0.00    -0.378 OA 
ENDROOT
BRANCH   2   3
HETATM    3  C   UNL     1      -9.546   8.139  73.438  1.00  0.00    -0.114 C  
BRANCH   3   4
HETATM    4  C   UNL     1      -9.370   8.563  71.970  1.00  0.00    -0.283 C  
HETATM    5  O   UNL     1      -8.340   9.100  71.573  1.00  0.00    -0.336 OA 
HETATM    6  N   UNL     1     -10.460   8.259  71.145  1.00  0.00    -0.205 N  
HETATM    7  H   UNL     1     -11.312   7.841  71.521  1.00  0.00     0.000 HD 
BRANCH   6   8
HETATM    8  C   UNL     1     -10.328   8.560  69.757  1.00  0.00    -0.212 A  
HETATM    9  C   UNL     1     -10.918   9.725  69.205  1.00  0.00    -0.193 A  
HETATM   10  C   UNL     1     -10.557  10.189  67.906  1.00  0.00    -0.294 A  
HETATM   11  I   UNL     1     -12.340  10.750  70.453  1.00  0.00    -0.371 I  
HETATM   12  C   UNL     1      -9.548   7.719  68.931  1.00  0.00    -0.154 A  
HETATM   13  C   UNL     1      -9.588   9.428  67.200  1.00  0.00    -0.154 A  
HETATM   14  I   UNL     1      -8.327  10.383  65.728  1.00  0.00    -0.166 I  
HETATM   15  I   UNL     1      -9.069   5.753  69.691  1.00  0.00    -0.174 I  
HETATM   16  C   UNL     1      -9.206   8.126  67.628  1.00  0.00    -0.150 A  
BRANCH  10  17
HETATM   17  C   UNL     1     -11.094  11.510  67.411  1.00  0.00    -0.282 C  
HETATM   18  O   UNL     1     -12.117  11.470  66.726  1.00  0.00    -0.345 OA 
HETATM   19  C   UNL     1      -9.327  12.989  68.541  1.00  0.00    -0.078 C  
HETATM   20  N   UNL     1     -10.450  12.741  67.645  1.00  0.00    -0.218 N  
BRANCH  20  21
HETATM   21  C   UNL     1     -10.941  13.949  66.928  1.00  0.00    -0.295 C  
BRANCH  21  22
HETATM   22  C   UNL     1      -9.944  14.459  65.855  1.00  0.00    -0.328 C  
HETATM   23  H   UNL     1      -9.605  14.181  63.920  1.00  0.00     0.000 HD 
HETATM   24  O   UNL     1     -10.217  13.868  64.576  1.00  0.00    -0.405 OA 
BRANCH  22  25
HETATM   25  C   UNL     1      -9.979  15.986  65.687  1.00  0.00    -0.313 C  
HETATM   26  H   UNL     1     -10.942  17.312  64.585  1.00  0.00     0.000 HD 
HETATM   27  O   UNL     1     -10.920  16.369  64.689  1.00  0.00    -0.707 OA 
ENDBRANCH  22  25
ENDBRANCH  21  22
ENDBRANCH  20  21
ENDBRANCH  10  17
BRANCH  16  28
HETATM   28  C   UNL     1      -8.492   7.182  66.712  1.00  0.00    -0.121 C  
HETATM   29  H   UNL     1     -10.311   6.403  66.010  1.00  0.00     0.000 HD 
HETATM   30  O   UNL     1      -7.275   7.130  66.657  1.00  0.00    -0.075 OA 
HETATM   31  N   UNL     1      -9.296   6.308  65.980  1.00  0.00    -0.094 N  
BRANCH  31  32
HETATM   32  C   UNL     1      -8.684   5.260  65.173  1.00  0.00    -0.146 C  
BRANCH  32  33
HETATM   33  C   UNL     1      -9.387   3.909  65.336  1.00  0.00    -0.159 C  
HETATM   34  O   UNL     1      -9.901   3.811  66.673  1.00  0.00    -0.362 OA 
HETATM   35  H   UNL     1     -10.337   2.973  66.775  1.00  0.00     0.000 HD 
BRANCH  33  36
HETATM   36  C   UNL     1     -10.518   3.744  64.307  1.00  0.00    -0.241 C  
HETATM   37  O   UNL     1     -11.743   4.304  64.775  1.00  0.00    -0.872 OA 
HETATM   38  H   UNL     1     -12.442   4.202  64.139  1.00  0.00     0.000 HD 
ENDBRANCH  33  36
ENDBRANCH  32  33
ENDBRANCH  31  32
ENDBRANCH  16  28
ENDBRANCH   6   8
ENDBRANCH   3   4
ENDBRANCH   2   3
TORSDOF 11
ENDMDL
MODEL        7
REMARK 921   NORMALIZED FREE ENERGY PREDICTED BY IDOCK:   -5.13 KCAL/MOL
REMARK 922        TOTAL FREE ENERGY PREDICTED BY IDOCK:   -9.55 KCAL/MOL
REMARK 923 INTER-LIGAND FREE ENERGY PREDICTED BY IDOCK:   -9.29 KCAL/MOL
REMARK 924 INTRA-LIGAND FREE ENERGY PREDICTED BY IDOCK:   -0.26 KCAL/MOL
REMARK 927      BINDING AFFINITY PREDICTED BY RF-SCORE:    0.00 PKD
ROOT
HETATM    1  C   UNL     1      -8.604   4.032  66.891  1.00  0.00    -0.105 C  
HETATM    2  O   UNL     1      -9.348   4.390  65.729  1.00  0.00    -0.141 OA 
ENDROOT
BRANCH   2   3
HETATM    3  C   UNL     1      -8.845   5.560  65.098  1.00  0.00    -0.079 C  
BRANCH   3   4
HETATM    4  C   UNL     1      -8.820   6.796  66.014  1.00  0.00    -0.135 C  
HETATM    5  O   UNL     1      -7.788   7.168  66.568  1.00  0.00    -0.101 OA 
HETATM    6  N   UNL     1     -10.049   7.455  66.131  1.00  0.00    -0.408 N  
HETATM    7  H   UNL     1     -10.891   7.096  65.680  1.00  0.00     0.000 HD 
BRANCH   6   8
HETATM    8  C   UNL     1     -10.074   8.652  66.908  1.00  0.00    -0.285 A  
HETATM    9  C   UNL     1      -9.662   9.889  66.353  1.00  0.00    -0.212 A  
HETATM   10  C   UNL     1      -9.952  11.123  67.005  1.00  0.00    -0.223 A  
HETATM   11  I   UNL     1      -8.620   9.784  64.472  1.00  0.00    -0.268 I  
HETATM   12  C   UNL     1     -10.575   8.617  68.229  1.00  0.00    -0.128 A  
HETATM   13  C   UNL     1     -10.665  11.047  68.231  1.00  0.00    -0.196 A  
HETATM   14  I   UNL     1     -11.907  12.700  68.861  1.00  0.00    -0.153 I  
HETATM   15  I   UNL     1     -10.749   6.679  69.170  1.00  0.00    -0.356 I  
HETATM   16  C   UNL     1     -10.835   9.815  68.920  1.00  0.00    -0.220 A  
BRANCH  10  17
HETATM   17  C   UNL     1      -9.627  12.425  66.315  1.00  0.00    -0.241 C  
HETATM   18  O   UNL     1      -8.557  12.958  66.612  1.00  0.00    -0.121 OA 
HETATM   19  C   UNL     1     -11.732  12.515  64.850  1.00  0.00    -0.359 C  
HETATM   20  N   UNL     1     -10.507  13.063  65.418  1.00  0.00    -0.290 N  
BRANCH  20  21
HETATM   21  C   UNL     1     -10.186  14.446  64.968  1.00  0.00    -0.374 C  
BRANCH  21  22
HETATM   22  C   UNL     1     -10.896  15.534  65.815  1.00  0.00    -0.331 C  
HETATM   23  H   UNL     1     -10.516  16.603  67.444  1.00  0.00     0.000 HD 
HETATM   24  O   UNL     1     -10.080  15.936  66.925  1.00  0.00    -0.253 OA 
BRANCH  22  25
HETATM   25  C   UNL     1     -11.240  16.791  65.002  1.00  0.00     0.034 C  
HETATM   26  H   UNL     1     -12.000  17.223  63.231  1.00  0.00     0.000 HD 
HETATM   27  O   UNL     1     -11.788  16.446  63.733  1.00  0.00    -1.002 OA 
ENDBRANCH  22  25
ENDBRANCH  21  22
ENDBRANCH  20  21
ENDBRANCH  10  17
BRANCH  16  28
HETATM   28  C   UNL     1     -11.240   9.776  70.360  1.00  0.00    -0.300 C  
HETATM   29  H   UNL     1     -13.270   9.933  69.849  1.00  0.00     0.000 HD 
HETATM   30  O   UNL     1     -10.421   9.697  71.260  1.00  0.00    -0.301 OA 
HETATM   31  N   UNL     1     -12.603   9.914  70.620  1.00  0.00    -0.223 N  
BRANCH  31  32
HETATM   32  C   UNL     1     -13.074  10.032  71.995  1.00  0.00    -0.441 C  
BRANCH  32  33
HETATM   33  C   UNL     1     -13.298   8.669  72.656  1.00  0.00    -0.223 C  
HETATM   34  O   UNL     1     -14.394   8.774  73.578  1.00  0.00    -1.095 OA 
HETATM   35  H   UNL     1     -14.533   7.928  73.989  1.00  0.00     0.000 HD 
BRANCH  33  36
HETATM   36  C   UNL     1     -13.575   7.580  71.606  1.00  0.00    -0.368 C  
HETATM   37  O   UNL     1     -13.215   6.285  72.080  1.00  0.00    -0.394 OA 
HETATM   38  H   UNL     1     -13.386   5.612  71.431  1.00  0.00     0.000 HD 
ENDBRANCH  33  36
ENDBRANCH  32  33
ENDBRANCH  31  32
ENDBRANCH  16  28
ENDBRANCH   6   8
ENDBRANCH   3   4
ENDBRANCH   2   3
TORSDOF 11
ENDMDL
MODEL        8
REMARK 921   NORMALIZED FREE ENERGY PREDICTED BY IDOCK:   -5.07 KCAL/MOL
REMARK 922        TOTAL FREE ENERGY PREDICTED BY IDOCK:   -9.45 KCAL/MOL
REMARK 923 INTER-LIGAND FREE ENERGY PREDICTED BY IDOCK:   -8.46 KCAL/MOL
REMARK 924 INTRA-LIGAND FREE ENERGY PREDICTED BY IDOCK:   -0.99 KCAL/MOL
REMARK 927      BINDING AFFINITY PREDICTED BY RF-SCORE:    0.00 PKD
ROOT
HETATM    1  C   UNL     1      -9.651   3.052  64.518  1.00  0.00    -0.150 C  
HETATM    2  O   UNL     1     -10.183   4.297  64.963  1.00  0.00    -0.222 OA 
ENDROOT
BRANCH   2   3
HETATM    3  C   UNL     1      -9.184   5.157  65.495  1.00  0.00    -0.136 C  
BRANCH   3   4
HETATM    4  C   UNL     1      -9.729   6.198  66.488  1.00  0.00    -0.145 C  
HETATM    5  O   UNL     1     -10.881   6.144  66.912  1.00  0.00    -0.319 OA 
HETATM    6  N   UNL     1      -8.801   7.173  66.873  1.00  0.00    -0.124 N  
HETATM    7  H   UNL     1      -7.863   7.202  66.473  1.00  0.00     0.000 HD 
BRANCH   6   8
HETATM    8  C   UNL     1      -9.224   8.124  67.849  1.00  0.00    -0.131 A  
HETATM    9  C   UNL     1      -9.738   9.387  67.462  1.00  0.00    -0.157 A  
HETATM   10  C   UNL     1     -10.427  10.219  68.392  1.00  0.00    -0.228 A  
HETATM   11  I   UNL     1      -9.446   9.936  65.401  1.00  0.00    -0.341 I  
HETATM   12  C   UNL     1      -9.189   7.780  69.220  1.00  0.00    -0.145 A  
HETATM   13  C   UNL     1     -10.566   9.722  69.714  1.00  0.00    -0.257 A  
HETATM   14  I   UNL     1     -12.234  10.355  70.935  1.00  0.00    -0.529 I  
HETATM   15  I   UNL     1      -7.992   6.070  69.781  1.00  0.00    -0.109 I  
HETATM   16  C   UNL     1      -9.823   8.599  70.172  1.00  0.00    -0.191 A  
BRANCH  10  17
HETATM   17  C   UNL     1     -11.086  11.488  67.909  1.00  0.00    -0.256 C  
HETATM   18  O   UNL     1     -12.285  11.418  67.631  1.00  0.00    -0.485 OA 
HETATM   19  C   UNL     1      -9.019  12.994  68.119  1.00  0.00    -0.198 C  
HETATM   20  N   UNL     1     -10.387  12.694  67.713  1.00  0.00    -0.216 N  
BRANCH  20  21
HETATM   21  C   UNL     1     -11.083  13.817  67.026  1.00  0.00    -0.302 C  
BRANCH  21  22
HETATM   22  C   UNL     1     -10.348  14.286  65.743  1.00  0.00    -0.327 C  
HETATM   23  H   UNL     1     -10.693  14.326  63.789  1.00  0.00     0.000 HD 
HETATM   24  O   UNL     1     -11.144  14.039  64.575  1.00  0.00    -0.381 OA 
BRANCH  22  25
HETATM   25  C   UNL     1      -9.999  15.782  65.769  1.00  0.00    -0.358 C  
HETATM   26  H   UNL     1     -10.516  17.419  64.793  1.00  0.00     0.000 HD 
HETATM   27  O   UNL     1     -10.731  16.495  64.777  1.00  0.00    -0.719 OA 
ENDBRANCH  22  25
ENDBRANCH  21  22
ENDBRANCH  20  21
ENDBRANCH  10  17
BRANCH  16  28
HETATM   28  C   UNL     1      -9.675   8.304  71.632  1.00  0.00    -0.197 C  
HETATM   29  H   UNL     1     -11.184   6.848  71.547  1.00  0.00     0.000 HD 
HETATM   30  O   UNL     1      -8.875   8.901  72.333  1.00  0.00    -0.396 OA 
HETATM   31  N   UNL     1     -10.556   7.364  72.163  1.00  0.00    -0.214 N  
BRANCH  31  32
HETATM   32  C   UNL     1     -10.581   7.119  73.600  1.00  0.00    -0.333 C  
BRANCH  32  33
HETATM   33  C   UNL     1     -10.580   5.626  73.940  1.00  0.00    -0.256 C  
HETATM   34  O   UNL     1     -11.853   5.067  73.584  1.00  0.00    -0.365 OA 
HETATM   35  H   UNL     1     -11.853   4.141  73.796  1.00  0.00     0.000 HD 
BRANCH  33  36
HETATM   36  C   UNL     1      -9.442   4.891  73.212  1.00  0.00    -0.123 C  
HETATM   37  O   UNL     1      -9.943   3.919  72.297  1.00  0.00    -0.154 OA 
HETATM   38  H   UNL     1      -9.240   3.465  71.846  1.00  0.00     0.000 HD 
ENDBRANCH  33  36
ENDBRANCH  32  33
ENDBRANCH  31  32
ENDBRANCH  16  28
ENDBRANCH   6   8
ENDBRANCH   3   4
ENDBRANCH   2   3
TORSDOF 11
ENDMDL
MODEL        9
REMARK 921   NORMALIZED FREE ENERGY PREDICTED BY IDOCK:   -5.07 KCAL/MOL
REMARK 922        TOTAL FREE ENERGY PREDICTED BY IDOCK:   -9.45 KCAL/MOL
REMARK 923 INTER-LIGAND FREE ENERGY PREDICTED BY IDOCK:   -8.05 KCAL/MOL
REMARK 924 INTRA-LIGAND FREE ENERGY PREDICTED BY IDOCK:   -1.40 KCAL/MOL
REMARK 927      BINDING AFFINITY PREDICTED BY RF-SCORE:    0.00 PKD
ROOT
HETATM    1  C   UNL     1     -13.693  13.546  72.360  1.00  0.00    -0.602 C  
HETATM    2  O   UNL     1     -14.077  14.365  71.259  1.00  0.00    -0.339 OA 
ENDROOT
BRANCH   2   3
HETATM    3  C   UNL     1     -13.291  15.546  71.158  1.00  0.00    -0.480 C  
BRANCH   3   4
HETATM    4  C   UNL     1     -11.920  15.323  70.498  1.00  0.00    -0.344 C  
HETATM    5  O   UNL     1     -10.880  15.345  71.152  1.00  0.00    -0.310 OA 
HETATM    6  N   UNL     1     -11.972  15.071  69.122  1.00  0.00    -0.459 N  
HETATM    7  H   UNL     1     -12.854  15.093  68.611  1.00  0.00     0.000 HD 
BRANCH   6   8
HETATM    8  C   UNL     1     -10.738  14.782  68.467  1.00  0.00    -0.247 A  
HETATM    9  C   UNL     1      -9.943  15.821  67.920  1.00  0.00    -0.227 A  
HETATM   10  C   UNL     1      -8.592  15.587  67.530  1.00  0.00    -0.184 A  
HETATM   11  I   UNL     1     -10.885  17.749  67.758  1.00  0.00     0.238 I  
HETATM   12  C   UNL     1     -10.270  13.449  68.416  1.00  0.00    -0.251 A  
HETATM   13  C   UNL     1      -8.091  14.271  67.712  1.00  0.00    -0.170 A  
HETATM   14  I   UNL     1      -5.976  13.954  68.023  1.00  0.00    -0.090 I  
HETATM   15  I   UNL     1     -11.697  11.881  68.834  1.00  0.00    -0.319 I  
HETATM   16  C   UNL     1      -8.955  13.177  67.996  1.00  0.00    -0.195 A  
BRANCH  10  17
HETATM   17  C   UNL     1      -7.733  16.747  67.090  1.00  0.00    -0.181 C  
HETATM   18  O   UNL     1      -7.693  16.979  65.880  1.00  0.00    -0.404 OA 
HETATM   19  C   UNL     1      -6.986  17.468  69.437  1.00  0.00    -0.098 C  
HETATM   20  N   UNL     1      -6.951  17.509  67.980  1.00  0.00    -0.190 N  
BRANCH  20  21
HETATM   21  C   UNL     1      -5.974  18.481  67.417  1.00  0.00    -0.162 C  
BRANCH  21  22
HETATM   22  C   UNL     1      -6.331  19.953  67.747  1.00  0.00    -0.221 C  
HETATM   23  H   UNL     1      -5.538  21.751  67.470  1.00  0.00     0.000 HD 
HETATM   24  O   UNL     1      -5.318  20.849  67.266  1.00  0.00    -0.174 OA 
BRANCH  22  25
HETATM   25  C   UNL     1      -7.674  20.391  67.143  1.00  0.00    -0.328 C  
HETATM   26  H   UNL     1      -8.549  20.389  65.372  1.00  0.00     0.000 HD 
HETATM   27  O   UNL     1      -7.719  20.119  65.746  1.00  0.00    -0.302 OA 
ENDBRANCH  22  25
ENDBRANCH  21  22
ENDBRANCH  20  21
ENDBRANCH  10  17
BRANCH  16  28
HETATM   28  C   UNL     1      -8.504  11.761  67.818  1.00  0.00    -0.147 C  
HETATM   29  H   UNL     1      -8.670  11.914  65.731  1.00  0.00     0.000 HD 
HETATM   30  O   UNL     1      -8.234  11.044  68.767  1.00  0.00    -0.140 OA 
HETATM   31  N   UNL     1      -8.484  11.281  66.509  1.00  0.00    -0.168 N  
BRANCH  31  32
HETATM   32  C   UNL     1      -8.197   9.875  66.253  1.00  0.00    -0.114 C  
BRANCH  32  33
HETATM   33  C   UNL     1      -9.255   9.214  65.364  1.00  0.00    -0.202 C  
HETATM   34  O   UNL     1     -10.233   8.577  66.201  1.00  0.00    -0.446 OA 
HETATM   35  H   UNL     1     -10.889   8.166  65.649  1.00  0.00     0.000 HD 
BRANCH  33  36
HETATM   36  C   UNL     1      -9.922  10.242  64.436  1.00  0.00    -0.261 C  
HETATM   37  O   UNL     1      -9.777   9.885  63.063  1.00  0.00    -0.527 OA 
HETATM   38  H   UNL     1     -10.190  10.520  62.489  1.00  0.00     0.000 HD 
ENDBRANCH  33  36
ENDBRANCH  32  33
ENDBRANCH  31  32
ENDBRANCH  16  28
ENDBRANCH   6   8
ENDBRANCH   3   4
ENDBRANCH   2   3
TORSDOF 11
ENDMDL
MODEL       10
REMARK 921   NORMALIZED FREE ENERGY PREDICTED BY IDOCK:   -5.05 KCAL/MOL
REMARK 922        TOTAL FREE ENERGY PREDICTED BY IDOCK:   -9.42 KCAL/MOL
REMARK 923 INTER-LIGAND FREE ENERGY PREDICTED BY IDOCK:   -8.16 KCAL/MOL
REMARK 924 INTRA-LIGAND FREE ENERGY PREDICTED BY IDOCK:   -1.26 KCAL/MOL
REMARK 927      BINDING AFFINITY PREDICTED BY RF-SCORE:    0.00 PKD
ROOT
HETATM    1  C   UNL     1     -14.214   8.498  72.174  1.00  0.00    -0.434 C  
HETATM    2  O   UNL     1     -12.926   9.099  72.269  1.00  0.00    -0.396 OA 
ENDROOT
BRANCH   2   3
HETATM    3  C   UNL     1     -12.935  10.471  71.898  1.00  0.00    -0.447 C  
BRANCH   3   4
HETATM    4  C   UNL     1     -12.451  10.728  70.460  1.00  0.00    -0.360 C  
HETATM    5  O   UNL     1     -13.160  10.480  69.488  1.00  0.00     0.043 OA 
HETATM    6  N   UNL     1     -11.169  11.283  70.370  1.00  0.00    -0.425 N  
HETATM    7  H   UNL     1     -10.600  11.444  71.201  1.00  0.00     0.000 HD 
BRANCH   6   8
HETATM    8  C   UNL     1     -10.694  11.613  69.066  1.00  0.00    -0.179 A  
HETATM    9  C   UNL     1      -9.903  10.699  68.327  1.00  0.00    -0.163 A  
HETATM   10  C   UNL     1      -9.669  10.886  66.932  1.00  0.00    -0.210 A  
HETATM   11  I   UNL     1      -9.123   9.018  69.422  1.00  0.00    -0.167 I  
HETATM   12  C   UNL     1     -11.068  12.842  68.477  1.00  0.00    -0.266 A  
HETATM   13  C   UNL     1     -10.262  12.027  66.331  1.00  0.00    -0.216 A  
HETATM   14  I   UNL     1     -10.761  12.005  64.228  1.00  0.00    -0.521 I  
HETATM   15  I   UNL     1     -11.864  14.366  69.787  1.00  0.00    -0.408 I  
HETATM   16  C   UNL     1     -10.816  13.079  67.113  1.00  0.00    -0.278 A  
BRANCH  10  17
HETATM   17  C   UNL     1      -8.946   9.818  66.148  1.00  0.00    -0.152 C  
HETATM   18  O   UNL     1      -9.631   8.888  65.718  1.00  0.00    -0.243 OA 
HETATM   19  C   UNL     1      -6.619  10.893  66.262  1.00  0.00    -0.126 C  
HETATM   20  N   UNL     1      -7.552   9.816  65.952  1.00  0.00    -0.100 N  
BRANCH  20  21
HETATM   21  C   UNL     1      -6.918   8.607  65.358  1.00  0.00    -0.075 C  
BRANCH  21  22
HETATM   22  C   UNL     1      -6.116   8.919  64.068  1.00  0.00    -0.072 C  
HETATM   23  H   UNL     1      -4.695   8.059  62.982  1.00  0.00     0.000 HD 
HETATM   24  O   UNL     1      -5.186   7.867  63.772  1.00  0.00    -0.040 OA 
BRANCH  22  25
HETATM   25  C   UNL     1      -7.016   9.113  62.839  1.00  0.00    -0.091 C  
HETATM   26  H   UNL     1      -7.992  10.589  61.961  1.00  0.00     0.000 HD 
HETATM   27  O   UNL     1      -7.436  10.469  62.721  1.00  0.00    -0.140 OA 
ENDBRANCH  22  25
ENDBRANCH  21  22
ENDBRANCH  20  21
ENDBRANCH  10  17
BRANCH  16  28
HETATM   28  C   UNL     1     -11.093  14.426  66.523  1.00  0.00    -0.331 C  
HETATM   29  H   UNL     1      -9.172  15.103  67.031  1.00  0.00     0.000 HD 
HETATM   30  O   UNL     1     -12.170  14.704  66.022  1.00  0.00    -0.286 OA 
HETATM   31  N   UNL     1     -10.078  15.374  66.649  1.00  0.00    -0.258 N  
BRANCH  31  32
HETATM   32  C   UNL     1     -10.312  16.751  66.233  1.00  0.00    -0.310 C  
BRANCH  32  33
HETATM   33  C   UNL     1     -10.534  17.692  67.422  1.00  0.00    -0.356 C  
HETATM   34  O   UNL     1      -9.656  17.306  68.490  1.00  0.00    -0.271 OA 
HETATM   35  H   UNL     1      -9.794  17.890  69.227  1.00  0.00     0.000 HD 
BRANCH  33  36
HETATM   36  C   UNL     1     -10.292  19.157  67.022  1.00  0.00    -0.414 C  
HETATM   37  O   UNL     1     -10.619  19.392  65.654  1.00  0.00    -0.470 OA 
HETATM   38  H   UNL     1     -10.469  20.297  65.407  1.00  0.00     0.000 HD 
ENDBRANCH  33  36
ENDBRANCH  32  33
ENDBRANCH  31  32
ENDBRANCH  16  28
ENDBRANCH   6   8
ENDBRANCH   3   4
ENDBRANCH   2   3
TORSDOF 11
ENDMDL
MODEL       11
REMARK 921   NORMALIZED FREE ENERGY PREDICTED BY IDOCK:   -5.03 KCAL/MOL
REMARK 922        TOTAL FREE ENERGY PREDICTED BY IDOCK:   -9.39 KCAL/MOL
REMARK 923 INTER-LIGAND FREE ENERGY PREDICTED BY IDOCK:   -8.16 KCAL/MOL
REMARK 924 INTRA-LIGAND FREE ENERGY PREDICTED BY IDOCK:   -1.23 KCAL/MOL
REMARK 927      BINDING AFFINITY PREDICTED BY RF-SCORE:    0.00 PKD
ROOT
HETATM    1  C   UNL     1     -13.738   8.153  71.964  1.00  0.00    -0.295 C  
HETATM    2  O   UNL     1     -12.449   7.860  72.497  1.00  0.00    -0.218 OA 
ENDROOT
BRANCH   2   3
HETATM    3  C   UNL     1     -11.722   6.942  71.691  1.00  0.00    -0.304 C  
BRANCH   3   4
HETATM    4  C   UNL     1     -11.202   7.549  70.376  1.00  0.00    -0.253 C  
HETATM    5  O   UNL     1     -11.472   7.051  69.286  1.00  0.00    -0.065 OA 
HETATM    6  N   UNL     1     -10.435   8.709  70.536  1.00  0.00    -0.200 N  
HETATM    7  H   UNL     1     -10.207   9.072  71.462  1.00  0.00     0.000 HD 
BRANCH   6   8
HETATM    8  C   UNL     1      -9.986   9.360  69.349  1.00  0.00    -0.183 A  
HETATM    9  C   UNL     1      -8.843   8.897  68.652  1.00  0.00    -0.137 A  
HETATM   10  C   UNL     1      -8.556   9.343  67.328  1.00  0.00    -0.129 A  
HETATM   11  I   UNL     1      -7.611   7.470  69.692  1.00  0.00    -0.098 I  
HETATM   12  C   UNL     1     -10.727  10.444  68.825  1.00  0.00    -0.225 A  
HETATM   13  C   UNL     1      -9.465  10.269  66.753  1.00  0.00    -0.163 A  
HETATM   14  I   UNL     1      -9.704  10.357  64.607  1.00  0.00    -0.346 I  
HETATM   15  I   UNL     1     -12.158  11.393  70.138  1.00  0.00    -0.353 I  
HETATM   16  C   UNL     1     -10.444  10.938  67.538  1.00  0.00    -0.252 A  
BRANCH  10  17
HETATM   17  C   UNL     1      -7.414   8.719  66.563  1.00  0.00    -0.085 C  
HETATM   18  O   UNL     1      -6.365   9.363  66.511  1.00  0.00    -0.064 OA 
HETATM   19  C   UNL     1      -8.626   6.542  65.947  1.00  0.00    -0.149 C  
HETATM   20  N   UNL     1      -7.524   7.494  65.876  1.00  0.00    -0.080 N  
BRANCH  20  21
HETATM   21  C   UNL     1      -6.413   7.081  64.975  1.00  0.00    -0.043 C  
BRANCH  21  22
HETATM   22  C   UNL     1      -6.458   7.795  63.599  1.00  0.00    -0.062 C  
HETATM   23  H   UNL     1      -5.237   8.094  62.063  1.00  0.00     0.000 HD 
HETATM   24  O   UNL     1      -5.209   7.656  62.905  1.00  0.00    -0.040 OA 
BRANCH  22  25
HETATM   25  C   UNL     1      -7.569   7.257  62.684  1.00  0.00    -0.110 C  
HETATM   26  H   UNL     1      -8.226   5.502  62.061  1.00  0.00     0.000 HD 
HETATM   27  O   UNL     1      -7.539   5.835  62.626  1.00  0.00    -0.062 OA 
ENDBRANCH  22  25
ENDBRANCH  21  22
ENDBRANCH  20  21
ENDBRANCH  10  17
BRANCH  16  28
HETATM   28  C   UNL     1     -11.139  12.166  67.038  1.00  0.00    -0.294 C  
HETATM   29  H   UNL     1      -9.600  13.397  67.761  1.00  0.00     0.000 HD 
HETATM   30  O   UNL     1     -12.217  12.113  66.471  1.00  0.00    -0.584 OA 
HETATM   31  N   UNL     1     -10.522  13.383  67.326  1.00  0.00    -0.247 N  
BRANCH  31  32
HETATM   32  C   UNL     1     -11.196  14.635  67.005  1.00  0.00    -0.344 C  
BRANCH  32  33
HETATM   33  C   UNL     1     -10.615  15.311  65.760  1.00  0.00    -0.347 C  
HETATM   34  O   UNL     1      -9.344  14.716  65.458  1.00  0.00    -0.493 OA 
HETATM   35  H   UNL     1      -8.984  15.136  64.685  1.00  0.00     0.000 HD 
BRANCH  33  36
HETATM   36  C   UNL     1     -11.572  15.183  64.562  1.00  0.00    -0.329 C  
HETATM   37  O   UNL     1     -11.615  16.383  63.792  1.00  0.00    -1.605 OA 
HETATM   38  H   UNL     1     -12.206  16.304  63.052  1.00  0.00     0.000 HD 
ENDBRANCH  33  36
ENDBRANCH  32  33
ENDBRANCH  31  32
ENDBRANCH  16  28
ENDBRANCH   6   8
ENDBRANCH   3   4
ENDBRANCH   2   3
TORSDOF 11
ENDMDL
MODEL       12
REMARK 921   NORMALIZED FREE ENERGY PREDICTED BY IDOCK:   -4.98 KCAL/MOL
REMARK 922        TOTAL FREE ENERGY PREDICTED BY IDOCK:   -9.31 KCAL/MOL
REMARK 923 INTER-LIGAND FREE ENERGY PREDICTED BY IDOCK:   -8.61 KCAL/MOL
REMARK 924 INTRA-LIGAND FREE ENERGY PREDICTED BY IDOCK:   -0.69 KCAL/MOL
REMARK 927      BINDING AFFINITY PREDICTED BY RF-SCORE:    0.00 PKD
ROOT
HETATM    1  C   UNL     1      -9.049  11.055  62.506  1.00  0.00    -0.323 C  
HETATM    2  O   UNL     1     -10.153  10.522  63.231  1.00  0.00    -0.256 OA 
ENDROOT
BRANCH   2   3
HETATM    3  C   UNL     1     -11.227  11.446  63.347  1.00  0.00    -0.157 C  
BRANCH   3   4
HETATM    4  C   UNL     1     -11.477  11.929  64.786  1.00  0.00    -0.260 C  
HETATM    5  O   UNL     1     -12.564  12.383  65.133  1.00  0.00    -0.622 OA 
HETATM    6  N   UNL     1     -10.383  11.778  65.646  1.00  0.00    -0.243 N  
HETATM    7  H   UNL     1      -9.487  11.425  65.310  1.00  0.00     0.000 HD 
BRANCH   6   8
HETATM    8  C   UNL     1     -10.576  12.139  67.013  1.00  0.00    -0.228 A  
HETATM    9  C   UNL     1     -10.563  13.497  67.416  1.00  0.00    -0.251 A  
HETATM   10  C   UNL     1     -11.039  13.889  68.702  1.00  0.00    -0.290 A  
HETATM   11  I   UNL     1      -9.827  14.909  65.968  1.00  0.00    -0.339 I  
HETATM   12  C   UNL     1     -10.846  11.133  67.969  1.00  0.00    -0.225 A  
HETATM   13  C   UNL     1     -11.517  12.855  69.550  1.00  0.00    -0.225 A  
HETATM   14  I   UNL     1     -13.008  13.294  71.052  1.00  0.00     0.037 I  
HETATM   15  I   UNL     1     -10.403   9.092  67.412  1.00  0.00    -0.267 I  
HETATM   16  C   UNL     1     -11.278  11.483  69.262  1.00  0.00    -0.336 A  
BRANCH  10  17
HETATM   17  C   UNL     1     -11.146  15.355  69.042  1.00  0.00    -0.268 C  
HETATM   18  O   UNL     1     -12.273  15.853  68.997  1.00  0.00    -0.253 OA 
HETATM   19  C   UNL     1      -8.662  15.719  69.572  1.00  0.00    -0.160 C  
HETATM   20  N   UNL     1     -10.031  16.163  69.337  1.00  0.00    -0.248 N  
BRANCH  20  21
HETATM   21  C   UNL     1     -10.225  17.636  69.438  1.00  0.00    -0.043 C  
BRANCH  21  22
HETATM   22  C   UNL     1      -9.731  18.395  68.180  1.00  0.00    -0.331 C  
HETATM   23  H   UNL     1     -10.532  19.394  66.663  1.00  0.00     0.000 HD 
HETATM   24  O   UNL     1     -10.835  18.929  67.434  1.00  0.00    -0.458 OA 
BRANCH  22  25
HETATM   25  C   UNL     1      -8.784  19.557  68.518  1.00  0.00    -0.345 C  
HETATM   26  H   UNL     1      -6.950  19.791  69.214  1.00  0.00     0.000 HD 
HETATM   27  O   UNL     1      -7.536  19.074  69.005  1.00  0.00    -0.336 OA 
ENDBRANCH  22  25
ENDBRANCH  21  22
ENDBRANCH  20  21
ENDBRANCH  10  17
BRANCH  16  28
HETATM   28  C   UNL     1     -11.437  10.427  70.310  1.00  0.00    -0.325 C  
HETATM   29  H   UNL     1      -9.372  10.414  70.688  1.00  0.00     0.000 HD 
HETATM   30  O   UNL     1     -12.524   9.946  70.584  1.00  0.00    -0.262 OA 
HETATM   31  N   UNL     1     -10.262   9.964  70.902  1.00  0.00    -0.117 N  
BRANCH  31  32
HETATM   32  C   UNL     1     -10.306   8.839  71.826  1.00  0.00    -0.343 C  
BRANCH  32  33
HETATM   33  C   UNL     1     -10.397   7.491  71.105  1.00  0.00    -0.200 C  
HETATM   34  O   UNL     1      -9.135   6.816  71.219  1.00  0.00    -0.150 OA 
HETATM   35  H   UNL     1      -9.192   5.980  70.771  1.00  0.00     0.000 HD 
BRANCH  33  36
HETATM   36  C   UNL     1     -11.529   6.626  71.685  1.00  0.00    -0.288 C  
HETATM   37  O   UNL     1     -12.500   7.417  72.368  1.00  0.00    -0.500 OA 
HETATM   38  H   UNL     1     -13.199   6.883  72.726  1.00  0.00     0.000 HD 
ENDBRANCH  33  36
ENDBRANCH  32  33
ENDBRANCH  31  32
ENDBRANCH  16  28
ENDBRANCH   6   8
ENDBRANCH   3   4
ENDBRANCH   2   3
TORSDOF 11
ENDMDL
MODEL       13
REMARK 921   NORMALIZED FREE ENERGY PREDICTED BY IDOCK:   -4.94 KCAL/MOL
REMARK 922        TOTAL FREE ENERGY PREDICTED BY IDOCK:   -9.24 KCAL/MOL
REMARK 923 INTER-LIGAND FREE ENERGY PREDICTED BY IDOCK:   -8.75 KCAL/MOL
REMARK 924 INTRA-LIGAND FREE ENERGY PREDICTED BY IDOCK:   -0.49 KCAL/MOL
REMARK 927      BINDING AFFINITY PREDICTED BY RF-SCORE:    0.00 PKD
ROOT
HETATM    1  C   UNL     1     -10.117   6.760  74.160  1.00  0.00    -0.350 C  
HETATM    2  O   UNL     1     -10.997   6.619  73.048  1.00  0.00    -0.260 OA 
ENDROOT
BRANCH   2   3
HETATM    3  C   UNL     1     -11.596   7.851  72.666  1.00  0.00    -0.377 C  
BRANCH   3   4
HETATM    4  C   UNL     1     -10.813   8.610  71.581  1.00  0.00    -0.304 C  
HETATM    5  O   UNL     1      -9.783   9.225  71.841  1.00  0.00    -0.260 OA 
HETATM    6  N   UNL     1     -11.359   8.511  70.296  1.00  0.00    -0.420 N  
HETATM    7  H   UNL     1     -12.236   8.016  70.127  1.00  0.00     0.000 HD 
BRANCH   6   8
HETATM    8  C   UNL     1     -10.638   9.131  69.233  1.00  0.00    -0.216 A  
HETATM    9  C   UNL     1      -9.586   8.450  68.571  1.00  0.00    -0.149 A  
HETATM   10  C   UNL     1      -9.060   8.930  67.336  1.00  0.00    -0.147 A  
HETATM   11  I   UNL     1      -8.877   6.652  69.519  1.00  0.00    -0.136 I  
HETATM   12  C   UNL     1     -11.017  10.419  68.791  1.00  0.00    -0.245 A  
HETATM   13  C   UNL     1      -9.636  10.117  66.812  1.00  0.00    -0.177 A  
HETATM   14  I   UNL     1      -9.622  10.475  64.680  1.00  0.00    -0.415 I  
HETATM   15  I   UNL     1     -12.284  11.582  70.100  1.00  0.00    -0.262 I  
HETATM   16  C   UNL     1     -10.486  10.943  67.598  1.00  0.00    -0.244 A  
BRANCH  10  17
HETATM   17  C   UNL     1      -8.044   8.102  66.587  1.00  0.00    -0.103 C  
HETATM   18  O   UNL     1      -6.872   8.480  66.642  1.00  0.00    -0.069 OA 
HETATM   19  C   UNL     1      -9.683   6.320  65.739  1.00  0.00     0.340 C  
HETATM   20  N   UNL     1      -8.388   6.984  65.802  1.00  0.00    -0.138 N  
BRANCH  20  21
HETATM   21  C   UNL     1      -7.343   6.377  64.932  1.00  0.00    -0.079 C  
BRANCH  21  22
HETATM   22  C   UNL     1      -6.781   5.049  65.504  1.00  0.00    -0.056 C  
HETATM   23  H   UNL     1      -5.986   3.372  64.801  1.00  0.00     0.000 HD 
HETATM   24  O   UNL     1      -6.330   4.185  64.450  1.00  0.00    -0.031 OA 
BRANCH  22  25
HETATM   25  C   UNL     1      -5.608   5.266  66.472  1.00  0.00    -0.017 C  
HETATM   26  H   UNL     1      -4.699   4.266  67.912  1.00  0.00     0.000 HD 
HETATM   27  O   UNL     1      -5.424   4.132  67.314  1.00  0.00    -0.012 OA 
ENDBRANCH  22  25
ENDBRANCH  21  22
ENDBRANCH  20  21
ENDBRANCH  10  17
BRANCH  16  28
HETATM   28  C   UNL     1     -10.787  12.355  67.200  1.00  0.00    -0.245 C  
HETATM   29  H   UNL     1     -12.671  11.802  66.459  1.00  0.00     0.000 HD 
HETATM   30  O   UNL     1      -9.987  13.259  67.373  1.00  0.00    -0.227 OA 
HETATM   31  N   UNL     1     -12.001  12.566  66.550  1.00  0.00    -0.365 N  
BRANCH  31  32
HETATM   32  C   UNL     1     -12.314  13.879  66.000  1.00  0.00    -0.475 C  
BRANCH  32  33
HETATM   33  C   UNL     1     -11.521  14.185  64.726  1.00  0.00    -0.383 C  
HETATM   34  O   UNL     1     -12.379  14.006  63.589  1.00  0.00    -0.942 OA 
HETATM   35  H   UNL     1     -11.887  14.195  62.799  1.00  0.00     0.000 HD 
BRANCH  33  36
HETATM   36  C   UNL     1     -10.952  15.614  64.756  1.00  0.00    -0.400 C  
HETATM   37  O   UNL     1     -11.525  16.431  63.737  1.00  0.00    -1.590 OA 
HETATM   38  H   UNL     1     -11.173  17.313  63.755  1.00  0.00     0.000 HD 
ENDBRANCH  33  36
ENDBRANCH  32  33
ENDBRANCH  31  32
ENDBRANCH  16  28
ENDBRANCH   6   8
ENDBRANCH   3   4
ENDBRANCH   2   3
TORSDOF 11
ENDMDL
MODEL       14
REMARK 921   NORMALIZED FREE ENERGY PREDICTED BY IDOCK:   -4.92 KCAL/MOL
REMARK 922        TOTAL FREE ENERGY PREDICTED BY IDOCK:   -9.20 KCAL/MOL
REMARK 923 INTER-LIGAND FREE ENERGY PREDICTED BY IDOCK:   -7.94 KCAL/MOL
REMARK 924 INTRA-LIGAND FREE ENERGY PREDICTED BY IDOCK:   -1.26 KCAL/MOL
REMARK 927      BINDING AFFINITY PREDICTED BY RF-SCORE:    0.00 PKD
ROOT
HETATM    1  C   UNL     1     -11.082   5.530  72.758  1.00  0.00    -0.291 C  
HETATM    2  O   UNL     1     -10.766   6.762  73.399  1.00  0.00    -0.292 OA 
ENDROOT
BRANCH   2   3
HETATM    3  C   UNL     1     -11.444   7.869  72.819  1.00  0.00    -0.368 C  
BRANCH   3   4
HETATM    4  C   UNL     1     -10.685   8.516  71.648  1.00  0.00    -0.281 C  
HETATM    5  O   UNL     1      -9.597   9.062  71.810  1.00  0.00    -0.290 OA 
HETATM    6  N   UNL     1     -11.326   8.403  70.409  1.00  0.00    -0.389 N  
HETATM    7  H   UNL     1     -12.245   7.970  70.323  1.00  0.00     0.000 HD 
BRANCH   6   8
HETATM    8  C   UNL     1     -10.636   8.919  69.271  1.00  0.00    -0.207 A  
HETATM    9  C   UNL     1     -10.761  10.281  68.900  1.00  0.00    -0.227 A  
HETATM   10  C   UNL     1      -9.867  10.874  67.961  1.00  0.00    -0.185 A  
HETATM   11  I   UNL     1     -12.338  11.385  69.862  1.00  0.00    -0.102 I  
HETATM   12  C   UNL     1      -9.768   8.077  68.540  1.00  0.00    -0.159 A  
HETATM   13  C   UNL     1      -8.858  10.034  67.420  1.00  0.00    -0.128 A  
HETATM   14  I   UNL     1      -6.992  10.888  66.742  1.00  0.00    -0.134 I  
HETATM   15  I   UNL     1      -9.964   5.946  68.846  1.00  0.00    -0.276 I  
HETATM   16  C   UNL     1      -8.900   8.621  67.575  1.00  0.00    -0.139 A  
BRANCH  10  17
HETATM   17  C   UNL     1      -9.937  12.359  67.701  1.00  0.00    -0.200 C  
HETATM   18  O   UNL     1      -9.313  13.087  68.475  1.00  0.00    -0.176 OA 
HETATM   19  C   UNL     1     -11.393  12.221  65.592  1.00  0.00    -0.350 C  
HETATM   20  N   UNL     1     -10.717  12.926  66.674  1.00  0.00    -0.263 N  
BRANCH  20  21
HETATM   21  C   UNL     1     -10.890  14.405  66.645  1.00  0.00    -0.304 C  
BRANCH  21  22
HETATM   22  C   UNL     1      -9.865  15.112  65.721  1.00  0.00    -0.351 C  
HETATM   23  H   UNL     1      -9.891  16.476  64.278  1.00  0.00     0.000 HD 
HETATM   24  O   UNL     1     -10.519  16.042  64.845  1.00  0.00    -0.574 OA 
BRANCH  22  25
HETATM   25  C   UNL     1      -8.787  15.879  66.502  1.00  0.00    -0.305 C  
HETATM   26  H   UNL     1      -7.780  17.568  66.328  1.00  0.00     0.000 HD 
HETATM   27  O   UNL     1      -8.446  17.095  65.845  1.00  0.00    -0.529 OA 
ENDBRANCH  22  25
ENDBRANCH  21  22
ENDBRANCH  20  21
ENDBRANCH  10  17
BRANCH  16  28
HETATM   28  C   UNL     1      -8.078   7.717  66.712  1.00  0.00    -0.115 C  
HETATM   29  H   UNL     1      -9.492   7.818  65.164  1.00  0.00     0.000 HD 
HETATM   30  O   UNL     1      -7.018   7.247  67.092  1.00  0.00    -0.073 OA 
HETATM   31  N   UNL     1      -8.628   7.376  65.477  1.00  0.00    -0.117 N  
BRANCH  31  32
HETATM   32  C   UNL     1      -7.966   6.389  64.633  1.00  0.00    -0.118 C  
BRANCH  32  33
HETATM   33  C   UNL     1      -7.828   6.858  63.181  1.00  0.00    -0.104 C  
HETATM   34  O   UNL     1      -8.927   6.336  62.418  1.00  0.00    -0.339 OA 
HETATM   35  H   UNL     1      -8.841   6.627  61.517  1.00  0.00     0.000 HD 
BRANCH  33  36
HETATM   36  C   UNL     1      -7.788   8.393  63.094  1.00  0.00    -0.147 C  
HETATM   37  O   UNL     1      -8.980   8.920  62.515  1.00  0.00    -0.411 OA 
HETATM   38  H   UNL     1      -8.955   9.868  62.462  1.00  0.00     0.000 HD 
ENDBRANCH  33  36
ENDBRANCH  32  33
ENDBRANCH  31  32
ENDBRANCH  16  28
ENDBRANCH   6   8
ENDBRANCH   3   4
ENDBRANCH   2   3
TORSDOF 11
ENDMDL
MODEL       15
REMARK 921   NORMALIZED FREE ENERGY PREDICTED BY IDOCK:   -4.89 KCAL/MOL
REMARK 922        TOTAL FREE ENERGY PREDICTED BY IDOCK:   -9.16 KCAL/MOL
REMARK 923 INTER-LIGAND FREE ENERGY PREDICTED BY IDOCK:   -8.04 KCAL/MOL
REMARK 924 INTRA-LIGAND FREE ENERGY PREDICTED BY IDOCK:   -1.12 KCAL/MOL
REMARK 927      BINDING AFFINITY PREDICTED BY RF-SCORE:    0.00 PKD
ROOT
HETATM    1  C   UNL     1      -5.345   6.556  62.538  1.00  0.00    -0.023 C  
HETATM    2  O   UNL     1      -6.349   7.357  63.155  1.00  0.00    -0.052 OA 
ENDROOT
BRANCH   2   3
HETATM    3  C   UNL     1      -5.802   8.386  63.968  1.00  0.00    -0.066 C  
BRANCH   3   4
HETATM    4  C   UNL     1      -6.820   9.025  64.928  1.00  0.00    -0.076 C  
HETATM    5  O   UNL     1      -6.494   9.903  65.722  1.00  0.00    -0.081 OA 
HETATM    6  N   UNL     1      -8.126   8.540  64.794  1.00  0.00    -0.143 N  
HETATM    7  H   UNL     1      -8.350   7.785  64.144  1.00  0.00     0.000 HD 
BRANCH   6   8
HETATM    8  C   UNL     1      -9.132   9.145  65.605  1.00  0.00    -0.219 A  
HETATM    9  C   UNL     1      -9.420   8.647  66.900  1.00  0.00    -0.180 A  
HETATM   10  C   UNL     1     -10.198   9.404  67.825  1.00  0.00    -0.273 A  
HETATM   11  I   UNL     1      -8.586   6.723  67.383  1.00  0.00    -0.119 I  
HETATM   12  C   UNL     1      -9.807  10.295  65.137  1.00  0.00    -0.321 A  
HETATM   13  C   UNL     1     -10.667  10.669  67.382  1.00  0.00    -0.276 A  
HETATM   14  I   UNL     1     -11.049  12.242  68.814  1.00  0.00    -0.313 I  
HETATM   15  I   UNL     1      -9.675  10.731  63.024  1.00  0.00    -0.181 I  
HETATM   16  C   UNL     1     -10.617  11.045  66.011  1.00  0.00    -0.275 A  
BRANCH  10  17
HETATM   17  C   UNL     1     -10.361   8.910  69.241  1.00  0.00    -0.213 C  
HETATM   18  O   UNL     1     -11.392   8.283  69.493  1.00  0.00     0.067 OA 
HETATM   19  C   UNL     1      -8.113   9.780  70.119  1.00  0.00    -0.182 C  
HETATM   20  N   UNL     1      -9.435   9.186  70.266  1.00  0.00    -0.201 N  
BRANCH  20  21
HETATM   21  C   UNL     1      -9.802   8.843  71.668  1.00  0.00    -0.317 C  
BRANCH  21  22
HETATM   22  C   UNL     1      -8.698   8.033  72.397  1.00  0.00    -0.167 C  
HETATM   23  H   UNL     1      -7.948   7.900  74.230  1.00  0.00     0.000 HD 
HETATM   24  O   UNL     1      -8.624   8.396  73.784  1.00  0.00    -0.277 OA 
BRANCH  22  25
HETATM   25  C   UNL     1      -8.922   6.515  72.318  1.00  0.00    -0.138 C  
HETATM   26  H   UNL     1     -10.073   5.258  71.319  1.00  0.00     0.000 HD 
HETATM   27  O   UNL     1      -9.935   6.196  71.368  1.00  0.00    -0.183 OA 
ENDBRANCH  22  25
ENDBRANCH  21  22
ENDBRANCH  20  21
ENDBRANCH  10  17
BRANCH  16  28
HETATM   28  C   UNL     1     -11.432  12.184  65.484  1.00  0.00    -0.343 C  
HETATM   29  H   UNL     1      -9.736  13.414  65.363  1.00  0.00     0.000 HD 
HETATM   30  O   UNL     1     -12.638  12.095  65.321  1.00  0.00    -0.494 OA 
HETATM   31  N   UNL     1     -10.750  13.380  65.263  1.00  0.00    -0.302 N  
BRANCH  31  32
HETATM   32  C   UNL     1     -11.487  14.580  64.888  1.00  0.00    -0.396 C  
BRANCH  32  33
HETATM   33  C   UNL     1     -10.599  15.827  64.857  1.00  0.00    -0.284 C  
HETATM   34  O   UNL     1     -11.249  16.842  64.077  1.00  0.00    -1.438 OA 
HETATM   35  H   UNL     1     -10.698  17.616  64.058  1.00  0.00     0.000 HD 
BRANCH  33  36
HETATM   36  C   UNL     1     -10.310  16.338  66.279  1.00  0.00    -0.326 C  
HETATM   37  O   UNL     1      -8.931  16.658  66.454  1.00  0.00    -0.248 OA 
HETATM   38  H   UNL     1      -8.753  16.974  67.332  1.00  0.00     0.000 HD 
ENDBRANCH  33  36
ENDBRANCH  32  33
ENDBRANCH  31  32
ENDBRANCH  16  28
ENDBRANCH   6   8
ENDBRANCH   3   4
ENDBRANCH   2   3
TORSDOF 11
ENDMDL
MODEL       16
REMARK 921   NORMALIZED FREE ENERGY PREDICTED BY IDOCK:   -4.88 KCAL/MOL
REMARK 922        TOTAL FREE ENERGY PREDICTED BY IDOCK:   -9.14 KCAL/MOL
REMARK 923 INTER-LIGAND FREE ENERGY PREDICTED BY IDOCK:   -8.05 KCAL/MOL
REMARK 924 INTRA-LIGAND FREE ENERGY PREDICTED BY IDOCK:   -1.09 KCAL/MOL
REMARK 927      BINDING AFFINITY PREDICTED BY RF-SCORE:    0.00 PKD
ROOT
HETATM    1  C   UNL     1      -5.629   5.378  63.623  1.00  0.00    -0.014 C  
HETATM    2  O   UNL     1      -6.203   6.426  62.846  1.00  0.00    -0.029 OA 
ENDROOT
BRANCH   2   3
HETATM    3  C   UNL     1      -5.893   7.716  63.357  1.00  0.00    -0.053 C  
BRANCH   3   4
HETATM    4  C   UNL     1      -6.814   8.166  64.504  1.00  0.00    -0.068 C  
HETATM    5  O   UNL     1      -6.378   8.764  65.484  1.00  0.00    -0.061 OA 
HETATM    6  N   UNL     1      -8.167   7.860  64.315  1.00  0.00    -0.318 N  
HETATM    7  H   UNL     1      -8.485   7.332  63.501  1.00  0.00     0.000 HD 
BRANCH   6   8
HETATM    8  C   UNL     1      -9.082   8.317  65.309  1.00  0.00     0.142 A  
HETATM    9  C   UNL     1      -9.469   7.478  66.384  1.00  0.00    -0.147 A  
HETATM   10  C   UNL     1     -10.139   8.005  67.527  1.00  0.00    -0.281 A  
HETATM   11  I   UNL     1      -8.953   5.397  66.195  1.00  0.00    -0.153 I  
HETATM   12  C   UNL     1      -9.562   9.646  65.259  1.00  0.00    -0.277 A  
HETATM   13  C   UNL     1     -10.398   9.401  67.529  1.00  0.00    -0.255 A  
HETATM   14  I   UNL     1     -10.560  10.466  69.403  1.00  0.00    -0.305 I  
HETATM   15  I   UNL     1      -9.323  10.714  63.395  1.00  0.00    -0.403 I  
HETATM   16  C   UNL     1     -10.263  10.188  66.352  1.00  0.00    -0.288 A  
BRANCH  10  17
HETATM   17  C   UNL     1     -10.405   7.111  68.713  1.00  0.00    -0.192 C  
HETATM   18  O   UNL     1     -11.518   6.586  68.772  1.00  0.00    -0.241 OA 
HETATM   19  C   UNL     1      -8.080   7.334  69.777  1.00  0.00    -0.128 C  
HETATM   20  N   UNL     1      -9.476   6.913  69.753  1.00  0.00    -0.146 N  
BRANCH  20  21
HETATM   21  C   UNL     1      -9.921   6.193  70.978  1.00  0.00    -0.184 C  
BRANCH  21  22
HETATM   22  C   UNL     1      -9.920   4.652  70.805  1.00  0.00    -0.214 C  
HETATM   23  H   UNL     1      -8.633   3.240  70.267  1.00  0.00     0.000 HD 
HETATM   24  O   UNL     1      -8.633   4.184  70.374  1.00  0.00    -0.071 OA 
BRANCH  22  25
HETATM   25  C   UNL     1     -10.285   3.907  72.097  1.00  0.00    -0.126 C  
HETATM   26  H   UNL     1     -10.882   4.358  73.925  1.00  0.00     0.000 HD 
HETATM   27  O   UNL     1     -10.656   4.819  73.126  1.00  0.00    -0.182 OA 
ENDBRANCH  22  25
ENDBRANCH  21  22
ENDBRANCH  20  21
ENDBRANCH  10  17
BRANCH  16  28
HETATM   28  C   UNL     1     -10.882  11.546  66.246  1.00  0.00    -0.282 C  
HETATM   29  H   UNL     1      -8.998  12.469  66.308  1.00  0.00     0.000 HD 
HETATM   30  O   UNL     1     -12.090  11.703  66.183  1.00  0.00    -0.308 OA 
HETATM   31  N   UNL     1     -10.005  12.629  66.301  1.00  0.00    -0.254 N  
BRANCH  31  32
HETATM   32  C   UNL     1     -10.528  13.988  66.350  1.00  0.00    -0.284 C  
BRANCH  32  33
HETATM   33  C   UNL     1     -10.548  14.658  64.972  1.00  0.00    -0.439 C  
HETATM   34  O   UNL     1     -11.528  14.004  64.152  1.00  0.00    -0.569 OA 
HETATM   35  H   UNL     1     -11.540  14.420  63.297  1.00  0.00     0.000 HD 
BRANCH  33  36
HETATM   36  C   UNL     1     -10.854  16.160  65.091  1.00  0.00    -0.361 C  
HETATM   37  O   UNL     1     -11.320  16.702  63.856  1.00  0.00    -1.558 OA 
HETATM   38  H   UNL     1     -11.509  17.631  63.929  1.00  0.00     0.000 HD 
ENDBRANCH  33  36
ENDBRANCH  32  33
ENDBRANCH  31  32
ENDBRANCH  16  28
ENDBRANCH   6   8
ENDBRANCH   3   4
ENDBRANCH   2   3
TORSDOF 11
ENDMDL
MODEL       17
REMARK 921   NORMALIZED FREE ENERGY PREDICTED BY IDOCK:   -4.82 KCAL/MOL
REMARK 922        TOTAL FREE ENERGY PREDICTED BY IDOCK:   -9.05 KCAL/MOL
REMARK 923 INTER-LIGAND FREE ENERGY PREDICTED BY IDOCK:   -8.29 KCAL/MOL
REMARK 924 INTRA-LIGAND FREE ENERGY PREDICTED BY IDOCK:   -0.76 KCAL/MOL
REMARK 927      BINDING AFFINITY PREDICTED BY RF-SCORE:    0.00 PKD
ROOT
HETATM    1  C   UNL     1     -14.344   7.716  71.783  1.00  0.00    -0.452 C  
HETATM    2  O   UNL     1     -13.408   8.783  71.905  1.00  0.00    -0.342 OA 
ENDROOT
BRANCH   2   3
HETATM    3  C   UNL     1     -12.100   8.327  72.223  1.00  0.00    -0.379 C  
BRANCH   3   4
HETATM    4  C   UNL     1     -11.027   8.766  71.212  1.00  0.00    -0.275 C  
HETATM    5  O   UNL     1      -9.981   9.299  71.573  1.00  0.00    -0.307 OA 
HETATM    6  N   UNL     1     -11.337   8.481  69.877  1.00  0.00    -0.456 N  
HETATM    7  H   UNL     1     -12.232   8.066  69.616  1.00  0.00     0.000 HD 
BRANCH   6   8
HETATM    8  C   UNL     1     -10.349   8.797  68.898  1.00  0.00    -0.212 A  
HETATM    9  C   UNL     1      -9.332   7.868  68.564  1.00  0.00    -0.141 A  
HETATM   10  C   UNL     1      -8.527   8.043  67.400  1.00  0.00    -0.126 A  
HETATM   11  I   UNL     1      -9.115   6.183  69.886  1.00  0.00    -0.162 I  
HETATM   12  C   UNL     1     -10.420  10.027  68.206  1.00  0.00    -0.213 A  
HETATM   13  C   UNL     1      -8.793   9.189  66.604  1.00  0.00    -0.128 A  
HETATM   14  I   UNL     1      -8.352   9.160  64.489  1.00  0.00    -0.171 I  
HETATM   15  I   UNL     1     -11.674  11.570  69.054  1.00  0.00    -0.380 I  
HETATM   16  C   UNL     1      -9.610  10.252  67.077  1.00  0.00    -0.205 A  
BRANCH  10  17
HETATM   17  C   UNL     1      -7.555   6.961  66.997  1.00  0.00    -0.102 C  
HETATM   18  O   UNL     1      -6.388   7.099  67.366  1.00  0.00    -0.046 OA 
HETATM   19  C   UNL     1      -9.257   5.474  65.782  1.00  0.00    -0.120 C  
HETATM   20  N   UNL     1      -7.913   5.867  66.185  1.00  0.00    -0.104 N  
BRANCH  20  21
HETATM   21  C   UNL     1      -6.833   4.983  65.665  1.00  0.00    -0.061 C  
BRANCH  21  22
HETATM   22  C   UNL     1      -6.555   5.197  64.155  1.00  0.00    -0.038 C  
HETATM   23  H   UNL     1      -5.557   6.480  63.016  1.00  0.00     0.000 HD 
HETATM   24  O   UNL     1      -5.727   6.349  63.942  1.00  0.00    -0.022 OA 
BRANCH  22  25
HETATM   25  C   UNL     1      -5.864   3.991  63.500  1.00  0.00    -0.014 C  
HETATM   26  H   UNL     1      -6.009   2.022  63.545  1.00  0.00     0.000 HD 
HETATM   27  O   UNL     1      -6.436   2.767  63.950  1.00  0.00    -0.028 OA 
ENDBRANCH  22  25
ENDBRANCH  21  22
ENDBRANCH  20  21
ENDBRANCH  10  17
BRANCH  16  28
HETATM   28  C   UNL     1      -9.592  11.599  66.426  1.00  0.00    -0.217 C  
HETATM   29  H   UNL     1     -11.252  11.109  65.239  1.00  0.00     0.000 HD 
HETATM   30  O   UNL     1      -8.755  12.441  66.706  1.00  0.00    -0.200 OA 
HETATM   31  N   UNL     1     -10.536  11.812  65.422  1.00  0.00    -0.268 N  
BRANCH  31  32
HETATM   32  C   UNL     1     -10.500  13.038  64.636  1.00  0.00    -0.380 C  
BRANCH  32  33
HETATM   33  C   UNL     1     -11.897  13.610  64.377  1.00  0.00    -0.424 C  
HETATM   34  O   UNL     1     -12.865  12.798  65.057  1.00  0.00    -0.743 OA 
HETATM   35  H   UNL     1     -13.732  13.152  64.896  1.00  0.00     0.000 HD 
BRANCH  33  36
HETATM   36  C   UNL     1     -11.993  15.073  64.842  1.00  0.00    -0.255 C  
HETATM   37  O   UNL     1     -12.070  15.973  63.738  1.00  0.00    -1.318 OA 
HETATM   38  H   UNL     1     -12.129  16.877  64.026  1.00  0.00     0.000 HD 
ENDBRANCH  33  36
ENDBRANCH  32  33
ENDBRANCH  31  32
ENDBRANCH  16  28
ENDBRANCH   6   8
ENDBRANCH   3   4
ENDBRANCH   2   3
TORSDOF 11
ENDMDL
MODEL       18
REMARK 921   NORMALIZED FREE ENERGY PREDICTED BY IDOCK:   -4.80 KCAL/MOL
REMARK 922        TOTAL FREE ENERGY PREDICTED BY IDOCK:   -9.01 KCAL/MOL
REMARK 923 INTER-LIGAND FREE ENERGY PREDICTED BY IDOCK:   -7.75 KCAL/MOL
REMARK 924 INTRA-LIGAND FREE ENERGY PREDICTED BY IDOCK:   -1.26 KCAL/MOL
REMARK 927      BINDING AFFINITY PREDICTED BY RF-SCORE:    0.00 PKD
ROOT
HETATM    1  C   UNL     1     -14.397   8.201  71.753  1.00  0.00    -0.484 C  
HETATM    2  O   UNL     1     -13.097   7.621  71.822  1.00  0.00    -0.333 OA 
ENDROOT
BRANCH   2   3
HETATM    3  C   UNL     1     -12.116   8.536  72.290  1.00  0.00    -0.387 C  
BRANCH   3   4
HETATM    4  C   UNL     1     -11.100   8.958  71.215  1.00  0.00    -0.297 C  
HETATM    5  O   UNL     1      -9.920   9.164  71.488  1.00  0.00    -0.312 OA 
HETATM    6  N   UNL     1     -11.630   9.056  69.923  1.00  0.00    -0.441 N  
HETATM    7  H   UNL     1     -12.624   8.908  69.743  1.00  0.00     0.000 HD 
BRANCH   6   8
HETATM    8  C   UNL     1     -10.722   9.371  68.869  1.00  0.00    -0.178 A  
HETATM    9  C   UNL     1     -10.482  10.717  68.492  1.00  0.00    -0.191 A  
HETATM   10  C   UNL     1      -9.379  11.063  67.658  1.00  0.00    -0.162 A  
HETATM   11  I   UNL     1     -11.849  12.180  69.282  1.00  0.00    -0.247 I  
HETATM   12  C   UNL     1     -10.003   8.334  68.233  1.00  0.00    -0.191 A  
HETATM   13  C   UNL     1      -8.544   9.999  67.226  1.00  0.00    -0.125 A  
HETATM   14  I   UNL     1      -6.468  10.378  66.759  1.00  0.00    -0.097 I  
HETATM   15  I   UNL     1     -10.726   6.316  68.508  1.00  0.00    -0.378 I  
HETATM   16  C   UNL     1      -8.934   8.639  67.370  1.00  0.00    -0.144 A  
BRANCH  10  17
HETATM   17  C   UNL     1      -9.070  12.517  67.398  1.00  0.00    -0.185 C  
HETATM   18  O   UNL     1      -8.318  13.076  68.199  1.00  0.00    -0.151 OA 
HETATM   19  C   UNL     1     -10.427  12.725  65.230  1.00  0.00    -0.292 C  
HETATM   20  N   UNL     1      -9.643  13.251  66.340  1.00  0.00    -0.268 N  
BRANCH  20  21
HETATM   21  C   UNL     1      -9.444  14.726  66.307  1.00  0.00    -0.303 C  
BRANCH  21  22
HETATM   22  C   UNL     1     -10.779  15.514  66.366  1.00  0.00    -0.303 C  
HETATM   23  H   UNL     1     -11.992  16.238  67.760  1.00  0.00     0.000 HD 
HETATM   24  O   UNL     1     -11.174  15.756  67.725  1.00  0.00    -0.336 OA 
BRANCH  22  25
HETATM   25  C   UNL     1     -10.702  16.870  65.648  1.00  0.00    -0.167 C  
HETATM   26  H   UNL     1     -11.313  17.656  63.943  1.00  0.00     0.000 HD 
HETATM   27  O   UNL     1     -11.360  16.818  64.386  1.00  0.00    -1.089 OA 
ENDBRANCH  22  25
ENDBRANCH  21  22
ENDBRANCH  20  21
ENDBRANCH  10  17
BRANCH  16  28
HETATM   28  C   UNL     1      -8.260   7.549  66.598  1.00  0.00    -0.125 C  
HETATM   29  H   UNL     1      -7.007   7.099  68.221  1.00  0.00     0.000 HD 
HETATM   30  O   UNL     1      -8.563   7.290  65.445  1.00  0.00    -0.121 OA 
HETATM   31  N   UNL     1      -7.210   6.895  67.243  1.00  0.00    -0.087 N  
BRANCH  31  32
HETATM   32  C   UNL     1      -6.404   5.921  66.518  1.00  0.00    -0.038 C  
BRANCH  32  33
HETATM   33  C   UNL     1      -6.673   4.483  66.974  1.00  0.00    -0.051 C  
HETATM   34  O   UNL     1      -7.198   4.510  68.310  1.00  0.00    -0.062 OA 
HETATM   35  H   UNL     1      -7.364   3.618  68.593  1.00  0.00     0.000 HD 
BRANCH  33  36
HETATM   36  C   UNL     1      -7.648   3.772  66.021  1.00  0.00    -0.088 C  
HETATM   37  O   UNL     1      -8.945   3.638  66.599  1.00  0.00    -0.122 OA 
HETATM   38  H   UNL     1      -9.548   3.198  66.010  1.00  0.00     0.000 HD 
ENDBRANCH  33  36
ENDBRANCH  32  33
ENDBRANCH  31  32
ENDBRANCH  16  28
ENDBRANCH   6   8
ENDBRANCH   3   4
ENDBRANCH   2   3
TORSDOF 11
ENDMDL
MODEL       19
REMARK 921   NORMALIZED FREE ENERGY PREDICTED BY IDOCK:   -4.75 KCAL/MOL
REMARK 922        TOTAL FREE ENERGY PREDICTED BY IDOCK:   -8.93 KCAL/MOL
REMARK 923 INTER-LIGAND FREE ENERGY PREDICTED BY IDOCK:   -8.10 KCAL/MOL
REMARK 924 INTRA-LIGAND FREE ENERGY PREDICTED BY IDOCK:   -0.83 KCAL/MOL
REMARK 927      BINDING AFFINITY PREDICTED BY RF-SCORE:    0.00 PKD
ROOT
HETATM    1  C   UNL     1     -13.421  12.844  72.143  1.00  0.00    -0.522 C  
HETATM    2  O   UNL     1     -13.625  11.450  71.933  1.00  0.00    -0.251 OA 
ENDROOT
BRANCH   2   3
HETATM    3  C   UNL     1     -12.429  10.772  71.571  1.00  0.00    -0.341 C  
BRANCH   3   4
HETATM    4  C   UNL     1     -12.035  10.956  70.095  1.00  0.00    -0.352 C  
HETATM    5  O   UNL     1     -12.785  10.621  69.182  1.00  0.00    -0.160 OA 
HETATM    6  N   UNL     1     -10.784  11.552  69.899  1.00  0.00    -0.379 N  
HETATM    7  H   UNL     1     -10.177  11.786  70.685  1.00  0.00     0.000 HD 
BRANCH   6   8
HETATM    8  C   UNL     1     -10.394  11.818  68.552  1.00  0.00    -0.217 A  
HETATM    9  C   UNL     1      -9.637  10.874  67.814  1.00  0.00    -0.164 A  
HETATM   10  C   UNL     1      -9.492  10.990  66.400  1.00  0.00    -0.218 A  
HETATM   11  I   UNL     1      -8.767   9.263  68.945  1.00  0.00    -0.140 I  
HETATM   12  C   UNL     1     -10.821  13.009  67.924  1.00  0.00    -0.242 A  
HETATM   13  C   UNL     1     -10.138  12.091  65.778  1.00  0.00    -0.238 A  
HETATM   14  I   UNL     1     -10.764  11.951  63.714  1.00  0.00    -0.580 I  
HETATM   15  I   UNL     1     -11.557  14.592  69.199  1.00  0.00    -0.381 I  
HETATM   16  C   UNL     1     -10.658  13.176  66.536  1.00  0.00    -0.290 A  
BRANCH  10  17
HETATM   17  C   UNL     1      -8.804   9.890  65.629  1.00  0.00    -0.158 C  
HETATM   18  O   UNL     1      -9.529   9.036  65.115  1.00  0.00    -0.142 OA 
HETATM   19  C   UNL     1      -6.410  10.757  65.952  1.00  0.00    -0.109 C  
HETATM   20  N   UNL     1      -7.403   9.775  65.534  1.00  0.00    -0.106 N  
BRANCH  20  21
HETATM   21  C   UNL     1      -6.829   8.535  64.942  1.00  0.00    -0.072 C  
BRANCH  21  22
HETATM   22  C   UNL     1      -6.850   7.334  65.923  1.00  0.00    -0.057 C  
HETATM   23  H   UNL     1      -6.965   5.355  65.813  1.00  0.00     0.000 HD 
HETATM   24  O   UNL     1      -6.953   6.091  65.212  1.00  0.00    -0.057 OA 
BRANCH  22  25
HETATM   25  C   UNL     1      -5.598   7.268  66.811  1.00  0.00    -0.023 C  
HETATM   26  H   UNL     1      -5.102   6.560  68.586  1.00  0.00     0.000 HD 
HETATM   27  O   UNL     1      -5.876   6.601  68.037  1.00  0.00    -0.015 OA 
ENDBRANCH  22  25
ENDBRANCH  21  22
ENDBRANCH  20  21
ENDBRANCH  10  17
BRANCH  16  28
HETATM   28  C   UNL     1     -10.990  14.487  65.895  1.00  0.00    -0.320 C  
HETATM   29  H   UNL     1      -9.069  15.232  66.298  1.00  0.00     0.000 HD 
HETATM   30  O   UNL     1     -12.091  14.715  65.422  1.00  0.00    -0.333 OA 
HETATM   31  N   UNL     1      -9.995  15.463  65.938  1.00  0.00    -0.318 N  
BRANCH  31  32
HETATM   32  C   UNL     1     -10.279  16.813  65.468  1.00  0.00    -0.164 C  
BRANCH  32  33
HETATM   33  C   UNL     1      -9.569  17.885  66.301  1.00  0.00    -0.241 C  
HETATM   34  O   UNL     1      -8.224  18.031  65.821  1.00  0.00    -0.519 OA 
HETATM   35  H   UNL     1      -7.783  18.696  66.338  1.00  0.00     0.000 HD 
BRANCH  33  36
HETATM   36  C   UNL     1     -10.318  19.227  66.233  1.00  0.00    -0.480 C  
HETATM   37  O   UNL     1      -9.443  20.331  66.458  1.00  0.00    -0.510 OA 
HETATM   38  H   UNL     1      -9.906  21.160  66.416  1.00  0.00     0.000 HD 
ENDBRANCH  33  36
ENDBRANCH  32  33
ENDBRANCH  31  32
ENDBRANCH  16  28
ENDBRANCH   6   8
ENDBRANCH   3   4
ENDBRANCH   2   3
TORSDOF 11
ENDMDL
MODEL       20
REMARK 921   NORMALIZED FREE ENERGY PREDICTED BY IDOCK:   -4.75 KCAL/MOL
REMARK 922        TOTAL FREE ENERGY PREDICTED BY IDOCK:   -8.92 KCAL/MOL
REMARK 923 INTER-LIGAND FREE ENERGY PREDICTED BY IDOCK:   -8.06 KCAL/MOL
REMARK 924 INTRA-LIGAND FREE ENERGY PREDICTED BY IDOCK:   -0.86 KCAL/MOL
REMARK 927      BINDING AFFINITY PREDICTED BY RF-SCORE:    0.00 PKD
ROOT
HETATM    1  C   UNL     1      -7.266   9.233  64.758  1.00  0.00    -0.103 C  
HETATM    2  O   UNL     1      -7.800  10.284  65.558  1.00  0.00    -0.142 OA 
ENDROOT
BRANCH   2   3
HETATM    3  C   UNL     1      -7.496  10.127  66.938  1.00  0.00    -0.096 C  
BRANCH   3   4
HETATM    4  C   UNL     1      -7.881  11.342  67.799  1.00  0.00    -0.117 C  
HETATM    5  O   UNL     1      -7.852  11.297  69.026  1.00  0.00    -0.135 OA 
HETATM    6  N   UNL     1      -8.231  12.483  67.068  1.00  0.00    -0.305 N  
HETATM    7  H   UNL     1      -8.274  12.470  66.048  1.00  0.00     0.000 HD 
BRANCH   6   8
HETATM    8  C   UNL     1      -8.527  13.666  67.809  1.00  0.00    -0.183 A  
HETATM    9  C   UNL     1      -7.503  14.583  68.156  1.00  0.00    -0.126 A  
HETATM   10  C   UNL     1      -7.815  15.890  68.631  1.00  0.00    -0.164 A  
HETATM   11  I   UNL     1      -5.482  13.894  67.886  1.00  0.00     0.083 I  
HETATM   12  C   UNL     1      -9.867  13.960  68.150  1.00  0.00    -0.240 A  
HETATM   13  C   UNL     1      -9.192  16.220  68.740  1.00  0.00    -0.240 A  
HETATM   14  I   UNL     1      -9.826  18.280  68.573  1.00  0.00    -0.384 I  
HETATM   15  I   UNL     1     -11.299  12.346  68.016  1.00  0.00    -0.416 I  
HETATM   16  C   UNL     1     -10.206  15.226  68.660  1.00  0.00    -0.223 A  
BRANCH  10  17
HETATM   17  C   UNL     1      -6.704  16.888  68.851  1.00  0.00    -0.199 C  
HETATM   18  O   UNL     1      -6.285  17.004  70.003  1.00  0.00    -0.208 OA 
HETATM   19  C   UNL     1      -6.463  17.606  66.399  1.00  0.00    -0.237 C  
HETATM   20  N   UNL     1      -6.190  17.708  67.827  1.00  0.00    -0.166 N  
BRANCH  20  21
HETATM   21  C   UNL     1      -5.257  18.807  68.197  1.00  0.00    -0.179 C  
BRANCH  21  22
HETATM   22  C   UNL     1      -5.989  20.062  68.740  1.00  0.00    -0.271 C  
HETATM   23  H   UNL     1      -5.668  21.472  70.100  1.00  0.00     0.000 HD 
HETATM   24  O   UNL     1      -5.218  20.703  69.767  1.00  0.00    -0.271 OA 
BRANCH  22  25
HETATM   25  C   UNL     1      -6.278  21.102  67.648  1.00  0.00    -0.364 C  
HETATM   26  H   UNL     1      -7.756  21.558  66.419  1.00  0.00     0.000 HD 
HETATM   27  O   UNL     1      -7.577  20.915  67.094  1.00  0.00    -0.327 OA 
ENDBRANCH  22  25
ENDBRANCH  21  22
ENDBRANCH  20  21
ENDBRANCH  10  17
BRANCH  16  28
HETATM   28  C   UNL     1     -11.598  15.492  69.141  1.00  0.00    -0.362 C  
HETATM   29  H   UNL     1     -11.014  15.235  71.141  1.00  0.00     0.000 HD 
HETATM   30  O   UNL     1     -12.516  15.722  68.371  1.00  0.00     0.307 OA 
HETATM   31  N   UNL     1     -11.806  15.384  70.515  1.00  0.00    -0.308 N  
BRANCH  31  32
HETATM   32  C   UNL     1     -13.155  15.483  71.058  1.00  0.00    -0.489 C  
BRANCH  32  33
HETATM   33  C   UNL     1     -13.337  14.653  72.333  1.00  0.00    -0.417 C  
HETATM   34  O   UNL     1     -13.129  13.268  72.019  1.00  0.00    -0.381 OA 
HETATM   35  H   UNL     1     -13.242  12.753  72.810  1.00  0.00     0.000 HD 
BRANCH  33  36
HETATM   36  C   UNL     1     -12.368  15.111  73.436  1.00  0.00    -0.484 C  
HETATM   37  O   UNL     1     -12.934  16.144  74.240  1.00  0.00    -0.913 OA 
HETATM   38  H   UNL     1     -12.336  16.427  74.922  1.00  0.00     0.000 HD 
ENDBRANCH  33  36
ENDBRANCH  32  33
ENDBRANCH  31  32
ENDBRANCH  16  28
ENDBRANCH   6   8
ENDBRANCH   3   4
ENDBRANCH   2   3
TORSDOF 11
ENDMDL
MODEL       21
REMARK 921   NORMALIZED FREE ENERGY PREDICTED BY IDOCK:   -4.73 KCAL/MOL
REMARK 922        TOTAL FREE ENERGY PREDICTED BY IDOCK:   -8.90 KCAL/MOL
REMARK 923 INTER-LIGAND FREE ENERGY PREDICTED BY IDOCK:   -8.36 KCAL/MOL
REMARK 924 INTRA-LIGAND FREE ENERGY PREDICTED BY IDOCK:   -0.54 KCAL/MOL
REMARK 927      BINDING AFFINITY PREDICTED BY RF-SCORE:    0.00 PKD
ROOT
HETATM    1  C   UNL     1     -10.089   6.148  74.252  1.00  0.00    -0.311 C  
HETATM    2  O   UNL     1     -10.183   7.405  73.587  1.00  0.00    -0.341 OA 
ENDROOT
BRANCH   2   3
HETATM    3  C   UNL     1     -11.440   7.593  72.950  1.00  0.00    -0.290 C  
BRANCH   3   4
HETATM    4  C   UNL     1     -11.354   7.653  71.415  1.00  0.00    -0.258 C  
HETATM    5  O   UNL     1     -12.224   7.162  70.701  1.00  0.00    -0.291 OA 
HETATM    6  N   UNL     1     -10.231   8.329  70.924  1.00  0.00    -0.189 N  
HETATM    7  H   UNL     1      -9.514   8.695  71.550  1.00  0.00     0.000 HD 
BRANCH   6   8
HETATM    8  C   UNL     1     -10.133   8.483  69.509  1.00  0.00    -0.200 A  
HETATM    9  C   UNL     1     -10.622   9.649  68.867  1.00  0.00    -0.217 A  
HETATM   10  C   UNL     1     -10.275   9.948  67.517  1.00  0.00    -0.265 A  
HETATM   11  I   UNL     1     -11.871  10.933  70.060  1.00  0.00    -0.486 I  
HETATM   12  C   UNL     1      -9.483   7.490  68.741  1.00  0.00    -0.148 A  
HETATM   13  C   UNL     1      -9.425   9.024  66.855  1.00  0.00    -0.167 A  
HETATM   14  I   UNL     1      -8.140   9.696  65.252  1.00  0.00    -0.160 I  
HETATM   15  I   UNL     1      -9.177   5.563  69.671  1.00  0.00    -0.200 I  
HETATM   16  C   UNL     1      -9.161   7.734  67.393  1.00  0.00    -0.138 A  
BRANCH  10  17
HETATM   17  C   UNL     1     -10.694  11.267  66.916  1.00  0.00    -0.273 C  
HETATM   18  O   UNL     1     -11.706  11.260  66.213  1.00  0.00    -0.221 OA 
HETATM   19  C   UNL     1      -8.830  12.679  67.974  1.00  0.00    -0.195 C  
HETATM   20  N   UNL     1      -9.955  12.456  67.074  1.00  0.00    -0.210 N  
BRANCH  20  21
HETATM   21  C   UNL     1     -10.334  13.644  66.260  1.00  0.00    -0.293 C  
BRANCH  21  22
HETATM   22  C   UNL     1     -11.260  14.626  67.023  1.00  0.00    -0.344 C  
HETATM   23  H   UNL     1     -12.455  14.582  68.607  1.00  0.00     0.000 HD 
HETATM   24  O   UNL     1     -11.887  13.980  68.140  1.00  0.00    -0.338 OA 
BRANCH  22  25
HETATM   25  C   UNL     1     -10.513  15.861  67.551  1.00  0.00    -0.298 C  
HETATM   26  H   UNL     1     -10.049  17.671  66.912  1.00  0.00     0.000 HD 
HETATM   27  O   UNL     1     -10.510  16.908  66.586  1.00  0.00    -0.307 OA 
ENDBRANCH  22  25
ENDBRANCH  21  22
ENDBRANCH  20  21
ENDBRANCH  10  17
BRANCH  16  28
HETATM   28  C   UNL     1      -8.593   6.638  66.548  1.00  0.00    -0.124 C  
HETATM   29  H   UNL     1     -10.470   6.250  65.693  1.00  0.00     0.000 HD 
HETATM   30  O   UNL     1      -7.415   6.325  66.601  1.00  0.00    -0.086 OA 
HETATM   31  N   UNL     1      -9.500   5.939  65.753  1.00  0.00    -0.013 N  
BRANCH  31  32
HETATM   32  C   UNL     1      -9.063   4.765  65.008  1.00  0.00    -0.150 C  
BRANCH  32  33
HETATM   33  C   UNL     1     -10.226   3.838  64.640  1.00  0.00    -0.180 C  
HETATM   34  O   UNL     1     -11.460   4.476  64.998  1.00  0.00    -1.101 OA 
HETATM   35  H   UNL     1     -12.182   3.901  64.770  1.00  0.00     0.000 HD 
BRANCH  33  36
HETATM   36  C   UNL     1     -10.207   3.494  63.141  1.00  0.00    -0.183 C  
HETATM   37  O   UNL     1     -10.217   4.667  62.331  1.00  0.00    -0.379 OA 
HETATM   38  H   UNL     1     -10.206   4.454  61.404  1.00  0.00     0.000 HD 
ENDBRANCH  33  36
ENDBRANCH  32  33
ENDBRANCH  31  32
ENDBRANCH  16  28
ENDBRANCH   6   8
ENDBRANCH   3   4
ENDBRANCH   2   3
TORSDOF 11
ENDMDL
MODEL       22
REMARK 921   NORMALIZED FREE ENERGY PREDICTED BY IDOCK:   -4.69 KCAL/MOL
REMARK 922        TOTAL FREE ENERGY PREDICTED BY IDOCK:   -8.83 KCAL/MOL
REMARK 923 INTER-LIGAND FREE ENERGY PREDICTED BY IDOCK:   -7.91 KCAL/MOL
REMARK 924 INTRA-LIGAND FREE ENERGY PREDICTED BY IDOCK:   -0.92 KCAL/MOL
REMARK 927      BINDING AFFINITY PREDICTED BY RF-SCORE:    0.00 PKD
ROOT
HETATM    1  C   UNL     1     -14.258   8.720  72.141  1.00  0.00    -0.426 C  
HETATM    2  O   UNL     1     -13.066   9.458  72.395  1.00  0.00    -0.416 OA 
ENDROOT
BRANCH   2   3
HETATM    3  C   UNL     1     -13.120  10.778  71.870  1.00  0.00    -0.451 C  
BRANCH   3   4
HETATM    4  C   UNL     1     -12.529  10.907  70.455  1.00  0.00    -0.351 C  
HETATM    5  O   UNL     1     -13.117  10.470  69.469  1.00  0.00     0.043 OA 
HETATM    6  N   UNL     1     -11.302  11.578  70.399  1.00  0.00    -0.427 N  
HETATM    7  H   UNL     1     -10.831  11.898  71.246  1.00  0.00     0.000 HD 
BRANCH   6   8
HETATM    8  C   UNL     1     -10.738  11.795  69.106  1.00  0.00    -0.124 A  
HETATM    9  C   UNL     1      -9.826  10.867  68.545  1.00  0.00    -0.184 A  
HETATM   10  C   UNL     1      -9.485  10.914  67.161  1.00  0.00    -0.178 A  
HETATM   11  I   UNL     1      -9.033   9.385  69.889  1.00  0.00    -0.276 I  
HETATM   12  C   UNL     1     -11.142  12.918  68.349  1.00  0.00    -0.262 A  
HETATM   13  C   UNL     1     -10.100  11.932  66.384  1.00  0.00    -0.214 A  
HETATM   14  I   UNL     1     -10.410  11.634  64.266  1.00  0.00    -0.479 I  
HETATM   15  I   UNL     1     -12.149  14.514  69.402  1.00  0.00    -0.181 I  
HETATM   16  C   UNL     1     -10.789  13.019  66.990  1.00  0.00    -0.278 A  
BRANCH  10  17
HETATM   17  C   UNL     1      -8.627   9.824  66.568  1.00  0.00    -0.127 C  
HETATM   18  O   UNL     1      -7.455  10.114  66.321  1.00  0.00    -0.102 OA 
HETATM   19  C   UNL     1     -10.422   7.990  66.590  1.00  0.00    -0.129 C  
HETATM   20  N   UNL     1      -9.121   8.546  66.240  1.00  0.00    -0.173 N  
BRANCH  20  21
HETATM   21  C   UNL     1      -8.250   7.625  65.459  1.00  0.00    -0.135 C  
BRANCH  21  22
HETATM   22  C   UNL     1      -7.582   6.536  66.339  1.00  0.00    -0.090 C  
HETATM   23  H   UNL     1      -7.080   6.299  68.245  1.00  0.00     0.000 HD 
HETATM   24  O   UNL     1      -7.489   6.966  67.706  1.00  0.00    -0.094 OA 
BRANCH  22  25
HETATM   25  C   UNL     1      -8.342   5.202  66.315  1.00  0.00    -0.113 C  
HETATM   26  H   UNL     1      -9.208   3.989  67.612  1.00  0.00     0.000 HD 
HETATM   27  O   UNL     1      -8.738   4.814  67.627  1.00  0.00    -0.104 OA 
ENDBRANCH  22  25
ENDBRANCH  21  22
ENDBRANCH  20  21
ENDBRANCH  10  17
BRANCH  16  28
HETATM   28  C   UNL     1     -11.104  14.266  66.225  1.00  0.00    -0.323 C  
HETATM   29  H   UNL     1      -9.252  15.111  66.735  1.00  0.00     0.000 HD 
HETATM   30  O   UNL     1     -12.165  14.417  65.642  1.00  0.00    -0.384 OA 
HETATM   31  N   UNL     1     -10.148  15.280  66.280  1.00  0.00    -0.265 N  
BRANCH  31  32
HETATM   32  C   UNL     1     -10.431  16.580  65.686  1.00  0.00    -0.324 C  
BRANCH  32  33
HETATM   33  C   UNL     1      -9.833  17.736  66.493  1.00  0.00    -0.329 C  
HETATM   34  O   UNL     1     -10.719  18.863  66.418  1.00  0.00    -0.392 OA 
HETATM   35  H   UNL     1     -10.347  19.580  66.919  1.00  0.00     0.000 HD 
BRANCH  33  36
HETATM   36  C   UNL     1      -9.596  17.327  67.957  1.00  0.00    -0.274 C  
HETATM   37  O   UNL     1     -10.568  17.902  68.828  1.00  0.00    -0.351 OA 
HETATM   38  H   UNL     1     -10.422  17.650  69.732  1.00  0.00     0.000 HD 
ENDBRANCH  33  36
ENDBRANCH  32  33
ENDBRANCH  31  32
ENDBRANCH  16  28
ENDBRANCH   6   8
ENDBRANCH   3   4
ENDBRANCH   2   3
TORSDOF 11
ENDMDL
MODEL       23
REMARK 921   NORMALIZED FREE ENERGY PREDICTED BY IDOCK:   -4.67 KCAL/MOL
REMARK 922        TOTAL FREE ENERGY PREDICTED BY IDOCK:   -8.80 KCAL/MOL
REMARK 923 INTER-LIGAND FREE ENERGY PREDICTED BY IDOCK:   -7.40 KCAL/MOL
REMARK 924 INTRA-LIGAND FREE ENERGY PREDICTED BY IDOCK:   -1.40 KCAL/MOL
REMARK 927      BINDING AFFINITY PREDICTED BY RF-SCORE:    0.00 PKD
ROOT
HETATM    1  C   UNL     1      -6.029   3.524  63.852  1.00  0.00    -0.014 C  
HETATM    2  O   UNL     1      -6.844   4.626  63.462  1.00  0.00    -0.041 OA 
ENDROOT
BRANCH   2   3
HETATM    3  C   UNL     1      -6.303   5.875  63.872  1.00  0.00    -0.029 C  
BRANCH   3   4
HETATM    4  C   UNL     1      -7.047   6.513  65.058  1.00  0.00    -0.057 C  
HETATM    5  O   UNL     1      -6.460   6.836  66.088  1.00  0.00    -0.047 OA 
HETATM    6  N   UNL     1      -8.416   6.710  64.845  1.00  0.00    -0.335 N  
HETATM    7  H   UNL     1      -8.872   6.398  63.987  1.00  0.00     0.000 HD 
BRANCH   6   8
HETATM    8  C   UNL     1      -9.147   7.366  65.880  1.00  0.00    -0.028 A  
HETATM    9  C   UNL     1      -9.717   6.630  66.948  1.00  0.00    -0.164 A  
HETATM   10  C   UNL     1     -10.189   7.283  68.124  1.00  0.00    -0.222 A  
HETATM   11  I   UNL     1      -9.785   4.493  66.697  1.00  0.00    -0.237 I  
HETATM   12  C   UNL     1      -9.253   8.776  65.874  1.00  0.00    -0.220 A  
HETATM   13  C   UNL     1     -10.063   8.697  68.166  1.00  0.00    -0.197 A  
HETATM   14  I   UNL     1      -9.881   9.710  70.067  1.00  0.00    -0.265 I  
HETATM   15  I   UNL     1      -8.786   9.797  64.027  1.00  0.00    -0.260 I  
HETATM   16  C   UNL     1      -9.753   9.453  67.002  1.00  0.00    -0.233 A  
BRANCH  10  17
HETATM   17  C   UNL     1     -10.653   6.458  69.300  1.00  0.00    -0.259 C  
HETATM   18  O   UNL     1     -11.862   6.234  69.376  1.00  0.00    -0.174 OA 
HETATM   19  C   UNL     1      -8.330   6.052  70.311  1.00  0.00    -0.124 C  
HETATM   20  N   UNL     1      -9.787   6.003  70.313  1.00  0.00    -0.174 N  
BRANCH  20  21
HETATM   21  C   UNL     1     -10.379   5.392  71.534  1.00  0.00    -0.225 C  
BRANCH  21  22
HETATM   22  C   UNL     1     -10.470   6.386  72.721  1.00  0.00    -0.214 C  
HETATM   23  H   UNL     1     -11.697   7.818  73.342  1.00  0.00     0.000 HD 
HETATM   24  O   UNL     1     -11.641   7.209  72.614  1.00  0.00    -0.263 OA 
BRANCH  22  25
HETATM   25  C   UNL     1     -10.512   5.682  74.086  1.00  0.00    -0.258 C  
HETATM   26  H   UNL     1     -10.159   3.879  74.811  1.00  0.00     0.000 HD 
HETATM   27  O   UNL     1     -10.134   4.314  73.968  1.00  0.00    -0.140 OA 
ENDBRANCH  22  25
ENDBRANCH  21  22
ENDBRANCH  20  21
ENDBRANCH  10  17
BRANCH  16  28
HETATM   28  C   UNL     1      -9.986  10.930  66.946  1.00  0.00    -0.194 C  
HETATM   29  H   UNL     1     -11.984  10.648  66.367  1.00  0.00     0.000 HD 
HETATM   30  O   UNL     1      -9.102  11.734  67.191  1.00  0.00    -0.166 OA 
HETATM   31  N   UNL     1     -11.250  11.339  66.522  1.00  0.00    -0.229 N  
BRANCH  31  32
HETATM   32  C   UNL     1     -11.522  12.753  66.300  1.00  0.00    -0.354 C  
BRANCH  32  33
HETATM   33  C   UNL     1     -12.419  12.994  65.082  1.00  0.00    -0.496 C  
HETATM   34  O   UNL     1     -12.933  14.333  65.140  1.00  0.00    -0.692 OA 
HETATM   35  H   UNL     1     -13.490  14.482  64.385  1.00  0.00     0.000 HD 
BRANCH  33  36
HETATM   36  C   UNL     1     -11.649  12.764  63.771  1.00  0.00    -0.481 C  
HETATM   37  O   UNL     1     -10.318  13.269  63.846  1.00  0.00    -0.611 OA 
HETATM   38  H   UNL     1      -9.842  13.127  63.036  1.00  0.00     0.000 HD 
ENDBRANCH  33  36
ENDBRANCH  32  33
ENDBRANCH  31  32
ENDBRANCH  16  28
ENDBRANCH   6   8
ENDBRANCH   3   4
ENDBRANCH   2   3
TORSDOF 11
ENDMDL
MODEL       24
REMARK 921   NORMALIZED FREE ENERGY PREDICTED BY IDOCK:   -4.66 KCAL/MOL
REMARK 922        TOTAL FREE ENERGY PREDICTED BY IDOCK:   -8.79 KCAL/MOL
REMARK 923 INTER-LIGAND FREE ENERGY PREDICTED BY IDOCK:   -8.50 KCAL/MOL
REMARK 924 INTRA-LIGAND FREE ENERGY PREDICTED BY IDOCK:   -0.29 KCAL/MOL
REMARK 927      BINDING AFFINITY PREDICTED BY RF-SCORE:    0.00 PKD
ROOT
HETATM    1  C   UNL     1     -14.187   7.586  71.562  1.00  0.00    -0.445 C  
HETATM    2  O   UNL     1     -12.890   7.031  71.765  1.00  0.00    -0.353 OA 
ENDROOT
BRANCH   2   3
HETATM    3  C   UNL     1     -11.969   7.975  72.295  1.00  0.00    -0.358 C  
BRANCH   3   4
HETATM    4  C   UNL     1     -11.068   8.626  71.232  1.00  0.00    -0.272 C  
HETATM    5  O   UNL     1      -9.985   9.127  71.525  1.00  0.00    -0.312 OA 
HETATM    6  N   UNL     1     -11.574   8.568  69.928  1.00  0.00    -0.425 N  
HETATM    7  H   UNL     1     -12.494   8.172  69.732  1.00  0.00     0.000 HD 
BRANCH   6   8
HETATM    8  C   UNL     1     -10.750   9.089  68.887  1.00  0.00    -0.123 A  
HETATM    9  C   UNL     1      -9.820   8.260  68.211  1.00  0.00    -0.172 A  
HETATM   10  C   UNL     1      -9.209   8.678  66.993  1.00  0.00    -0.186 A  
HETATM   11  I   UNL     1      -9.429   6.344  69.111  1.00  0.00    -0.155 I  
HETATM   12  C   UNL     1     -10.905  10.433  68.479  1.00  0.00    -0.237 A  
HETATM   13  C   UNL     1      -9.575   9.958  66.499  1.00  0.00    -0.190 A  
HETATM   14  I   UNL     1      -9.481  10.366  64.379  1.00  0.00    -0.372 I  
HETATM   15  I   UNL     1     -11.973  11.756  69.815  1.00  0.00    -0.263 I  
HETATM   16  C   UNL     1     -10.283  10.893  67.304  1.00  0.00    -0.242 A  
BRANCH  10  17
HETATM   17  C   UNL     1      -8.339   7.713  66.226  1.00  0.00    -0.133 C  
HETATM   18  O   UNL     1      -8.910   6.772  65.671  1.00  0.00    -0.125 OA 
HETATM   19  C   UNL     1      -6.115   8.921  66.648  1.00  0.00    -0.060 C  
HETATM   20  N   UNL     1      -6.934   7.811  66.177  1.00  0.00    -0.061 N  
BRANCH  20  21
HETATM   21  C   UNL     1      -6.161   6.687  65.582  1.00  0.00    -0.038 C  
BRANCH  21  22
HETATM   22  C   UNL     1      -5.700   5.648  66.638  1.00  0.00    -0.017 C  
HETATM   23  H   UNL     1      -5.376   5.595  68.595  1.00  0.00     0.000 HD 
HETATM   24  O   UNL     1      -5.658   6.231  67.949  1.00  0.00    -0.004 OA 
BRANCH  22  25
HETATM   25  C   UNL     1      -6.613   4.414  66.698  1.00  0.00    -0.049 C  
HETATM   26  H   UNL     1      -7.758   3.382  65.464  1.00  0.00     0.000 HD 
HETATM   27  O   UNL     1      -7.193   4.145  65.426  1.00  0.00    -0.068 OA 
ENDBRANCH  22  25
ENDBRANCH  21  22
ENDBRANCH  20  21
ENDBRANCH  10  17
BRANCH  16  28
HETATM   28  C   UNL     1     -10.341  12.345  66.945  1.00  0.00    -0.224 C  
HETATM   29  H   UNL     1     -12.324  12.159  66.284  1.00  0.00     0.000 HD 
HETATM   30  O   UNL     1      -9.384  13.086  67.094  1.00  0.00    -0.214 OA 
HETATM   31  N   UNL     1     -11.524  12.787  66.356  1.00  0.00    -0.337 N  
BRANCH  31  32
HETATM   32  C   UNL     1     -11.618  14.149  65.843  1.00  0.00    -0.348 C  
BRANCH  32  33
HETATM   33  C   UNL     1     -12.389  14.226  64.522  1.00  0.00    -0.410 C  
HETATM   34  O   UNL     1     -12.090  15.476  63.882  1.00  0.00    -0.981 OA 
HETATM   35  H   UNL     1     -12.568  15.524  63.062  1.00  0.00     0.000 HD 
BRANCH  33  36
HETATM   36  C   UNL     1     -12.032  13.046  63.602  1.00  0.00    -0.539 C  
HETATM   37  O   UNL     1     -13.121  12.135  63.467  1.00  0.00    -0.785 OA 
HETATM   38  H   UNL     1     -12.901  11.406  62.898  1.00  0.00     0.000 HD 
ENDBRANCH  33  36
ENDBRANCH  32  33
ENDBRANCH  31  32
ENDBRANCH  16  28
ENDBRANCH   6   8
ENDBRANCH   3   4
ENDBRANCH   2   3
TORSDOF 11
ENDMDL
MODEL       25
REMARK 921   NORMALIZED FREE ENERGY PREDICTED BY IDOCK:   -4.60 KCAL/MOL
REMARK 922        TOTAL FREE ENERGY PREDICTED BY IDOCK:   -8.69 KCAL/MOL
REMARK 923 INTER-LIGAND FREE ENERGY PREDICTED BY IDOCK:   -7.64 KCAL/MOL
REMARK 924 INTRA-LIGAND FREE ENERGY PREDICTED BY IDOCK:   -1.05 KCAL/MOL
REMARK 927      BINDING AFFINITY PREDICTED BY RF-SCORE:    0.00 PKD
ROOT
HETATM    1  C   UNL     1      -9.038   6.168  68.098  1.00  0.00    -0.111 C  
HETATM    2  O   UNL     1      -7.842   6.270  67.329  1.00  0.00    -0.105 OA 
ENDROOT
BRANCH   2   3
HETATM    3  C   UNL     1      -7.123   7.467  67.596  1.00  0.00    -0.085 C  
BRANCH   3   4
HETATM    4  C   UNL     1      -7.992   8.736  67.546  1.00  0.00    -0.102 C  
HETATM    5  O   UNL     1      -8.719   8.982  66.588  1.00  0.00    -0.123 OA 
HETATM    6  N   UNL     1      -7.898   9.547  68.683  1.00  0.00    -0.084 N  
HETATM    7  H   UNL     1      -7.257   9.324  69.445  1.00  0.00     0.000 HD 
BRANCH   6   8
HETATM    8  C   UNL     1      -8.736  10.701  68.730  1.00  0.00    -0.157 A  
HETATM    9  C   UNL     1      -8.357  11.903  68.082  1.00  0.00    -0.161 A  
HETATM   10  C   UNL     1      -9.297  12.955  67.871  1.00  0.00    -0.208 A  
HETATM   11  I   UNL     1      -6.314  12.018  67.416  1.00  0.00    -0.131 I  
HETATM   12  C   UNL     1      -9.990  10.627  69.377  1.00  0.00    -0.158 A  
HETATM   13  C   UNL     1     -10.618  12.737  68.343  1.00  0.00    -0.248 A  
HETATM   14  I   UNL     1     -12.284  13.731  67.390  1.00  0.00     0.200 I  
HETATM   15  I   UNL     1     -10.315   8.964  70.719  1.00  0.00    -0.371 I  
HETATM   16  C   UNL     1     -10.928  11.665  69.226  1.00  0.00    -0.246 A  
BRANCH  10  17
HETATM   17  C   UNL     1      -8.898  14.157  67.051  1.00  0.00    -0.221 C  
HETATM   18  O   UNL     1      -9.144  14.110  65.844  1.00  0.00     0.017 OA 
HETATM   19  C   UNL     1      -7.981  15.553  68.999  1.00  0.00    -0.205 C  
HETATM   20  N   UNL     1      -8.221  15.268  67.589  1.00  0.00    -0.150 N  
BRANCH  20  21
HETATM   21  C   UNL     1      -7.680  16.294  66.655  1.00  0.00    -0.251 C  
BRANCH  21  22
HETATM   22  C   UNL     1      -8.439  17.643  66.738  1.00  0.00    -0.251 C  
HETATM   23  H   UNL     1      -8.493  19.358  65.739  1.00  0.00     0.000 HD 
HETATM   24  O   UNL     1      -8.028  18.531  65.688  1.00  0.00    -0.468 OA 
BRANCH  22  25
HETATM   25  C   UNL     1      -9.963  17.476  66.644  1.00  0.00    -0.314 C  
HETATM   26  H   UNL     1     -11.308  17.090  65.250  1.00  0.00     0.000 HD 
HETATM   27  O   UNL     1     -10.366  17.193  65.308  1.00  0.00    -0.629 OA 
ENDBRANCH  22  25
ENDBRANCH  21  22
ENDBRANCH  20  21
ENDBRANCH  10  17
BRANCH  16  28
HETATM   28  C   UNL     1     -12.200  11.647  70.014  1.00  0.00    -0.263 C  
HETATM   29  H   UNL     1     -11.573  13.285  71.166  1.00  0.00     0.000 HD 
HETATM   30  O   UNL     1     -13.074  10.821  69.812  1.00  0.00    -0.085 OA 
HETATM   31  N   UNL     1     -12.297  12.578  71.048  1.00  0.00    -0.306 N  
BRANCH  31  32
HETATM   32  C   UNL     1     -13.435  12.539  71.958  1.00  0.00    -0.387 C  
BRANCH  32  33
HETATM   33  C   UNL     1     -13.952  13.937  72.310  1.00  0.00    -0.565 C  
HETATM   34  O   UNL     1     -13.209  14.438  73.432  1.00  0.00    -0.576 OA 
HETATM   35  H   UNL     1     -13.530  15.306  73.651  1.00  0.00     0.000 HD 
BRANCH  33  36
HETATM   36  C   UNL     1     -13.832  14.892  71.110  1.00  0.00    -0.358 C  
HETATM   37  O   UNL     1     -13.101  16.070  71.444  1.00  0.00    -0.536 OA 
HETATM   38  H   UNL     1     -13.027  16.660  70.703  1.00  0.00     0.000 HD 
ENDBRANCH  33  36
ENDBRANCH  32  33
ENDBRANCH  31  32
ENDBRANCH  16  28
ENDBRANCH   6   8
ENDBRANCH   3   4
ENDBRANCH   2   3
TORSDOF 11
ENDMDL
MODEL       26
REMARK 921   NORMALIZED FREE ENERGY PREDICTED BY IDOCK:   -4.59 KCAL/MOL
REMARK 922        TOTAL FREE ENERGY PREDICTED BY IDOCK:   -8.67 KCAL/MOL
REMARK 923 INTER-LIGAND FREE ENERGY PREDICTED BY IDOCK:   -7.51 KCAL/MOL
REMARK 924 INTRA-LIGAND FREE ENERGY PREDICTED BY IDOCK:   -1.16 KCAL/MOL
REMARK 927      BINDING AFFINITY PREDICTED BY RF-SCORE:    0.00 PKD
ROOT
HETATM    1  C   UNL     1     -12.976  14.409  71.324  1.00  0.00    -0.344 C  
HETATM    2  O   UNL     1     -12.632  13.112  70.845  1.00  0.00    -0.346 OA 
ENDROOT
BRANCH   2   3
HETATM    3  C   UNL     1     -12.244  13.121  69.477  1.00  0.00    -0.158 C  
BRANCH   3   4
HETATM    4  C   UNL     1     -11.688  11.775  68.982  1.00  0.00    -0.328 C  
HETATM    5  O   UNL     1     -12.227  11.151  68.072  1.00  0.00    -0.584 OA 
HETATM    6  N   UNL     1     -10.523  11.355  69.634  1.00  0.00    -0.431 N  
HETATM    7  H   UNL     1     -10.124  11.887  70.408  1.00  0.00     0.000 HD 
BRANCH   6   8
HETATM    8  C   UNL     1      -9.916  10.150  69.169  1.00  0.00    -0.210 A  
HETATM    9  C   UNL     1     -10.201   8.906  69.785  1.00  0.00    -0.202 A  
HETATM   10  C   UNL     1      -9.843   7.675  69.162  1.00  0.00    -0.171 A  
HETATM   11  I   UNL     1     -11.229   8.998  71.674  1.00  0.00    -0.383 I  
HETATM   12  C   UNL     1      -9.068  10.186  68.039  1.00  0.00    -0.131 A  
HETATM   13  C   UNL     1      -9.188   7.760  67.905  1.00  0.00    -0.137 A  
HETATM   14  I   UNL     1      -9.369   6.146  66.480  1.00  0.00    -0.133 I  
HETATM   15  I   UNL     1      -8.307  12.117  67.433  1.00  0.00    -0.194 I  
HETATM   16  C   UNL     1      -8.660   8.989  67.421  1.00  0.00    -0.115 A  
BRANCH  10  17
HETATM   17  C   UNL     1     -10.292   6.371  69.775  1.00  0.00    -0.200 C  
HETATM   18  O   UNL     1     -11.455   6.028  69.557  1.00  0.00    -0.384 OA 
HETATM   19  C   UNL     1      -8.045   5.765  70.858  1.00  0.00    -0.119 C  
HETATM   20  N   UNL     1      -9.471   5.589  70.612  1.00  0.00    -0.161 N  
BRANCH  20  21
HETATM   21  C   UNL     1     -10.083   4.443  71.339  1.00  0.00    -0.140 C  
BRANCH  21  22
HETATM   22  C   UNL     1     -10.477   4.796  72.797  1.00  0.00    -0.202 C  
HETATM   23  H   UNL     1     -12.022   5.609  73.741  1.00  0.00     0.000 HD 
HETATM   24  O   UNL     1     -11.781   5.392  72.847  1.00  0.00    -0.297 OA 
BRANCH  22  25
HETATM   25  C   UNL     1     -10.480   3.573  73.726  1.00  0.00    -0.181 C  
HETATM   26  H   UNL     1     -11.056   1.685  73.653  1.00  0.00     0.000 HD 
HETATM   27  O   UNL     1     -11.053   2.441  73.079  1.00  0.00    -0.127 OA 
ENDBRANCH  22  25
ENDBRANCH  21  22
ENDBRANCH  20  21
ENDBRANCH  10  17
BRANCH  16  28
HETATM   28  C   UNL     1      -7.659   9.024  66.309  1.00  0.00    -0.092 C  
HETATM   29  H   UNL     1      -9.141   9.553  64.920  1.00  0.00     0.000 HD 
HETATM   30  O   UNL     1      -6.482   8.764  66.490  1.00  0.00    -0.061 OA 
HETATM   31  N   UNL     1      -8.162   9.294  65.036  1.00  0.00    -0.137 N  
BRANCH  31  32
HETATM   32  C   UNL     1      -7.287   9.207  63.874  1.00  0.00    -0.097 C  
BRANCH  32  33
HETATM   33  C   UNL     1      -8.066   9.069  62.563  1.00  0.00    -0.152 C  
HETATM   34  O   UNL     1      -8.749   7.806  62.559  1.00  0.00    -0.406 OA 
HETATM   35  H   UNL     1      -9.233   7.720  61.745  1.00  0.00     0.000 HD 
BRANCH  33  36
HETATM   36  C   UNL     1      -9.063  10.226  62.385  1.00  0.00    -0.288 C  
HETATM   37  O   UNL     1      -8.416  11.495  62.455  1.00  0.00    -0.600 OA 
HETATM   38  H   UNL     1      -9.032  12.210  62.345  1.00  0.00     0.000 HD 
ENDBRANCH  33  36
ENDBRANCH  32  33
ENDBRANCH  31  32
ENDBRANCH  16  28
ENDBRANCH   6   8
ENDBRANCH   3   4
ENDBRANCH   2   3
TORSDOF 11
ENDMDL
MODEL       27
REMARK 921   NORMALIZED FREE ENERGY PREDICTED BY IDOCK:   -4.56 KCAL/MOL
REMARK 922        TOTAL FREE ENERGY PREDICTED BY IDOCK:   -8.61 KCAL/MOL
REMARK 923 INTER-LIGAND FREE ENERGY PREDICTED BY IDOCK:   -7.25 KCAL/MOL
REMARK 924 INTRA-LIGAND FREE ENERGY PREDICTED BY IDOCK:   -1.36 KCAL/MOL
REMARK 927      BINDING AFFINITY PREDICTED BY RF-SCORE:    0.00 PKD
ROOT
HETATM    1  C   UNL     1     -11.719  15.752  71.403  1.00  0.00    -0.445 C  
HETATM    2  O   UNL     1     -11.105  16.150  70.180  1.00  0.00    -0.336 OA 
ENDROOT
BRANCH   2   3
HETATM    3  C   UNL     1     -11.615  15.442  69.058  1.00  0.00    -0.347 C  
BRANCH   3   4
HETATM    4  C   UNL     1     -11.068  14.010  68.928  1.00  0.00    -0.268 C  
HETATM    5  O   UNL     1      -9.866  13.770  69.010  1.00  0.00    -0.066 OA 
HETATM    6  N   UNL     1     -12.049  13.030  68.742  1.00  0.00    -0.244 N  
HETATM    7  H   UNL     1     -13.036  13.275  68.647  1.00  0.00     0.000 HD 
BRANCH   6   8
HETATM    8  C   UNL     1     -11.611  11.673  68.689  1.00  0.00    -0.312 A  
HETATM    9  C   UNL     1     -11.016  11.145  67.515  1.00  0.00    -0.275 A  
HETATM   10  C   UNL     1     -10.317   9.903  67.538  1.00  0.00    -0.289 A  
HETATM   11  I   UNL     1     -11.204  12.343  65.736  1.00  0.00    -0.428 I  
HETATM   12  C   UNL     1     -11.714  10.861  69.841  1.00  0.00    -0.339 A  
HETATM   13  C   UNL     1     -10.252   9.228  68.786  1.00  0.00    -0.205 A  
HETATM   14  I   UNL     1      -8.597   7.904  69.213  1.00  0.00    -0.137 I  
HETATM   15  I   UNL     1     -13.021  11.544  71.421  1.00  0.00     0.004 I  
HETATM   16  C   UNL     1     -11.070   9.610  69.885  1.00  0.00    -0.268 A  
BRANCH  10  17
HETATM   17  C   UNL     1      -9.573   9.444  66.308  1.00  0.00    -0.234 C  
HETATM   18  O   UNL     1     -10.131   8.599  65.606  1.00  0.00     0.172 OA 
HETATM   19  C   UNL     1      -7.535  10.975  66.607  1.00  0.00    -0.146 C  
HETATM   20  N   UNL     1      -8.277   9.889  65.980  1.00  0.00    -0.117 N  
BRANCH  20  21
HETATM   21  C   UNL     1      -7.551   9.209  64.872  1.00  0.00    -0.107 C  
BRANCH  21  22
HETATM   22  C   UNL     1      -6.966  10.203  63.836  1.00  0.00    -0.103 C  
HETATM   23  H   UNL     1      -5.294  10.411  62.787  1.00  0.00     0.000 HD 
HETATM   24  O   UNL     1      -5.652   9.801  63.421  1.00  0.00    -0.084 OA 
BRANCH  22  25
HETATM   25  C   UNL     1      -7.838  10.334  62.578  1.00  0.00    -0.144 C  
HETATM   26  H   UNL     1      -9.505   9.548  61.868  1.00  0.00     0.000 HD 
HETATM   27  O   UNL     1      -8.966   9.467  62.645  1.00  0.00    -0.241 OA 
ENDBRANCH  22  25
ENDBRANCH  21  22
ENDBRANCH  20  21
ENDBRANCH  10  17
BRANCH  16  28
HETATM   28  C   UNL     1     -11.287   8.697  71.050  1.00  0.00    -0.274 C  
HETATM   29  H   UNL     1      -9.588   9.451  72.026  1.00  0.00     0.000 HD 
HETATM   30  O   UNL     1     -12.212   7.903  71.087  1.00  0.00    -0.304 OA 
HETATM   31  N   UNL     1     -10.326   8.747  72.059  1.00  0.00    -0.343 N  
BRANCH  31  32
HETATM   32  C   UNL     1     -10.377   7.795  73.162  1.00  0.00    -0.340 C  
BRANCH  32  33
HETATM   33  C   UNL     1      -9.638   6.491  72.844  1.00  0.00    -0.149 C  
HETATM   34  O   UNL     1      -8.645   6.263  73.855  1.00  0.00    -0.121 OA 
HETATM   35  H   UNL     1      -8.186   5.454  73.658  1.00  0.00     0.000 HD 
BRANCH  33  36
HETATM   36  C   UNL     1     -10.614   5.306  72.765  1.00  0.00    -0.230 C  
HETATM   37  O   UNL     1     -11.967   5.724  72.940  1.00  0.00    -0.535 OA 
HETATM   38  H   UNL     1     -12.570   4.991  72.891  1.00  0.00     0.000 HD 
ENDBRANCH  33  36
ENDBRANCH  32  33
ENDBRANCH  31  32
ENDBRANCH  16  28
ENDBRANCH   6   8
ENDBRANCH   3   4
ENDBRANCH   2   3
TORSDOF 11
ENDMDL
MODEL       28
REMARK 921   NORMALIZED FREE ENERGY PREDICTED BY IDOCK:   -4.55 KCAL/MOL
REMARK 922        TOTAL FREE ENERGY PREDICTED BY IDOCK:   -8.60 KCAL/MOL
REMARK 923 INTER-LIGAND FREE ENERGY PREDICTED BY IDOCK:   -7.23 KCAL/MOL
REMARK 924 INTRA-LIGAND FREE ENERGY PREDICTED BY IDOCK:   -1.37 KCAL/MOL
REMARK 927      BINDING AFFINITY PREDICTED BY RF-SCORE:    0.00 PKD
ROOT
HETATM    1  C   UNL     1     -14.408   7.874  71.629  1.00  0.00    -0.479 C  
HETATM    2  O   UNL     1     -13.013   7.626  71.481  1.00  0.00    -0.336 OA 
ENDROOT
BRANCH   2   3
HETATM    3  C   UNL     1     -12.214   8.688  71.986  1.00  0.00    -0.373 C  
BRANCH   3   4
HETATM    4  C   UNL     1     -11.142   9.180  70.998  1.00  0.00    -0.305 C  
HETATM    5  O   UNL     1      -9.968   9.312  71.334  1.00  0.00    -0.306 OA 
HETATM    6  N   UNL     1     -11.617   9.431  69.705  1.00  0.00    -0.442 N  
HETATM    7  H   UNL     1     -12.607   9.340  69.475  1.00  0.00     0.000 HD 
BRANCH   6   8
HETATM    8  C   UNL     1     -10.656   9.819  68.724  1.00  0.00    -0.219 A  
HETATM    9  C   UNL     1     -10.408  11.187  68.449  1.00  0.00    -0.186 A  
HETATM   10  C   UNL     1      -9.265  11.592  67.699  1.00  0.00    -0.178 A  
HETATM   11  I   UNL     1     -11.826  12.589  69.259  1.00  0.00    -0.201 I  
HETATM   12  C   UNL     1      -9.897   8.829  68.060  1.00  0.00    -0.169 A  
HETATM   13  C   UNL     1      -8.400  10.563  67.244  1.00  0.00    -0.122 A  
HETATM   14  I   UNL     1      -6.305  10.980  66.913  1.00  0.00    -0.138 I  
HETATM   15  I   UNL     1     -10.617   6.793  68.164  1.00  0.00    -0.311 I  
HETATM   16  C   UNL     1      -8.786   9.194  67.278  1.00  0.00    -0.132 A  
BRANCH  10  17
HETATM   17  C   UNL     1      -8.954  13.062  67.552  1.00  0.00    -0.193 C  
HETATM   18  O   UNL     1      -8.297  13.582  68.454  1.00  0.00    -0.156 OA 
HETATM   19  C   UNL     1     -10.088  13.376  65.271  1.00  0.00    -0.249 C  
HETATM   20  N   UNL     1      -9.428  13.847  66.482  1.00  0.00    -0.283 N  
BRANCH  20  21
HETATM   21  C   UNL     1      -9.251  15.324  66.550  1.00  0.00    -0.290 C  
BRANCH  21  22
HETATM   22  C   UNL     1     -10.594  16.085  66.693  1.00  0.00    -0.297 C  
HETATM   23  H   UNL     1     -11.831  16.612  68.153  1.00  0.00     0.000 HD 
HETATM   24  O   UNL     1     -11.008  16.145  68.066  1.00  0.00    -0.331 OA 
BRANCH  22  25
HETATM   25  C   UNL     1     -10.523  17.524  66.158  1.00  0.00    -0.288 C  
HETATM   26  H   UNL     1      -9.502  19.172  66.532  1.00  0.00     0.000 HD 
HETATM   27  O   UNL     1      -9.546  18.283  66.862  1.00  0.00    -0.276 OA 
ENDBRANCH  22  25
ENDBRANCH  21  22
ENDBRANCH  20  21
ENDBRANCH  10  17
BRANCH  16  28
HETATM   28  C   UNL     1      -8.064   8.160  66.473  1.00  0.00    -0.106 C  
HETATM   29  H   UNL     1      -9.308   8.502  64.817  1.00  0.00     0.000 HD 
HETATM   30  O   UNL     1      -7.136   7.515  66.931  1.00  0.00    -0.079 OA 
HETATM   31  N   UNL     1      -8.561   7.918  65.193  1.00  0.00    -0.086 N  
BRANCH  31  32
HETATM   32  C   UNL     1      -8.013   6.830  64.392  1.00  0.00    -0.096 C  
BRANCH  32  33
HETATM   33  C   UNL     1      -7.602   7.285  62.988  1.00  0.00    -0.112 C  
HETATM   34  O   UNL     1      -8.644   8.107  62.442  1.00  0.00    -0.375 OA 
HETATM   35  H   UNL     1      -8.389   8.389  61.571  1.00  0.00     0.000 HD 
BRANCH  33  36
HETATM   36  C   UNL     1      -6.268   8.050  63.021  1.00  0.00    -0.076 C  
HETATM   37  O   UNL     1      -5.506   7.731  64.184  1.00  0.00    -0.039 OA 
HETATM   38  H   UNL     1      -4.682   8.204  64.204  1.00  0.00     0.000 HD 
ENDBRANCH  33  36
ENDBRANCH  32  33
ENDBRANCH  31  32
ENDBRANCH  16  28
ENDBRANCH   6   8
ENDBRANCH   3   4
ENDBRANCH   2   3
TORSDOF 11
ENDMDL
MODEL       29
REMARK 921   NORMALIZED FREE ENERGY PREDICTED BY IDOCK:   -4.51 KCAL/MOL
REMARK 922        TOTAL FREE ENERGY PREDICTED BY IDOCK:   -8.54 KCAL/MOL
REMARK 923 INTER-LIGAND FREE ENERGY PREDICTED BY IDOCK:   -7.14 KCAL/MOL
REMARK 924 INTRA-LIGAND FREE ENERGY PREDICTED BY IDOCK:   -1.40 KCAL/MOL
REMARK 927      BINDING AFFINITY PREDICTED BY RF-SCORE:    0.00 PKD
ROOT
HETATM    1  C   UNL     1      -9.829   6.105  74.366  1.00  0.00    -0.284 C  
HETATM    2  O   UNL     1      -9.942   7.495  74.074  1.00  0.00    -0.220 OA 
ENDROOT
BRANCH   2   3
HETATM    3  C   UNL     1     -10.830   7.756  72.996  1.00  0.00    -0.389 C  
BRANCH   3   4
HETATM    4  C   UNL     1     -10.122   8.199  71.704  1.00  0.00    -0.199 C  
HETATM    5  O   UNL     1      -8.998   8.694  71.722  1.00  0.00    -0.205 OA 
HETATM    6  N   UNL     1     -10.853   7.965  70.533  1.00  0.00    -0.238 N  
HETATM    7  H   UNL     1     -11.798   7.580  70.563  1.00  0.00     0.000 HD 
BRANCH   6   8
HETATM    8  C   UNL     1     -10.219   8.286  69.296  1.00  0.00    -0.204 A  
HETATM    9  C   UNL     1     -10.294   9.595  68.758  1.00  0.00    -0.213 A  
HETATM   10  C   UNL     1      -9.438  10.005  67.693  1.00  0.00    -0.163 A  
HETATM   11  I   UNL     1     -11.735  10.912  69.665  1.00  0.00    -0.456 I  
HETATM   12  C   UNL     1      -9.453   7.304  68.628  1.00  0.00    -0.137 A  
HETATM   13  C   UNL     1      -8.518   9.040  67.204  1.00  0.00    -0.113 A  
HETATM   14  I   UNL     1      -6.661   9.679  66.302  1.00  0.00    -0.083 I  
HETATM   15  I   UNL     1      -9.745   5.247  69.224  1.00  0.00    -0.288 I  
HETATM   16  C   UNL     1      -8.628   7.664  67.546  1.00  0.00    -0.119 A  
BRANCH  10  17
HETATM   17  C   UNL     1      -9.444  11.446  67.245  1.00  0.00    -0.167 C  
HETATM   18  O   UNL     1      -8.996  12.275  68.039  1.00  0.00    -0.176 OA 
HETATM   19  C   UNL     1     -10.420  11.025  64.910  1.00  0.00    -0.303 C  
HETATM   20  N   UNL     1      -9.985  11.869  66.015  1.00  0.00    -0.225 N  
BRANCH  20  21
HETATM   21  C   UNL     1     -10.141  13.330  65.771  1.00  0.00    -0.286 C  
BRANCH  21  22
HETATM   22  C   UNL     1     -11.477  13.893  66.323  1.00  0.00    -0.339 C  
HETATM   23  H   UNL     1     -12.077  15.450  67.398  1.00  0.00     0.000 HD 
HETATM   24  O   UNL     1     -11.259  15.105  67.060  1.00  0.00    -0.335 OA 
BRANCH  22  25
HETATM   25  C   UNL     1     -12.500  14.191  65.216  1.00  0.00    -0.461 C  
HETATM   26  H   UNL     1     -13.894  13.214  64.215  1.00  0.00     0.000 HD 
HETATM   27  O   UNL     1     -13.262  13.030  64.899  1.00  0.00    -0.735 OA 
ENDBRANCH  22  25
ENDBRANCH  21  22
ENDBRANCH  20  21
ENDBRANCH  10  17
BRANCH  16  28
HETATM   28  C   UNL     1      -7.921   6.606  66.759  1.00  0.00    -0.108 C  
HETATM   29  H   UNL     1      -9.397   6.653  65.267  1.00  0.00     0.000 HD 
HETATM   30  O   UNL     1      -6.884   6.095  67.148  1.00  0.00    -0.059 OA 
HETATM   31  N   UNL     1      -8.555   6.179  65.593  1.00  0.00    -0.151 N  
BRANCH  31  32
HETATM   32  C   UNL     1      -8.013   5.055  64.840  1.00  0.00    -0.099 C  
BRANCH  32  33
HETATM   33  C   UNL     1      -8.955   3.846  64.833  1.00  0.00    -0.131 C  
HETATM   34  O   UNL     1      -9.177   3.438  63.475  1.00  0.00    -0.095 OA 
HETATM   35  H   UNL     1      -9.761   2.688  63.470  1.00  0.00     0.000 HD 
BRANCH  33  36
HETATM   36  C   UNL     1      -8.376   2.686  65.660  1.00  0.00    -0.094 C  
HETATM   37  O   UNL     1      -7.276   3.110  66.464  1.00  0.00    -0.060 OA 
HETATM   38  H   UNL     1      -6.918   2.393  66.976  1.00  0.00     0.000 HD 
ENDBRANCH  33  36
ENDBRANCH  32  33
ENDBRANCH  31  32
ENDBRANCH  16  28
ENDBRANCH   6   8
ENDBRANCH   3   4
ENDBRANCH   2   3
TORSDOF 11
ENDMDL
MODEL       30
REMARK 921   NORMALIZED FREE ENERGY PREDICTED BY IDOCK:   -4.48 KCAL/MOL
REMARK 922        TOTAL FREE ENERGY PREDICTED BY IDOCK:   -8.48 KCAL/MOL
REMARK 923 INTER-LIGAND FREE ENERGY PREDICTED BY IDOCK:   -7.41 KCAL/MOL
REMARK 924 INTRA-LIGAND FREE ENERGY PREDICTED BY IDOCK:   -1.07 KCAL/MOL
REMARK 927      BINDING AFFINITY PREDICTED BY RF-SCORE:    0.00 PKD
ROOT
HETATM    1  C   UNL     1     -12.947  15.791  73.429  1.00  0.00    -0.583 C  
HETATM    2  O   UNL     1     -13.177  14.964  72.292  1.00  0.00    -0.325 OA 
ENDROOT
BRANCH   2   3
HETATM    3  C   UNL     1     -12.972  15.653  71.066  1.00  0.00    -0.458 C  
BRANCH   3   4
HETATM    4  C   UNL     1     -11.602  15.378  70.423  1.00  0.00    -0.324 C  
HETATM    5  O   UNL     1     -10.595  15.198  71.103  1.00  0.00    -0.071 OA 
HETATM    6  N   UNL     1     -11.618  15.327  69.024  1.00  0.00    -0.323 N  
HETATM    7  H   UNL     1     -12.470  15.515  68.494  1.00  0.00     0.000 HD 
BRANCH   6   8
HETATM    8  C   UNL     1     -10.392  15.002  68.371  1.00  0.00    -0.231 A  
HETATM    9  C   UNL     1      -9.478  16.017  67.990  1.00  0.00    -0.207 A  
HETATM   10  C   UNL     1      -8.141  15.700  67.610  1.00  0.00    -0.166 A  
HETATM   11  I   UNL     1     -10.221  18.036  68.059  1.00  0.00    -0.395 I  
HETATM   12  C   UNL     1     -10.053  13.647  68.156  1.00  0.00    -0.245 A  
HETATM   13  C   UNL     1      -7.778  14.328  67.630  1.00  0.00    -0.177 A  
HETATM   14  I   UNL     1      -5.718  13.760  67.955  1.00  0.00    -0.060 I  
HETATM   15  I   UNL     1     -11.642  12.191  68.322  1.00  0.00    -0.324 I  
HETATM   16  C   UNL     1      -8.754  13.299  67.741  1.00  0.00    -0.194 A  
BRANCH  10  17
HETATM   17  C   UNL     1      -7.156  16.814  67.353  1.00  0.00    -0.156 C  
HETATM   18  O   UNL     1      -6.988  17.144  66.178  1.00  0.00    -0.246 OA 
HETATM   19  C   UNL     1      -6.571  17.264  69.811  1.00  0.00     0.005 C  
HETATM   20  N   UNL     1      -6.400  17.426  68.372  1.00  0.00    -0.170 N  
BRANCH  20  21
HETATM   21  C   UNL     1      -5.302  18.354  67.985  1.00  0.00    -0.165 C  
BRANCH  21  22
HETATM   22  C   UNL     1      -5.662  19.844  68.223  1.00  0.00    -0.218 C  
HETATM   23  H   UNL     1      -7.303  20.952  68.354  1.00  0.00     0.000 HD 
HETATM   24  O   UNL     1      -7.084  20.039  68.208  1.00  0.00    -0.290 OA 
BRANCH  22  25
HETATM   25  C   UNL     1      -5.125  20.381  69.559  1.00  0.00    -0.243 C  
HETATM   26  H   UNL     1      -5.857  21.152  71.223  1.00  0.00     0.000 HD 
HETATM   27  O   UNL     1      -6.189  20.821  70.397  1.00  0.00    -0.401 OA 
ENDBRANCH  22  25
ENDBRANCH  21  22
ENDBRANCH  20  21
ENDBRANCH  10  17
BRANCH  16  28
HETATM   28  C   UNL     1      -8.435  11.880  67.389  1.00  0.00    -0.166 C  
HETATM   29  H   UNL     1      -8.359  11.337  69.415  1.00  0.00     0.000 HD 
HETATM   30  O   UNL     1      -8.314  11.513  66.233  1.00  0.00    -0.159 OA 
HETATM   31  N   UNL     1      -8.207  11.016  68.459  1.00  0.00    -0.139 N  
BRANCH  31  32
HETATM   32  C   UNL     1      -7.750   9.654  68.211  1.00  0.00    -0.082 C  
BRANCH  32  33
HETATM   33  C   UNL     1      -8.607   8.609  68.932  1.00  0.00    -0.130 C  
HETATM   34  O   UNL     1      -8.799   9.023  70.293  1.00  0.00    -0.155 OA 
HETATM   35  H   UNL     1      -9.330   8.374  70.740  1.00  0.00     0.000 HD 
BRANCH  33  36
HETATM   36  C   UNL     1      -9.960   8.418  68.226  1.00  0.00    -0.187 C  
HETATM   37  O   UNL     1     -10.991   8.069  69.148  1.00  0.00    -0.420 OA 
HETATM   38  H   UNL     1     -11.827   7.951  68.712  1.00  0.00     0.000 HD 
ENDBRANCH  33  36
ENDBRANCH  32  33
ENDBRANCH  31  32
ENDBRANCH  16  28
ENDBRANCH   6   8
ENDBRANCH   3   4
ENDBRANCH   2   3
TORSDOF 11
ENDMDL
MODEL       31
REMARK 921   NORMALIZED FREE ENERGY PREDICTED BY IDOCK:   -4.45 KCAL/MOL
REMARK 922        TOTAL FREE ENERGY PREDICTED BY IDOCK:   -8.44 KCAL/MOL
REMARK 923 INTER-LIGAND FREE ENERGY PREDICTED BY IDOCK:   -7.64 KCAL/MOL
REMARK 924 INTRA-LIGAND FREE ENERGY PREDICTED BY IDOCK:   -0.79 KCAL/MOL
REMARK 927      BINDING AFFINITY PREDICTED BY RF-SCORE:    0.00 PKD
ROOT
HETATM    1  C   UNL     1      -5.213   8.091  64.298  1.00  0.00    -0.036 C  
HETATM    2  O   UNL     1      -6.174   8.480  65.276  1.00  0.00    -0.051 OA 
ENDROOT
BRANCH   2   3
HETATM    3  C   UNL     1      -5.581   8.788  66.531  1.00  0.00    -0.046 C  
BRANCH   3   4
HETATM    4  C   UNL     1      -6.477   9.638  67.448  1.00  0.00    -0.069 C  
HETATM    5  O   UNL     1      -6.389   9.578  68.672  1.00  0.00    -0.047 OA 
HETATM    6  N   UNL     1      -7.361  10.486  66.770  1.00  0.00    -0.109 N  
HETATM    7  H   UNL     1      -7.427  10.482  65.752  1.00  0.00     0.000 HD 
BRANCH   6   8
HETATM    8  C   UNL     1      -8.167  11.355  67.565  1.00  0.00    -0.130 A  
HETATM    9  C   UNL     1      -7.720  12.656  67.903  1.00  0.00    -0.141 A  
HETATM   10  C   UNL     1      -8.616  13.628  68.436  1.00  0.00    -0.151 A  
HETATM   11  I   UNL     1      -5.641  13.071  67.529  1.00  0.00     0.239 I  
HETATM   12  C   UNL     1      -9.456  10.937  67.968  1.00  0.00    -0.163 A  
HETATM   13  C   UNL     1      -9.966  13.226  68.612  1.00  0.00    -0.122 A  
HETATM   14  I   UNL     1     -11.549  14.697  68.543  1.00  0.00    -0.330 I  
HETATM   15  I   UNL     1      -9.900   8.826  67.833  1.00  0.00    -0.255 I  
HETATM   16  C   UNL     1     -10.354  11.860  68.536  1.00  0.00    -0.228 A  
BRANCH  10  17
HETATM   17  C   UNL     1      -8.139  15.045  68.647  1.00  0.00    -0.153 C  
HETATM   18  O   UNL     1      -7.718  15.325  69.771  1.00  0.00    -0.204 OA 
HETATM   19  C   UNL     1      -8.547  15.854  66.247  1.00  0.00    -0.313 C  
HETATM   20  N   UNL     1      -8.216  16.040  67.654  1.00  0.00    -0.145 N  
BRANCH  20  21
HETATM   21  C   UNL     1      -7.927  17.450  68.036  1.00  0.00    -0.224 C  
BRANCH  21  22
HETATM   22  C   UNL     1      -9.113  18.407  67.749  1.00  0.00    -0.277 C  
HETATM   23  H   UNL     1     -10.758  19.019  68.676  1.00  0.00     0.000 HD 
HETATM   24  O   UNL     1     -10.031  18.433  68.852  1.00  0.00    -0.381 OA 
BRANCH  22  25
HETATM   25  C   UNL     1      -8.663  19.849  67.475  1.00  0.00    -0.338 C  
HETATM   26  H   UNL     1      -9.502  21.584  67.042  1.00  0.00     0.000 HD 
HETATM   27  O   UNL     1      -9.780  20.692  67.211  1.00  0.00    -0.465 OA 
ENDBRANCH  22  25
ENDBRANCH  21  22
ENDBRANCH  20  21
ENDBRANCH  10  17
BRANCH  16  28
HETATM   28  C   UNL     1     -11.666  11.390  69.081  1.00  0.00    -0.342 C  
HETATM   29  H   UNL     1     -10.927  11.432  71.045  1.00  0.00     0.000 HD 
HETATM   30  O   UNL     1     -12.615  11.142  68.357  1.00  0.00    -0.107 OA 
HETATM   31  N   UNL     1     -11.720  11.174  70.457  1.00  0.00    -0.332 N  
BRANCH  31  32
HETATM   32  C   UNL     1     -12.909  10.581  71.056  1.00  0.00    -0.407 C  
BRANCH  32  33
HETATM   33  C   UNL     1     -12.721   9.097  71.386  1.00  0.00    -0.318 C  
HETATM   34  O   UNL     1     -11.547   8.947  72.197  1.00  0.00    -0.363 OA 
HETATM   35  H   UNL     1     -11.430   8.026  72.402  1.00  0.00     0.000 HD 
BRANCH  33  36
HETATM   36  C   UNL     1     -13.955   8.528  72.106  1.00  0.00    -0.403 C  
HETATM   37  O   UNL     1     -14.073   9.039  73.432  1.00  0.00    -1.231 OA 
HETATM   38  H   UNL     1     -14.836   8.687  73.877  1.00  0.00     0.000 HD 
ENDBRANCH  33  36
ENDBRANCH  32  33
ENDBRANCH  31  32
ENDBRANCH  16  28
ENDBRANCH   6   8
ENDBRANCH   3   4
ENDBRANCH   2   3
TORSDOF 11
ENDMDL
MODEL       32
REMARK 921   NORMALIZED FREE ENERGY PREDICTED BY IDOCK:   -4.36 KCAL/MOL
REMARK 922        TOTAL FREE ENERGY PREDICTED BY IDOCK:   -8.28 KCAL/MOL
REMARK 923 INTER-LIGAND FREE ENERGY PREDICTED BY IDOCK:   -7.77 KCAL/MOL
REMARK 924 INTRA-LIGAND FREE ENERGY PREDICTED BY IDOCK:   -0.51 KCAL/MOL
REMARK 927      BINDING AFFINITY PREDICTED BY RF-SCORE:    0.00 PKD
ROOT
HETATM    1  C   UNL     1      -5.196  18.840  70.923  1.00  0.00    -0.267 C  
HETATM    2  O   UNL     1      -5.559  17.646  70.235  1.00  0.00    -0.237 OA 
ENDROOT
BRANCH   2   3
HETATM    3  C   UNL     1      -6.322  17.902  69.063  1.00  0.00    -0.232 C  
BRANCH   3   4
HETATM    4  C   UNL     1      -6.922  16.636  68.426  1.00  0.00    -0.160 C  
HETATM    5  O   UNL     1      -6.702  16.339  67.255  1.00  0.00    -0.160 OA 
HETATM    6  N   UNL     1      -7.699  15.862  69.296  1.00  0.00    -0.219 N  
HETATM    7  H   UNL     1      -7.883  16.161  70.254  1.00  0.00     0.000 HD 
BRANCH   6   8
HETATM    8  C   UNL     1      -8.222  14.637  68.785  1.00  0.00    -0.156 A  
HETATM    9  C   UNL     1      -7.494  13.427  68.908  1.00  0.00    -0.010 A  
HETATM   10  C   UNL     1      -8.117  12.166  68.673  1.00  0.00    -0.048 A  
HETATM   11  I   UNL     1      -5.434  13.615  69.503  1.00  0.00    -0.102 I  
HETATM   12  C   UNL     1      -9.510  14.616  68.203  1.00  0.00    -0.212 A  
HETATM   13  C   UNL     1      -9.489  12.187  68.308  1.00  0.00    -0.204 A  
HETATM   14  I   UNL     1     -10.754  10.496  68.768  1.00  0.00    -0.337 I  
HETATM   15  I   UNL     1     -10.365  16.515  67.625  1.00  0.00    -0.286 I  
HETATM   16  C   UNL     1     -10.139  13.390  67.918  1.00  0.00    -0.238 A  
BRANCH  10  17
HETATM   17  C   UNL     1      -7.354  10.894  68.956  1.00  0.00    -0.113 C  
HETATM   18  O   UNL     1      -7.241  10.568  70.139  1.00  0.00    -0.162 OA 
HETATM   19  C   UNL     1      -6.882  10.282  66.509  1.00  0.00    -0.101 C  
HETATM   20  N   UNL     1      -6.734  10.127  67.950  1.00  0.00    -0.066 N  
BRANCH  20  21
HETATM   21  C   UNL     1      -5.824   9.021  68.358  1.00  0.00    -0.042 C  
BRANCH  21  22
HETATM   22  C   UNL     1      -6.401   7.618  68.035  1.00  0.00    -0.049 C  
HETATM   23  H   UNL     1      -5.984   5.727  68.471  1.00  0.00     0.000 HD 
HETATM   24  O   UNL     1      -5.630   6.586  68.669  1.00  0.00    -0.014 OA 
BRANCH  22  25
HETATM   25  C   UNL     1      -7.862   7.457  68.481  1.00  0.00    -0.122 C  
HETATM   26  H   UNL     1      -8.842   6.942  70.116  1.00  0.00     0.000 HD 
HETATM   27  O   UNL     1      -7.939   7.042  69.840  1.00  0.00    -0.118 OA 
ENDBRANCH  22  25
ENDBRANCH  21  22
ENDBRANCH  20  21
ENDBRANCH  10  17
BRANCH  16  28
HETATM   28  C   UNL     1     -11.443  13.370  67.184  1.00  0.00    -0.339 C  
HETATM   29  H   UNL     1     -10.619  12.205  65.644  1.00  0.00     0.000 HD 
HETATM   30  O   UNL     1     -12.431  13.948  67.605  1.00  0.00    -0.152 OA 
HETATM   31  N   UNL     1     -11.445  12.719  65.951  1.00  0.00    -0.338 N  
BRANCH  31  32
HETATM   32  C   UNL     1     -12.629  12.772  65.103  1.00  0.00    -0.444 C  
BRANCH  32  33
HETATM   33  C   UNL     1     -12.280  12.808  63.612  1.00  0.00    -0.512 C  
HETATM   34  O   UNL     1     -12.444  14.149  63.128  1.00  0.00    -1.126 OA 
HETATM   35  H   UNL     1     -12.227  14.171  62.203  1.00  0.00     0.000 HD 
BRANCH  33  36
HETATM   36  C   UNL     1     -10.844  12.314  63.365  1.00  0.00    -0.403 C  
HETATM   37  O   UNL     1     -10.823  10.968  62.893  1.00  0.00    -0.797 OA 
HETATM   38  H   UNL     1      -9.936  10.663  62.741  1.00  0.00     0.000 HD 
ENDBRANCH  33  36
ENDBRANCH  32  33
ENDBRANCH  31  32
ENDBRANCH  16  28
ENDBRANCH   6   8
ENDBRANCH   3   4
ENDBRANCH   2   3
TORSDOF 11
ENDMDL
MODEL       33
REMARK 921   NORMALIZED FREE ENERGY PREDICTED BY IDOCK:   -4.32 KCAL/MOL
REMARK 922        TOTAL FREE ENERGY PREDICTED BY IDOCK:   -8.22 KCAL/MOL
REMARK 923 INTER-LIGAND FREE ENERGY PREDICTED BY IDOCK:   -6.98 KCAL/MOL
REMARK 924 INTRA-LIGAND FREE ENERGY PREDICTED BY IDOCK:   -1.24 KCAL/MOL
REMARK 927      BINDING AFFINITY PREDICTED BY RF-SCORE:    0.00 PKD
ROOT
HETATM    1  C   UNL     1      -7.316   7.783  74.532  1.00  0.00    -0.152 C  
HETATM    2  O   UNL     1      -8.254   8.764  74.099  1.00  0.00    -0.312 OA 
ENDROOT
BRANCH   2   3
HETATM    3  C   UNL     1      -9.285   8.214  73.290  1.00  0.00    -0.246 C  
BRANCH   3   4
HETATM    4  C   UNL     1      -9.171   8.588  71.802  1.00  0.00    -0.246 C  
HETATM    5  O   UNL     1      -8.186   9.172  71.358  1.00  0.00    -0.316 OA 
HETATM    6  N   UNL     1     -10.258   8.183  71.018  1.00  0.00    -0.187 N  
HETATM    7  H   UNL     1     -11.072   7.728  71.431  1.00  0.00     0.000 HD 
BRANCH   6   8
HETATM    8  C   UNL     1     -10.177   8.435  69.616  1.00  0.00    -0.209 A  
HETATM    9  C   UNL     1     -10.688   9.635  69.061  1.00  0.00    -0.211 A  
HETATM   10  C   UNL     1     -10.360  10.030  67.731  1.00  0.00    -0.261 A  
HETATM   11  I   UNL     1     -11.938  10.820  70.352  1.00  0.00    -0.494 I  
HETATM   12  C   UNL     1      -9.525   7.505  68.775  1.00  0.00    -0.148 A  
HETATM   13  C   UNL     1      -9.506   9.165  66.998  1.00  0.00    -0.154 A  
HETATM   14  I   UNL     1      -8.248   9.961  65.431  1.00  0.00    -0.174 I  
HETATM   15  I   UNL     1      -9.185   5.523  69.568  1.00  0.00    -0.186 I  
HETATM   16  C   UNL     1      -9.221   7.845  67.444  1.00  0.00    -0.160 A  
BRANCH  10  17
HETATM   17  C   UNL     1     -10.801  11.383  67.225  1.00  0.00    -0.263 C  
HETATM   18  O   UNL     1     -11.854  11.419  66.588  1.00  0.00    -0.399 OA 
HETATM   19  C   UNL     1      -8.860  12.723  68.237  1.00  0.00    -0.168 C  
HETATM   20  N   UNL     1     -10.041  12.556  67.399  1.00  0.00    -0.209 N  
BRANCH  20  21
HETATM   21  C   UNL     1     -10.457  13.787  66.672  1.00  0.00    -0.272 C  
BRANCH  21  22
HETATM   22  C   UNL     1     -11.414  14.681  67.501  1.00  0.00    -0.361 C  
HETATM   23  H   UNL     1     -12.268  14.645  69.293  1.00  0.00     0.000 HD 
HETATM   24  O   UNL     1     -11.681  14.097  68.785  1.00  0.00    -0.303 OA 
BRANCH  22  25
HETATM   25  C   UNL     1     -10.859  16.095  67.732  1.00  0.00    -0.318 C  
HETATM   26  H   UNL     1      -9.190  16.919  68.391  1.00  0.00     0.000 HD 
HETATM   27  O   UNL     1      -9.533  16.046  68.248  1.00  0.00    -0.202 OA 
ENDBRANCH  22  25
ENDBRANCH  21  22
ENDBRANCH  20  21
ENDBRANCH  10  17
BRANCH  16  28
HETATM   28  C   UNL     1      -8.650   6.815  66.520  1.00  0.00    -0.128 C  
HETATM   29  H   UNL     1     -10.567   6.130  66.010  1.00  0.00     0.000 HD 
HETATM   30  O   UNL     1      -7.447   6.679  66.368  1.00  0.00    -0.082 OA 
HETATM   31  N   UNL     1      -9.566   5.966  65.901  1.00  0.00    -0.027 N  
BRANCH  31  32
HETATM   32  C   UNL     1      -9.094   4.845  65.099  1.00  0.00    -0.144 C  
BRANCH  32  33
HETATM   33  C   UNL     1      -9.184   3.511  65.846  1.00  0.00    -0.162 C  
HETATM   34  O   UNL     1     -10.003   2.608  65.088  1.00  0.00    -0.353 OA 
HETATM   35  H   UNL     1     -10.059   1.780  65.551  1.00  0.00     0.000 HD 
BRANCH  33  36
HETATM   36  C   UNL     1      -7.787   2.910  66.080  1.00  0.00    -0.081 C  
HETATM   37  O   UNL     1      -6.994   3.736  66.929  1.00  0.00    -0.056 OA 
HETATM   38  H   UNL     1      -6.131   3.365  67.074  1.00  0.00     0.000 HD 
ENDBRANCH  33  36
ENDBRANCH  32  33
ENDBRANCH  31  32
ENDBRANCH  16  28
ENDBRANCH   6   8
ENDBRANCH   3   4
ENDBRANCH   2   3
TORSDOF 11
ENDMDL
MODEL       34
REMARK 921   NORMALIZED FREE ENERGY PREDICTED BY IDOCK:   -4.31 KCAL/MOL
REMARK 922        TOTAL FREE ENERGY PREDICTED BY IDOCK:   -8.21 KCAL/MOL
REMARK 923 INTER-LIGAND FREE ENERGY PREDICTED BY IDOCK:   -6.60 KCAL/MOL
REMARK 924 INTRA-LIGAND FREE ENERGY PREDICTED BY IDOCK:   -1.61 KCAL/MOL
REMARK 927      BINDING AFFINITY PREDICTED BY RF-SCORE:    0.00 PKD
ROOT
HETATM    1  C   UNL     1     -11.724  14.554  65.312  1.00  0.00    -0.361 C  
HETATM    2  O   UNL     1     -12.484  14.071  66.417  1.00  0.00    -0.452 OA 
ENDROOT
BRANCH   2   3
HETATM    3  C   UNL     1     -11.785  14.183  67.650  1.00  0.00    -0.387 C  
BRANCH   3   4
HETATM    4  C   UNL     1     -10.946  12.942  68.001  1.00  0.00    -0.247 C  
HETATM    5  O   UNL     1      -9.778  13.038  68.370  1.00  0.00    -0.227 OA 
HETATM    6  N   UNL     1     -11.633  11.728  67.891  1.00  0.00    -0.311 N  
HETATM    7  H   UNL     1     -12.594  11.689  67.550  1.00  0.00     0.000 HD 
BRANCH   6   8
HETATM    8  C   UNL     1     -10.931  10.546  68.274  1.00  0.00    -0.263 A  
HETATM    9  C   UNL     1     -10.035   9.909  67.381  1.00  0.00    -0.189 A  
HETATM   10  C   UNL     1      -9.119   8.917  67.839  1.00  0.00    -0.145 A  
HETATM   11  I   UNL     1     -10.121  10.556  65.330  1.00  0.00    -0.238 I  
HETATM   12  C   UNL     1     -11.083  10.039  69.585  1.00  0.00    -0.259 A  
HETATM   13  C   UNL     1      -9.155   8.602  69.223  1.00  0.00    -0.149 A  
HETATM   14  I   UNL     1      -7.379   7.862  70.208  1.00  0.00    -0.068 I  
HETATM   15  I   UNL     1     -12.772  10.749  70.732  1.00  0.00    -0.320 I  
HETATM   16  C   UNL     1     -10.224   9.030  70.058  1.00  0.00    -0.222 A  
BRANCH  10  17
HETATM   17  C   UNL     1      -8.082   8.366  66.890  1.00  0.00    -0.099 C  
HETATM   18  O   UNL     1      -7.103   9.080  66.665  1.00  0.00    -0.080 OA 
HETATM   19  C   UNL     1      -9.227   6.108  66.478  1.00  0.00    -0.149 C  
HETATM   20  N   UNL     1      -8.221   7.132  66.227  1.00  0.00    -0.117 N  
BRANCH  20  21
HETATM   21  C   UNL     1      -7.252   6.789  65.150  1.00  0.00    -0.074 C  
BRANCH  21  22
HETATM   22  C   UNL     1      -7.882   6.840  63.734  1.00  0.00    -0.107 C  
HETATM   23  H   UNL     1      -7.720   7.952  62.098  1.00  0.00     0.000 HD 
HETATM   24  O   UNL     1      -7.333   7.921  62.965  1.00  0.00    -0.092 OA 
BRANCH  22  25
HETATM   25  C   UNL     1      -7.673   5.542  62.941  1.00  0.00    -0.080 C  
HETATM   26  H   UNL     1      -8.542   3.776  62.772  1.00  0.00     0.000 HD 
HETATM   27  O   UNL     1      -8.671   4.579  63.263  1.00  0.00    -0.115 OA 
ENDBRANCH  22  25
ENDBRANCH  21  22
ENDBRANCH  20  21
ENDBRANCH  10  17
BRANCH  16  28
HETATM   28  C   UNL     1     -10.468   8.403  71.394  1.00  0.00    -0.224 C  
HETATM   29  H   UNL     1     -11.471   6.784  70.513  1.00  0.00     0.000 HD 
HETATM   30  O   UNL     1     -10.098   8.928  72.432  1.00  0.00    -0.250 OA 
HETATM   31  N   UNL     1     -11.213   7.225  71.396  1.00  0.00    -0.244 N  
BRANCH  31  32
HETATM   32  C   UNL     1     -11.621   6.623  72.658  1.00  0.00    -0.134 C  
BRANCH  32  33
HETATM   33  C   UNL     1     -10.835   5.349  72.982  1.00  0.00    -0.276 C  
HETATM   34  O   UNL     1     -10.493   4.689  71.754  1.00  0.00    -0.171 OA 
HETATM   35  H   UNL     1     -10.005   3.898  71.955  1.00  0.00     0.000 HD 
BRANCH  33  36
HETATM   36  C   UNL     1      -9.570   5.670  73.796  1.00  0.00    -0.143 C  
HETATM   37  O   UNL     1      -9.714   6.878  74.540  1.00  0.00    -0.404 OA 
HETATM   38  H   UNL     1      -8.932   7.076  75.043  1.00  0.00     0.000 HD 
ENDBRANCH  33  36
ENDBRANCH  32  33
ENDBRANCH  31  32
ENDBRANCH  16  28
ENDBRANCH   6   8
ENDBRANCH   3   4
ENDBRANCH   2   3
TORSDOF 11
ENDMDL
MODEL       35
REMARK 921   NORMALIZED FREE ENERGY PREDICTED BY IDOCK:   -4.29 KCAL/MOL
REMARK 922        TOTAL FREE ENERGY PREDICTED BY IDOCK:   -8.17 KCAL/MOL
REMARK 923 INTER-LIGAND FREE ENERGY PREDICTED BY IDOCK:   -7.06 KCAL/MOL
REMARK 924 INTRA-LIGAND FREE ENERGY PREDICTED BY IDOCK:   -1.11 KCAL/MOL
REMARK 927      BINDING AFFINITY PREDICTED BY RF-SCORE:    0.00 PKD
ROOT
HETATM    1  C   UNL     1     -12.178  13.227  63.443  1.00  0.00    -0.403 C  
HETATM    2  O   UNL     1     -10.905  13.214  64.083  1.00  0.00    -0.388 OA 
ENDROOT
BRANCH   2   3
HETATM    3  C   UNL     1     -10.053  12.192  63.582  1.00  0.00    -0.385 C  
BRANCH   3   4
HETATM    4  C   UNL     1      -9.827  11.034  64.569  1.00  0.00    -0.290 C  
HETATM    5  O   UNL     1     -10.760  10.353  64.988  1.00  0.00    -0.086 OA 
HETATM    6  N   UNL     1      -8.488  10.820  64.914  1.00  0.00    -0.333 N  
HETATM    7  H   UNL     1      -7.745  11.429  64.569  1.00  0.00     0.000 HD 
BRANCH   6   8
HETATM    8  C   UNL     1      -8.205   9.713  65.769  1.00  0.00    -0.120 A  
HETATM    9  C   UNL     1      -8.230   9.856  67.178  1.00  0.00    -0.121 A  
HETATM   10  C   UNL     1      -8.241   8.717  68.035  1.00  0.00    -0.115 A  
HETATM   11  I   UNL     1      -8.288  11.874  67.925  1.00  0.00    -0.180 I  
HETATM   12  C   UNL     1      -7.959   8.440  65.205  1.00  0.00    -0.136 A  
HETATM   13  C   UNL     1      -8.223   7.443  67.407  1.00  0.00    -0.113 A  
HETATM   14  I   UNL     1      -9.093   5.735  68.405  1.00  0.00    -0.138 I  
HETATM   15  I   UNL     1      -7.479   8.367  63.098  1.00  0.00    -0.128 I  
HETATM   16  C   UNL     1      -7.922   7.297  66.025  1.00  0.00    -0.115 A  
BRANCH  10  17
HETATM   17  C   UNL     1      -8.416   8.905  69.523  1.00  0.00    -0.128 C  
HETATM   18  O   UNL     1      -7.403   8.800  70.216  1.00  0.00    -0.050 OA 
HETATM   19  C   UNL     1     -10.930   9.417  69.463  1.00  0.00    -0.173 C  
HETATM   20  N   UNL     1      -9.667   9.126  70.131  1.00  0.00    -0.190 N  
BRANCH  20  21
HETATM   21  C   UNL     1      -9.755   9.076  71.616  1.00  0.00    -0.276 C  
BRANCH  21  22
HETATM   22  C   UNL     1     -10.430   7.779  72.135  1.00  0.00    -0.231 C  
HETATM   23  H   UNL     1     -10.095   6.414  73.536  1.00  0.00     0.000 HD 
HETATM   24  O   UNL     1      -9.682   7.208  73.219  1.00  0.00    -0.171 OA 
BRANCH  22  25
HETATM   25  C   UNL     1     -11.868   8.010  72.623  1.00  0.00    -0.321 C  
HETATM   26  H   UNL     1     -13.696   7.506  72.073  1.00  0.00     0.000 HD 
HETATM   27  O   UNL     1     -12.807   7.363  71.771  1.00  0.00    -0.332 OA 
ENDBRANCH  22  25
ENDBRANCH  21  22
ENDBRANCH  20  21
ENDBRANCH  10  17
BRANCH  16  28
HETATM   28  C   UNL     1      -7.533   5.973  65.447  1.00  0.00    -0.082 C  
HETATM   29  H   UNL     1      -9.425   5.737  64.571  1.00  0.00     0.000 HD 
HETATM   30  O   UNL     1      -6.430   5.486  65.632  1.00  0.00    -0.038 OA 
HETATM   31  N   UNL     1      -8.527   5.289  64.750  1.00  0.00    -0.148 N  
BRANCH  31  32
HETATM   32  C   UNL     1      -8.283   3.932  64.277  1.00  0.00    -0.090 C  
BRANCH  32  33
HETATM   33  C   UNL     1      -9.509   3.027  64.431  1.00  0.00    -0.145 C  
HETATM   34  O   UNL     1      -9.742   2.796  65.829  1.00  0.00    -0.372 OA 
HETATM   35  H   UNL     1     -10.503   2.234  65.925  1.00  0.00     0.000 HD 
BRANCH  33  36
HETATM   36  C   UNL     1     -10.749   3.654  63.771  1.00  0.00    -0.261 C  
HETATM   37  O   UNL     1     -11.553   4.354  64.718  1.00  0.00    -1.000 OA 
HETATM   38  H   UNL     1     -12.319   4.742  64.310  1.00  0.00     0.000 HD 
ENDBRANCH  33  36
ENDBRANCH  32  33
ENDBRANCH  31  32
ENDBRANCH  16  28
ENDBRANCH   6   8
ENDBRANCH   3   4
ENDBRANCH   2   3
TORSDOF 11
ENDMDL
MODEL       36
REMARK 921   NORMALIZED FREE ENERGY PREDICTED BY IDOCK:   -4.29 KCAL/MOL
REMARK 922        TOTAL FREE ENERGY PREDICTED BY IDOCK:   -8.17 KCAL/MOL
REMARK 923 INTER-LIGAND FREE ENERGY PREDICTED BY IDOCK:   -6.89 KCAL/MOL
REMARK 924 INTRA-LIGAND FREE ENERGY PREDICTED BY IDOCK:   -1.28 KCAL/MOL
REMARK 927      BINDING AFFINITY PREDICTED BY RF-SCORE:    0.00 PKD
ROOT
HETATM    1  C   UNL     1     -12.185  14.305  64.980  1.00  0.00    -0.433 C  
HETATM    2  O   UNL     1     -12.786  14.025  66.241  1.00  0.00    -0.331 OA 
ENDROOT
BRANCH   2   3
HETATM    3  C   UNL     1     -11.900  14.250  67.330  1.00  0.00    -0.413 C  
BRANCH   3   4
HETATM    4  C   UNL     1     -10.879  13.119  67.541  1.00  0.00    -0.255 C  
HETATM    5  O   UNL     1      -9.712  13.353  67.846  1.00  0.00    -0.212 OA 
HETATM    6  N   UNL     1     -11.400  11.830  67.382  1.00  0.00    -0.301 N  
HETATM    7  H   UNL     1     -12.368  11.679  67.096  1.00  0.00     0.000 HD 
BRANCH   6   8
HETATM    8  C   UNL     1     -10.520  10.736  67.637  1.00  0.00    -0.214 A  
HETATM    9  C   UNL     1      -9.671  10.232  66.621  1.00  0.00    -0.185 A  
HETATM   10  C   UNL     1      -8.594   9.351  66.930  1.00  0.00    -0.132 A  
HETATM   11  I   UNL     1     -10.087  10.904  64.619  1.00  0.00    -0.386 I  
HETATM   12  C   UNL     1     -10.447  10.188  68.938  1.00  0.00    -0.210 A  
HETATM   13  C   UNL     1      -8.420   9.006  68.297  1.00  0.00    -0.129 A  
HETATM   14  I   UNL     1      -6.461   8.471  69.036  1.00  0.00    -0.049 I  
HETATM   15  I   UNL     1     -12.054  10.662  70.304  1.00  0.00    -0.417 I  
HETATM   16  C   UNL     1      -9.421   9.283  69.269  1.00  0.00    -0.160 A  
BRANCH  10  17
HETATM   17  C   UNL     1      -7.624   8.951  65.846  1.00  0.00    -0.093 C  
HETATM   18  O   UNL     1      -6.737   9.761  65.570  1.00  0.00    -0.080 OA 
HETATM   19  C   UNL     1      -8.618   6.627  65.402  1.00  0.00    -0.056 C  
HETATM   20  N   UNL     1      -7.732   7.749  65.118  1.00  0.00    -0.094 N  
BRANCH  20  21
HETATM   21  C   UNL     1      -6.860   7.557  63.927  1.00  0.00    -0.054 C  
BRANCH  21  22
HETATM   22  C   UNL     1      -5.546   6.802  64.258  1.00  0.00    -0.031 C  
HETATM   23  H   UNL     1      -4.680   6.001  65.854  1.00  0.00     0.000 HD 
HETATM   24  O   UNL     1      -5.485   6.463  65.651  1.00  0.00    -0.016 OA 
BRANCH  22  25
HETATM   25  C   UNL     1      -5.384   5.506  63.449  1.00  0.00    -0.013 C  
HETATM   26  H   UNL     1      -6.150   3.686  63.438  1.00  0.00     0.000 HD 
HETATM   27  O   UNL     1      -6.250   4.487  63.937  1.00  0.00    -0.021 OA 
ENDBRANCH  22  25
ENDBRANCH  21  22
ENDBRANCH  20  21
ENDBRANCH  10  17
BRANCH  16  28
HETATM   28  C   UNL     1      -9.422   8.605  70.603  1.00  0.00    -0.184 C  
HETATM   29  H   UNL     1     -10.072   6.802  69.747  1.00  0.00     0.000 HD 
HETATM   30  O   UNL     1      -9.117   9.193  71.627  1.00  0.00    -0.334 OA 
HETATM   31  N   UNL     1      -9.866   7.284  70.622  1.00  0.00    -0.180 N  
BRANCH  31  32
HETATM   32  C   UNL     1     -10.037   6.591  71.893  1.00  0.00    -0.182 C  
BRANCH  32  33
HETATM   33  C   UNL     1     -11.468   6.696  72.430  1.00  0.00    -0.262 C  
HETATM   34  O   UNL     1     -11.547   7.817  73.324  1.00  0.00    -0.644 OA 
HETATM   35  H   UNL     1     -12.435   7.882  73.658  1.00  0.00     0.000 HD 
BRANCH  33  36
HETATM   36  C   UNL     1     -12.482   6.843  71.284  1.00  0.00    -0.361 C  
HETATM   37  O   UNL     1     -13.787   7.152  71.771  1.00  0.00    -0.454 OA 
HETATM   38  H   UNL     1     -14.413   7.243  71.062  1.00  0.00     0.000 HD 
ENDBRANCH  33  36
ENDBRANCH  32  33
ENDBRANCH  31  32
ENDBRANCH  16  28
ENDBRANCH   6   8
ENDBRANCH   3   4
ENDBRANCH   2   3
TORSDOF 11
ENDMDL
MODEL       37
REMARK 921   NORMALIZED FREE ENERGY PREDICTED BY IDOCK:   -4.21 KCAL/MOL
REMARK 922        TOTAL FREE ENERGY PREDICTED BY IDOCK:   -8.04 KCAL/MOL
REMARK 923 INTER-LIGAND FREE ENERGY PREDICTED BY IDOCK:   -7.60 KCAL/MOL
REMARK 924 INTRA-LIGAND FREE ENERGY PREDICTED BY IDOCK:   -0.44 KCAL/MOL
REMARK 927      BINDING AFFINITY PREDICTED BY RF-SCORE:    0.00 PKD
ROOT
HETATM    1  C   UNL     1     -14.380   7.876  71.705  1.00  0.00    -0.475 C  
HETATM    2  O   UNL     1     -13.112   7.515  71.165  1.00  0.00    -0.284 OA 
ENDROOT
BRANCH   2   3
HETATM    3  C   UNL     1     -12.033   8.166  71.822  1.00  0.00    -0.305 C  
BRANCH   3   4
HETATM    4  C   UNL     1     -11.307   9.200  70.946  1.00  0.00    -0.295 C  
HETATM    5  O   UNL     1     -10.198   9.635  71.246  1.00  0.00    -0.245 OA 
HETATM    6  N   UNL     1     -12.001   9.568  69.787  1.00  0.00    -0.341 N  
HETATM    7  H   UNL     1     -12.935   9.208  69.590  1.00  0.00     0.000 HD 
BRANCH   6   8
HETATM    8  C   UNL     1     -11.346  10.468  68.895  1.00  0.00    -0.251 A  
HETATM    9  C   UNL     1     -10.483   9.988  67.879  1.00  0.00    -0.231 A  
HETATM   10  C   UNL     1     -10.059  10.832  66.811  1.00  0.00    -0.267 A  
HETATM   11  I   UNL     1      -9.896   7.923  68.032  1.00  0.00    -0.240 I  
HETATM   12  C   UNL     1     -11.610  11.854  68.983  1.00  0.00    -0.317 A  
HETATM   13  C   UNL     1     -10.540  12.168  66.822  1.00  0.00    -0.226 A  
HETATM   14  I   UNL     1     -10.749  13.255  64.966  1.00  0.00    -0.418 I  
HETATM   15  I   UNL     1     -12.541  12.571  70.797  1.00  0.00     0.090 I  
HETATM   16  C   UNL     1     -11.171  12.725  67.968  1.00  0.00    -0.310 A  
BRANCH  10  17
HETATM   17  C   UNL     1      -9.261  10.248  65.671  1.00  0.00    -0.184 C  
HETATM   18  O   UNL     1      -9.901   9.724  64.758  1.00  0.00    -0.258 OA 
HETATM   19  C   UNL     1      -6.947  10.918  66.557  1.00  0.00    -0.139 C  
HETATM   20  N   UNL     1      -7.852  10.228  65.647  1.00  0.00    -0.146 N  
BRANCH  20  21
HETATM   21  C   UNL     1      -7.170   9.434  64.588  1.00  0.00    -0.104 C  
BRANCH  21  22
HETATM   22  C   UNL     1      -6.836   7.988  65.041  1.00  0.00    -0.055 C  
HETATM   23  H   UNL     1      -6.425   7.043  66.737  1.00  0.00     0.000 HD 
HETATM   24  O   UNL     1      -6.630   7.929  66.460  1.00  0.00    -0.052 OA 
BRANCH  22  25
HETATM   25  C   UNL     1      -7.940   6.982  64.682  1.00  0.00    -0.114 C  
HETATM   26  H   UNL     1      -8.425   5.831  63.152  1.00  0.00     0.000 HD 
HETATM   27  O   UNL     1      -7.743   6.453  63.374  1.00  0.00    -0.091 OA 
ENDBRANCH  22  25
ENDBRANCH  21  22
ENDBRANCH  20  21
ENDBRANCH  10  17
BRANCH  16  28
HETATM   28  C   UNL     1     -11.336  14.204  68.127  1.00  0.00    -0.290 C  
HETATM   29  H   UNL     1      -9.314  14.428  68.644  1.00  0.00     0.000 HD 
HETATM   30  O   UNL     1     -12.410  14.756  67.960  1.00  0.00    -0.108 OA 
HETATM   31  N   UNL     1     -10.210  14.906  68.555  1.00  0.00    -0.228 N  
BRANCH  31  32
HETATM   32  C   UNL     1     -10.315  16.324  68.875  1.00  0.00    -0.263 C  
BRANCH  32  33
HETATM   33  C   UNL     1      -9.927  17.221  67.695  1.00  0.00    -0.297 C  
HETATM   34  O   UNL     1     -10.593  16.750  66.515  1.00  0.00    -0.287 OA 
HETATM   35  H   UNL     1     -10.353  17.307  65.782  1.00  0.00     0.000 HD 
BRANCH  33  36
HETATM   36  C   UNL     1     -10.288  18.690  67.973  1.00  0.00    -0.377 C  
HETATM   37  O   UNL     1     -10.262  18.985  69.368  1.00  0.00    -0.491 OA 
HETATM   38  H   UNL     1     -10.485  19.893  69.540  1.00  0.00     0.000 HD 
ENDBRANCH  33  36
ENDBRANCH  32  33
ENDBRANCH  31  32
ENDBRANCH  16  28
ENDBRANCH   6   8
ENDBRANCH   3   4
ENDBRANCH   2   3
TORSDOF 11
ENDMDL
MODEL       38
REMARK 921   NORMALIZED FREE ENERGY PREDICTED BY IDOCK:   -4.21 KCAL/MOL
REMARK 922        TOTAL FREE ENERGY PREDICTED BY IDOCK:   -8.04 KCAL/MOL
REMARK 923 INTER-LIGAND FREE ENERGY PREDICTED BY IDOCK:   -7.59 KCAL/MOL
REMARK 924 INTRA-LIGAND FREE ENERGY PREDICTED BY IDOCK:   -0.45 KCAL/MOL
REMARK 927      BINDING AFFINITY PREDICTED BY RF-SCORE:    0.00 PKD
ROOT
HETATM    1  C   UNL     1      -9.130   3.365  66.404  1.00  0.00    -0.158 C  
HETATM    2  O   UNL     1      -9.596   4.192  65.341  1.00  0.00    -0.161 OA 
ENDROOT
BRANCH   2   3
HETATM    3  C   UNL     1      -8.705   5.260  65.050  1.00  0.00    -0.136 C  
BRANCH   3   4
HETATM    4  C   UNL     1      -8.714   6.379  66.105  1.00  0.00    -0.146 C  
HETATM    5  O   UNL     1      -7.736   6.604  66.814  1.00  0.00    -0.102 OA 
HETATM    6  N   UNL     1      -9.902   7.117  66.158  1.00  0.00    -0.427 N  
HETATM    7  H   UNL     1     -10.703   6.878  65.573  1.00  0.00     0.000 HD 
BRANCH   6   8
HETATM    8  C   UNL     1      -9.945   8.217  67.065  1.00  0.00    -0.259 A  
HETATM    9  C   UNL     1      -9.543   9.513  66.658  1.00  0.00    -0.188 A  
HETATM   10  C   UNL     1      -9.850  10.662  67.444  1.00  0.00    -0.198 A  
HETATM   11  I   UNL     1      -8.488   9.634  64.785  1.00  0.00    -0.234 I  
HETATM   12  C   UNL     1     -10.454   8.026  68.370  1.00  0.00    -0.163 A  
HETATM   13  C   UNL     1     -10.571  10.440  68.647  1.00  0.00    -0.209 A  
HETATM   14  I   UNL     1     -11.835  11.997  69.453  1.00  0.00    -0.276 I  
HETATM   15  I   UNL     1     -10.612   5.992  69.084  1.00  0.00    -0.402 I  
HETATM   16  C   UNL     1     -10.731   9.135  69.191  1.00  0.00    -0.190 A  
BRANCH  10  17
HETATM   17  C   UNL     1      -9.536  12.037  66.909  1.00  0.00    -0.203 C  
HETATM   18  O   UNL     1      -8.561  12.612  67.396  1.00  0.00    -0.170 OA 
HETATM   19  C   UNL     1     -11.420  12.115  65.168  1.00  0.00    -0.323 C  
HETATM   20  N   UNL     1     -10.331  12.691  65.947  1.00  0.00    -0.271 N  
BRANCH  20  21
HETATM   21  C   UNL     1     -10.059  14.125  65.654  1.00  0.00    -0.328 C  
BRANCH  21  22
HETATM   22  C   UNL     1     -11.151  15.072  66.218  1.00  0.00    -0.334 C  
HETATM   23  H   UNL     1     -12.894  14.904  67.153  1.00  0.00     0.000 HD 
HETATM   24  O   UNL     1     -12.225  14.324  66.808  1.00  0.00    -0.441 OA 
BRANCH  22  25
HETATM   25  C   UNL     1     -10.610  16.040  67.280  1.00  0.00    -0.313 C  
HETATM   26  H   UNL     1      -9.897  15.940  69.120  1.00  0.00     0.000 HD 
HETATM   27  O   UNL     1     -10.232  15.342  68.463  1.00  0.00    -0.216 OA 
ENDBRANCH  22  25
ENDBRANCH  21  22
ENDBRANCH  20  21
ENDBRANCH  10  17
BRANCH  16  28
HETATM   28  C   UNL     1     -11.145   8.928  70.614  1.00  0.00    -0.262 C  
HETATM   29  H   UNL     1      -9.147   8.955  71.256  1.00  0.00     0.000 HD 
HETATM   30  O   UNL     1     -12.315   8.807  70.936  1.00  0.00    -0.214 OA 
HETATM   31  N   UNL     1     -10.113   8.804  71.544  1.00  0.00    -0.272 N  
BRANCH  31  32
HETATM   32  C   UNL     1     -10.417   8.458  72.926  1.00  0.00    -0.031 C  
BRANCH  32  33
HETATM   33  C   UNL     1      -9.396   7.486  73.526  1.00  0.00    -0.263 C  
HETATM   34  O   UNL     1      -9.690   6.160  73.063  1.00  0.00    -0.157 OA 
HETATM   35  H   UNL     1      -9.057   5.556  73.435  1.00  0.00     0.000 HD 
BRANCH  33  36
HETATM   36  C   UNL     1      -7.960   7.887  73.147  1.00  0.00    -0.150 C  
HETATM   37  O   UNL     1      -7.395   8.785  74.100  1.00  0.00    -0.392 OA 
HETATM   38  H   UNL     1      -6.507   9.032  73.866  1.00  0.00     0.000 HD 
ENDBRANCH  33  36
ENDBRANCH  32  33
ENDBRANCH  31  32
ENDBRANCH  16  28
ENDBRANCH   6   8
ENDBRANCH   3   4
ENDBRANCH   2   3
TORSDOF 11
ENDMDL
MODEL       39
REMARK 921   NORMALIZED FREE ENERGY PREDICTED BY IDOCK:   -4.18 KCAL/MOL
REMARK 922        TOTAL FREE ENERGY PREDICTED BY IDOCK:   -7.99 KCAL/MOL
REMARK 923 INTER-LIGAND FREE ENERGY PREDICTED BY IDOCK:   -7.46 KCAL/MOL
REMARK 924 INTRA-LIGAND FREE ENERGY PREDICTED BY IDOCK:   -0.53 KCAL/MOL
REMARK 927      BINDING AFFINITY PREDICTED BY RF-SCORE:    0.00 PKD
ROOT
HETATM    1  C   UNL     1     -12.656  12.026  63.546  1.00  0.00    -0.507 C  
HETATM    2  O   UNL     1     -13.093  12.563  64.792  1.00  0.00    -0.853 OA 
ENDROOT
BRANCH   2   3
HETATM    3  C   UNL     1     -12.651  13.899  64.995  1.00  0.00    -0.390 C  
BRANCH   3   4
HETATM    4  C   UNL     1     -11.164  14.009  65.371  1.00  0.00    -0.319 C  
HETATM    5  O   UNL     1     -10.279  13.962  64.521  1.00  0.00    -0.405 OA 
HETATM    6  N   UNL     1     -10.924  14.191  66.738  1.00  0.00    -0.296 N  
HETATM    7  H   UNL     1     -11.686  14.193  67.417  1.00  0.00     0.000 HD 
BRANCH   6   8
HETATM    8  C   UNL     1      -9.567  14.375  67.142  1.00  0.00    -0.250 A  
HETATM    9  C   UNL     1      -9.005  15.672  67.238  1.00  0.00    -0.199 A  
HETATM   10  C   UNL     1      -7.767  15.891  67.909  1.00  0.00    -0.146 A  
HETATM   11  I   UNL     1     -10.146  17.268  66.351  1.00  0.00    -0.241 I  
HETATM   12  C   UNL     1      -8.791  13.253  67.511  1.00  0.00    -0.206 A  
HETATM   13  C   UNL     1      -7.131  14.751  68.468  1.00  0.00    -0.110 A  
HETATM   14  I   UNL     1      -5.827  14.971  70.177  1.00  0.00    -0.122 I  
HETATM   15  I   UNL     1      -9.518  11.306  66.916  1.00  0.00    -0.215 I  
HETATM   16  C   UNL     1      -7.544  13.430  68.139  1.00  0.00    -0.138 A  
BRANCH  10  17
HETATM   17  C   UNL     1      -7.272  17.302  68.120  1.00  0.00    -0.196 C  
HETATM   18  O   UNL     1      -7.847  17.967  68.983  1.00  0.00    -0.212 OA 
HETATM   19  C   UNL     1      -5.378  17.211  66.392  1.00  0.00    -0.099 C  
HETATM   20  N   UNL     1      -6.251  17.885  67.344  1.00  0.00    -0.150 N  
BRANCH  20  21
HETATM   21  C   UNL     1      -5.996  19.345  67.485  1.00  0.00    -0.193 C  
BRANCH  21  22
HETATM   22  C   UNL     1      -6.882  20.204  66.546  1.00  0.00    -0.226 C  
HETATM   23  H   UNL     1      -7.947  21.876  66.662  1.00  0.00     0.000 HD 
HETATM   24  O   UNL     1      -7.404  21.350  67.237  1.00  0.00    -0.496 OA 
BRANCH  22  25
HETATM   25  C   UNL     1      -6.126  20.705  65.306  1.00  0.00    -0.246 C  
HETATM   26  H   UNL     1      -5.959  20.214  63.401  1.00  0.00     0.000 HD 
HETATM   27  O   UNL     1      -6.426  19.904  64.167  1.00  0.00    -0.308 OA 
ENDBRANCH  22  25
ENDBRANCH  21  22
ENDBRANCH  20  21
ENDBRANCH  10  17
BRANCH  16  28
HETATM   28  C   UNL     1      -6.667  12.249  68.410  1.00  0.00    -0.064 C  
HETATM   29  H   UNL     1      -7.490  12.008  70.326  1.00  0.00     0.000 HD 
HETATM   30  O   UNL     1      -5.856  11.845  67.594  1.00  0.00    -0.062 OA 
HETATM   31  N   UNL     1      -6.773  11.681  69.679  1.00  0.00    -0.099 N  
BRANCH  31  32
HETATM   32  C   UNL     1      -5.858  10.620  70.080  1.00  0.00    -0.087 C  
BRANCH  32  33
HETATM   33  C   UNL     1      -6.585   9.311  70.405  1.00  0.00    -0.068 C  
HETATM   34  O   UNL     1      -7.240   9.446  71.675  1.00  0.00    -0.328 OA 
HETATM   35  H   UNL     1      -7.691   8.634  71.877  1.00  0.00     0.000 HD 
BRANCH  33  36
HETATM   36  C   UNL     1      -7.599   8.952  69.306  1.00  0.00    -0.082 C  
HETATM   37  O   UNL     1      -8.927   8.872  69.820  1.00  0.00    -0.140 OA 
HETATM   38  H   UNL     1      -9.553   8.650  69.141  1.00  0.00     0.000 HD 
ENDBRANCH  33  36
ENDBRANCH  32  33
ENDBRANCH  31  32
ENDBRANCH  16  28
ENDBRANCH   6   8
ENDBRANCH   3   4
ENDBRANCH   2   3
TORSDOF 11
ENDMDL
MODEL       40
REMARK 921   NORMALIZED FREE ENERGY PREDICTED BY IDOCK:   -4.16 KCAL/MOL
REMARK 922        TOTAL FREE ENERGY PREDICTED BY IDOCK:   -7.96 KCAL/MOL
REMARK 923 INTER-LIGAND FREE ENERGY PREDICTED BY IDOCK:   -7.11 KCAL/MOL
REMARK 924 INTRA-LIGAND FREE ENERGY PREDICTED BY IDOCK:   -0.86 KCAL/MOL
REMARK 927      BINDING AFFINITY PREDICTED BY RF-SCORE:    0.00 PKD
ROOT
HETATM    1  C   UNL     1     -12.060  13.178  63.823  1.00  0.00    -0.495 C  
HETATM    2  O   UNL     1     -11.994  14.068  64.934  1.00  0.00    -0.364 OA 
ENDROOT
BRANCH   2   3
HETATM    3  C   UNL     1     -12.370  13.446  66.155  1.00  0.00    -0.380 C  
BRANCH   3   4
HETATM    4  C   UNL     1     -11.275  12.549  66.757  1.00  0.00    -0.296 C  
HETATM    5  O   UNL     1     -10.185  13.003  67.096  1.00  0.00    -0.239 OA 
HETATM    6  N   UNL     1     -11.640  11.206  66.902  1.00  0.00     0.019 N  
HETATM    7  H   UNL     1     -12.545  10.862  66.578  1.00  0.00     0.000 HD 
BRANCH   6   8
HETATM    8  C   UNL     1     -10.694  10.338  67.523  1.00  0.00    -0.294 A  
HETATM    9  C   UNL     1     -10.699  10.139  68.926  1.00  0.00    -0.223 A  
HETATM   10  C   UNL     1      -9.967   9.070  69.522  1.00  0.00    -0.193 A  
HETATM   11  I   UNL     1     -11.895  11.512  70.074  1.00  0.00    -0.317 I  
HETATM   12  C   UNL     1      -9.778   9.617  66.723  1.00  0.00    -0.197 A  
HETATM   13  C   UNL     1      -9.237   8.226  68.644  1.00  0.00    -0.143 A  
HETATM   14  I   UNL     1      -8.843   6.174  69.197  1.00  0.00    -0.123 I  
HETATM   15  I   UNL     1      -9.500  10.287  64.687  1.00  0.00    -0.370 I  
HETATM   16  C   UNL     1      -9.008   8.582  67.286  1.00  0.00    -0.141 A  
BRANCH  10  17
HETATM   17  C   UNL     1     -10.112   8.801  71.000  1.00  0.00    -0.237 C  
HETATM   18  O   UNL     1      -9.283   9.328  71.743  1.00  0.00    -0.306 OA 
HETATM   19  C   UNL     1     -12.228   7.358  70.830  1.00  0.00    -0.231 C  
HETATM   20  N   UNL     1     -11.094   7.944  71.535  1.00  0.00    -0.237 N  
BRANCH  20  21
HETATM   21  C   UNL     1     -11.009   7.575  72.975  1.00  0.00    -0.390 C  
BRANCH  21  22
HETATM   22  C   UNL     1     -10.000   6.428  73.244  1.00  0.00    -0.183 C  
HETATM   23  H   UNL     1      -8.325   6.163  74.274  1.00  0.00     0.000 HD 
HETATM   24  O   UNL     1      -8.942   6.866  74.110  1.00  0.00    -0.163 OA 
BRANCH  22  25
HETATM   25  C   UNL     1     -10.656   5.196  73.885  1.00  0.00    -0.293 C  
HETATM   26  H   UNL     1     -12.257   4.076  73.595  1.00  0.00     0.000 HD 
HETATM   27  O   UNL     1     -11.851   4.838  73.199  1.00  0.00    -0.257 OA 
ENDBRANCH  22  25
ENDBRANCH  21  22
ENDBRANCH  20  21
ENDBRANCH  10  17
BRANCH  16  28
HETATM   28  C   UNL     1      -7.948   7.909  66.472  1.00  0.00    -0.102 C  
HETATM   29  H   UNL     1      -9.385   6.799  65.419  1.00  0.00     0.000 HD 
HETATM   30  O   UNL     1      -6.762   8.142  66.635  1.00  0.00    -0.061 OA 
HETATM   31  N   UNL     1      -8.387   6.942  65.568  1.00  0.00    -0.141 N  
BRANCH  31  32
HETATM   32  C   UNL     1      -7.417   6.135  64.838  1.00  0.00    -0.083 C  
BRANCH  32  33
HETATM   33  C   UNL     1      -7.788   4.649  64.816  1.00  0.00    -0.087 C  
HETATM   34  O   UNL     1      -7.303   4.032  66.018  1.00  0.00    -0.074 OA 
HETATM   35  H   UNL     1      -7.533   3.110  66.005  1.00  0.00     0.000 HD 
BRANCH  33  36
HETATM   36  C   UNL     1      -9.308   4.458  64.683  1.00  0.00    -0.150 C  
HETATM   37  O   UNL     1      -9.757   4.710  63.353  1.00  0.00    -0.353 OA 
HETATM   38  H   UNL     1     -10.696   4.592  63.271  1.00  0.00     0.000 HD 
ENDBRANCH  33  36
ENDBRANCH  32  33
ENDBRANCH  31  32
ENDBRANCH  16  28
ENDBRANCH   6   8
ENDBRANCH   3   4
ENDBRANCH   2   3
TORSDOF 11
ENDMDL
MODEL       41
REMARK 921   NORMALIZED FREE ENERGY PREDICTED BY IDOCK:   -4.16 KCAL/MOL
REMARK 922        TOTAL FREE ENERGY PREDICTED BY IDOCK:   -7.96 KCAL/MOL
REMARK 923 INTER-LIGAND FREE ENERGY PREDICTED BY IDOCK:   -7.67 KCAL/MOL
REMARK 924 INTRA-LIGAND FREE ENERGY PREDICTED BY IDOCK:   -0.29 KCAL/MOL
REMARK 927      BINDING AFFINITY PREDICTED BY RF-SCORE:    0.00 PKD
ROOT
HETATM    1  C   UNL     1      -7.158   7.624  62.342  1.00  0.00    -0.078 C  
HETATM    2  O   UNL     1      -7.931   7.709  63.536  1.00  0.00    -0.133 OA 
ENDROOT
BRANCH   2   3
HETATM    3  C   UNL     1      -7.207   8.285  64.615  1.00  0.00    -0.083 C  
BRANCH   3   4
HETATM    4  C   UNL     1      -8.062   9.182  65.526  1.00  0.00    -0.115 C  
HETATM    5  O   UNL     1      -7.556   9.882  66.400  1.00  0.00    -0.098 OA 
HETATM    6  N   UNL     1      -9.434   9.146  65.253  1.00  0.00    -0.451 N  
HETATM    7  H   UNL     1      -9.819   8.526  64.539  1.00  0.00     0.000 HD 
BRANCH   6   8
HETATM    8  C   UNL     1     -10.273  10.012  66.015  1.00  0.00    -0.207 A  
HETATM    9  C   UNL     1     -10.808   9.598  67.261  1.00  0.00    -0.142 A  
HETATM   10  C   UNL     1     -11.394  10.536  68.160  1.00  0.00    -0.324 A  
HETATM   11  I   UNL     1     -10.643   7.500  67.712  1.00  0.00    -0.144 I  
HETATM   12  C   UNL     1     -10.524  11.325  65.554  1.00  0.00    -0.265 A  
HETATM   13  C   UNL     1     -11.417  11.894  67.744  1.00  0.00    -0.319 A  
HETATM   14  I   UNL     1     -11.422  13.475  69.217  1.00  0.00    -0.297 I  
HETATM   15  I   UNL     1     -10.087  11.746  63.480  1.00  0.00    -0.370 I  
HETATM   16  C   UNL     1     -11.138  12.267  66.400  1.00  0.00    -0.345 A  
BRANCH  10  17
HETATM   17  C   UNL     1     -11.820  10.084  69.535  1.00  0.00     0.085 C  
HETATM   18  O   UNL     1     -13.031  10.062  69.761  1.00  0.00     0.244 OA 
HETATM   19  C   UNL     1      -9.465   9.593  70.427  1.00  0.00    -0.222 C  
HETATM   20  N   UNL     1     -10.907   9.758  70.557  1.00  0.00    -0.300 N  
BRANCH  20  21
HETATM   21  C   UNL     1     -11.428   9.541  71.935  1.00  0.00    -0.147 C  
BRANCH  21  22
HETATM   22  C   UNL     1     -11.471   8.042  72.333  1.00  0.00    -0.389 C  
HETATM   23  H   UNL     1     -12.118   6.337  71.550  1.00  0.00     0.000 HD 
HETATM   24  O   UNL     1     -12.092   7.254  71.306  1.00  0.00    -0.307 OA 
BRANCH  22  25
HETATM   25  C   UNL     1     -10.076   7.457  72.599  1.00  0.00    -0.208 C  
HETATM   26  H   UNL     1      -8.437   7.971  73.574  1.00  0.00     0.000 HD 
HETATM   27  O   UNL     1      -9.299   8.333  73.410  1.00  0.00    -0.236 OA 
ENDBRANCH  22  25
ENDBRANCH  21  22
ENDBRANCH  20  21
ENDBRANCH  10  17
BRANCH  16  28
HETATM   28  C   UNL     1     -11.521  13.613  65.869  1.00  0.00    -0.316 C  
HETATM   29  H   UNL     1      -9.585  14.354  66.200  1.00  0.00     0.000 HD 
HETATM   30  O   UNL     1     -12.651  13.858  65.481  1.00  0.00    -0.489 OA 
HETATM   31  N   UNL     1     -10.533  14.596  65.914  1.00  0.00    -0.299 N  
BRANCH  31  32
HETATM   32  C   UNL     1     -10.857  15.970  65.553  1.00  0.00    -0.292 C  
BRANCH  32  33
HETATM   33  C   UNL     1      -9.952  16.989  66.252  1.00  0.00    -0.310 C  
HETATM   34  O   UNL     1      -8.593  16.751  65.859  1.00  0.00    -0.500 OA 
HETATM   35  H   UNL     1      -8.031  17.383  66.293  1.00  0.00     0.000 HD 
BRANCH  33  36
HETATM   36  C   UNL     1     -10.371  18.429  65.911  1.00  0.00    -0.301 C  
HETATM   37  O   UNL     1      -9.717  19.381  66.749  1.00  0.00    -0.313 OA 
HETATM   38  H   UNL     1      -9.976  20.271  66.538  1.00  0.00     0.000 HD 
ENDBRANCH  33  36
ENDBRANCH  32  33
ENDBRANCH  31  32
ENDBRANCH  16  28
ENDBRANCH   6   8
ENDBRANCH   3   4
ENDBRANCH   2   3
TORSDOF 11
ENDMDL
MODEL       42
REMARK 921   NORMALIZED FREE ENERGY PREDICTED BY IDOCK:   -4.15 KCAL/MOL
REMARK 922        TOTAL FREE ENERGY PREDICTED BY IDOCK:   -7.95 KCAL/MOL
REMARK 923 INTER-LIGAND FREE ENERGY PREDICTED BY IDOCK:   -7.44 KCAL/MOL
REMARK 924 INTRA-LIGAND FREE ENERGY PREDICTED BY IDOCK:   -0.51 KCAL/MOL
REMARK 927      BINDING AFFINITY PREDICTED BY RF-SCORE:    0.00 PKD
ROOT
HETATM    1  C   UNL     1     -10.226  15.887  65.627  1.00  0.00    -0.379 C  
HETATM    2  O   UNL     1     -11.237  14.950  65.265  1.00  0.00    -0.340 OA 
ENDROOT
BRANCH   2   3
HETATM    3  C   UNL     1     -10.723  13.854  64.519  1.00  0.00    -0.366 C  
BRANCH   3   4
HETATM    4  C   UNL     1     -10.769  12.515  65.275  1.00  0.00    -0.286 C  
HETATM    5  O   UNL     1     -11.805  11.861  65.363  1.00  0.00    -0.319 OA 
HETATM    6  N   UNL     1      -9.542  12.111  65.814  1.00  0.00    -0.340 N  
HETATM    7  H   UNL     1      -8.711  12.699  65.746  1.00  0.00     0.000 HD 
BRANCH   6   8
HETATM    8  C   UNL     1      -9.503  10.841  66.463  1.00  0.00    -0.169 A  
HETATM    9  C   UNL     1      -9.124   9.673  65.755  1.00  0.00    -0.185 A  
HETATM   10  C   UNL     1      -8.800   8.467  66.443  1.00  0.00    -0.181 A  
HETATM   11  I   UNL     1      -9.034   9.850  63.612  1.00  0.00    -0.209 I  
HETATM   12  C   UNL     1      -9.787  10.754  67.845  1.00  0.00    -0.167 A  
HETATM   13  C   UNL     1      -8.881   8.497  67.861  1.00  0.00    -0.137 A  
HETATM   14  I   UNL     1      -7.649   7.170  69.041  1.00  0.00    -0.104 I  
HETATM   15  I   UNL     1     -10.791  12.437  68.757  1.00  0.00    -0.178 I  
HETATM   16  C   UNL     1      -9.518   9.566  68.549  1.00  0.00    -0.146 A  
BRANCH  10  17
HETATM   17  C   UNL     1      -8.261   7.289  65.669  1.00  0.00    -0.138 C  
HETATM   18  O   UNL     1      -7.181   7.450  65.097  1.00  0.00    -0.061 OA 
HETATM   19  C   UNL     1     -10.159   5.662  66.245  1.00  0.00    -0.114 C  
HETATM   20  N   UNL     1      -8.957   6.072  65.531  1.00  0.00    -0.084 N  
BRANCH  20  21
HETATM   21  C   UNL     1      -8.440   5.062  64.567  1.00  0.00    -0.142 C  
BRANCH  21  22
HETATM   22  C   UNL     1      -9.506   4.009  64.170  1.00  0.00    -0.160 C  
HETATM   23  H   UNL     1     -10.459   3.438  62.525  1.00  0.00     0.000 HD 
HETATM   24  O   UNL     1      -9.806   4.083  62.768  1.00  0.00    -0.146 OA 
BRANCH  22  25
HETATM   25  C   UNL     1      -9.069   2.570  64.484  1.00  0.00    -0.128 C  
HETATM   26  H   UNL     1      -7.390   1.530  64.529  1.00  0.00     0.000 HD 
HETATM   27  O   UNL     1      -7.661   2.420  64.335  1.00  0.00    -0.065 OA 
ENDBRANCH  22  25
ENDBRANCH  21  22
ENDBRANCH  20  21
ENDBRANCH  10  17
BRANCH  16  28
HETATM   28  C   UNL     1      -9.939   9.432  69.979  1.00  0.00    -0.221 C  
HETATM   29  H   UNL     1     -11.763   8.558  69.418  1.00  0.00     0.000 HD 
HETATM   30  O   UNL     1      -9.236   9.816  70.898  1.00  0.00    -0.108 OA 
HETATM   31  N   UNL     1     -11.214   8.914  70.200  1.00  0.00    -0.208 N  
BRANCH  31  32
HETATM   32  C   UNL     1     -11.763   8.881  71.550  1.00  0.00    -0.324 C  
BRANCH  32  33
HETATM   33  C   UNL     1     -13.166   9.490  71.627  1.00  0.00    -0.406 C  
HETATM   34  O   UNL     1     -13.484  10.087  70.361  1.00  0.00    -0.561 OA 
HETATM   35  H   UNL     1     -14.355  10.465  70.409  1.00  0.00     0.000 HD 
BRANCH  33  36
HETATM   36  C   UNL     1     -14.212   8.427  72.004  1.00  0.00    -0.444 C  
HETATM   37  O   UNL     1     -14.384   7.464  70.966  1.00  0.00    -0.622 OA 
HETATM   38  H   UNL     1     -15.030   6.808  71.199  1.00  0.00     0.000 HD 
ENDBRANCH  33  36
ENDBRANCH  32  33
ENDBRANCH  31  32
ENDBRANCH  16  28
ENDBRANCH   6   8
ENDBRANCH   3   4
ENDBRANCH   2   3
TORSDOF 11
ENDMDL
MODEL       43
REMARK 921   NORMALIZED FREE ENERGY PREDICTED BY IDOCK:   -4.15 KCAL/MOL
REMARK 922        TOTAL FREE ENERGY PREDICTED BY IDOCK:   -7.94 KCAL/MOL
REMARK 923 INTER-LIGAND FREE ENERGY PREDICTED BY IDOCK:   -7.21 KCAL/MOL
REMARK 924 INTRA-LIGAND FREE ENERGY PREDICTED BY IDOCK:   -0.72 KCAL/MOL
REMARK 927      BINDING AFFINITY PREDICTED BY RF-SCORE:    0.00 PKD
ROOT
HETATM    1  C   UNL     1      -5.928  18.512  67.742  1.00  0.00    -0.184 C  
HETATM    2  O   UNL     1      -5.317  17.469  68.497  1.00  0.00    -0.147 OA 
ENDROOT
BRANCH   2   3
HETATM    3  C   UNL     1      -5.209  16.257  67.763  1.00  0.00    -0.128 C  
BRANCH   3   4
HETATM    4  C   UNL     1      -6.547  15.519  67.585  1.00  0.00    -0.169 C  
HETATM    5  O   UNL     1      -7.194  15.600  66.545  1.00  0.00    -0.061 OA 
HETATM    6  N   UNL     1      -6.931  14.742  68.685  1.00  0.00    -0.104 N  
HETATM    7  H   UNL     1      -6.380  14.727  69.544  1.00  0.00     0.000 HD 
BRANCH   6   8
HETATM    8  C   UNL     1      -8.126  13.974  68.553  1.00  0.00    -0.139 A  
HETATM    9  C   UNL     1      -8.079  12.620  68.138  1.00  0.00    -0.164 A  
HETATM   10  C   UNL     1      -9.212  11.766  68.281  1.00  0.00    -0.188 A  
HETATM   11  I   UNL     1      -6.205  11.941  67.327  1.00  0.00    -0.110 I  
HETATM   12  C   UNL     1      -9.369  14.552  68.900  1.00  0.00    -0.136 A  
HETATM   13  C   UNL     1     -10.379  12.339  68.852  1.00  0.00    -0.059 A  
HETATM   14  I   UNL     1     -11.785  11.092  69.919  1.00  0.00    -0.485 I  
HETATM   15  I   UNL     1      -9.446  16.705  69.073  1.00  0.00    -0.065 I  
HETATM   16  C   UNL     1     -10.517  13.746  69.011  1.00  0.00    -0.117 A  
BRANCH  10  17
HETATM   17  C   UNL     1      -9.081  10.296  67.966  1.00  0.00    -0.132 C  
HETATM   18  O   UNL     1      -9.470   9.931  66.855  1.00  0.00    -0.154 OA 
HETATM   19  C   UNL     1      -7.975   9.616  70.180  1.00  0.00    -0.176 C  
HETATM   20  N   UNL     1      -8.603   9.348  68.892  1.00  0.00    -0.128 N  
BRANCH  20  21
HETATM   21  C   UNL     1      -8.724   7.902  68.557  1.00  0.00    -0.131 C  
BRANCH  21  22
HETATM   22  C   UNL     1      -9.541   7.107  69.608  1.00  0.00    -0.154 C  
HETATM   23  H   UNL     1     -11.419   7.026  70.247  1.00  0.00     0.000 HD 
HETATM   24  O   UNL     1     -10.918   7.513  69.603  1.00  0.00    -0.232 OA 
BRANCH  22  25
HETATM   25  C   UNL     1      -9.496   5.590  69.375  1.00  0.00    -0.133 C  
HETATM   26  H   UNL     1      -9.165   3.958  70.437  1.00  0.00     0.000 HD 
HETATM   27  O   UNL     1      -9.193   4.896  70.581  1.00  0.00    -0.126 OA 
ENDBRANCH  22  25
ENDBRANCH  21  22
ENDBRANCH  20  21
ENDBRANCH  10  17
BRANCH  16  28
HETATM   28  C   UNL     1     -11.854  14.376  69.249  1.00  0.00    -0.325 C  
HETATM   29  H   UNL     1     -11.480  14.518  71.310  1.00  0.00     0.000 HD 
HETATM   30  O   UNL     1     -12.646  14.575  68.343  1.00  0.00     0.079 OA 
HETATM   31  N   UNL     1     -12.176  14.652  70.577  1.00  0.00    -0.302 N  
BRANCH  31  32
HETATM   32  C   UNL     1     -13.510  15.132  70.918  1.00  0.00    -0.376 C  
BRANCH  32  33
HETATM   33  C   UNL     1     -13.898  14.807  72.363  1.00  0.00    -0.474 C  
HETATM   34  O   UNL     1     -14.213  13.409  72.457  1.00  0.00    -0.721 OA 
HETATM   35  H   UNL     1     -14.455  13.207  73.354  1.00  0.00     0.000 HD 
BRANCH  33  36
HETATM   36  C   UNL     1     -12.767  15.174  73.338  1.00  0.00    -0.537 C  
HETATM   37  O   UNL     1     -13.130  16.269  74.177  1.00  0.00    -0.934 OA 
HETATM   38  H   UNL     1     -12.431  16.496  74.780  1.00  0.00     0.000 HD 
ENDBRANCH  33  36
ENDBRANCH  32  33
ENDBRANCH  31  32
ENDBRANCH  16  28
ENDBRANCH   6   8
ENDBRANCH   3   4
ENDBRANCH   2   3
TORSDOF 11
ENDMDL
MODEL       44
REMARK 921   NORMALIZED FREE ENERGY PREDICTED BY IDOCK:   -4.12 KCAL/MOL
REMARK 922        TOTAL FREE ENERGY PREDICTED BY IDOCK:   -7.90 KCAL/MOL
REMARK 923 INTER-LIGAND FREE ENERGY PREDICTED BY IDOCK:   -7.44 KCAL/MOL
REMARK 924 INTRA-LIGAND FREE ENERGY PREDICTED BY IDOCK:   -0.46 KCAL/MOL
REMARK 927      BINDING AFFINITY PREDICTED BY RF-SCORE:    0.00 PKD
ROOT
HETATM    1  C   UNL     1     -10.401   4.304  73.364  1.00  0.00    -0.171 C  
HETATM    2  O   UNL     1     -10.438   5.728  73.310  1.00  0.00    -0.203 OA 
ENDROOT
BRANCH   2   3
HETATM    3  C   UNL     1     -11.550   6.217  72.570  1.00  0.00    -0.250 C  
BRANCH   3   4
HETATM    4  C   UNL     1     -11.215   6.572  71.112  1.00  0.00    -0.302 C  
HETATM    5  O   UNL     1     -12.061   6.508  70.223  1.00  0.00    -0.348 OA 
HETATM    6  N   UNL     1      -9.896   6.993  70.905  1.00  0.00    -0.185 N  
HETATM    7  H   UNL     1      -9.215   7.002  71.665  1.00  0.00     0.000 HD 
BRANCH   6   8
HETATM    8  C   UNL     1      -9.545   7.408  69.586  1.00  0.00    -0.156 A  
HETATM    9  C   UNL     1      -9.781   8.737  69.154  1.00  0.00    -0.175 A  
HETATM   10  C   UNL     1      -9.179   9.242  67.964  1.00  0.00    -0.138 A  
HETATM   11  I   UNL     1     -11.054   9.931  70.412  1.00  0.00    -0.426 I  
HETATM   12  C   UNL     1      -8.896   6.500  68.719  1.00  0.00    -0.125 A  
HETATM   13  C   UNL     1      -8.343   8.351  67.240  1.00  0.00    -0.123 A  
HETATM   14  I   UNL     1      -6.739   9.127  66.018  1.00  0.00    -0.079 I  
HETATM   15  I   UNL     1      -8.976   4.403  69.238  1.00  0.00    -0.201 I  
HETATM   16  C   UNL     1      -8.326   6.955  67.515  1.00  0.00    -0.123 A  
BRANCH  10  17
HETATM   17  C   UNL     1      -9.334  10.702  67.613  1.00  0.00    -0.146 C  
HETATM   18  O   UNL     1      -8.859  11.515  68.406  1.00  0.00    -0.157 OA 
HETATM   19  C   UNL     1     -10.532  10.341  65.372  1.00  0.00    -0.055 C  
HETATM   20  N   UNL     1     -10.036  11.152  66.477  1.00  0.00    -0.216 N  
BRANCH  20  21
HETATM   21  C   UNL     1     -10.318  12.608  66.346  1.00  0.00    -0.249 C  
BRANCH  21  22
HETATM   22  C   UNL     1     -11.830  12.939  66.447  1.00  0.00    -0.415 C  
HETATM   23  H   UNL     1     -13.000  14.132  67.519  1.00  0.00     0.000 HD 
HETATM   24  O   UNL     1     -12.073  13.930  67.457  1.00  0.00    -0.389 OA 
BRANCH  22  25
HETATM   25  C   UNL     1     -12.416  13.459  65.126  1.00  0.00    -0.459 C  
HETATM   26  H   UNL     1     -13.571  12.783  63.674  1.00  0.00     0.000 HD 
HETATM   27  O   UNL     1     -13.209  12.462  64.491  1.00  0.00    -0.834 OA 
ENDBRANCH  22  25
ENDBRANCH  21  22
ENDBRANCH  20  21
ENDBRANCH  10  17
BRANCH  16  28
HETATM   28  C   UNL     1      -7.756   5.975  66.538  1.00  0.00    -0.103 C  
HETATM   29  H   UNL     1      -9.577   5.866  65.501  1.00  0.00     0.000 HD 
HETATM   30  O   UNL     1      -6.606   5.576  66.620  1.00  0.00    -0.052 OA 
HETATM   31  N   UNL     1      -8.635   5.483  65.575  1.00  0.00    -0.147 N  
BRANCH  31  32
HETATM   32  C   UNL     1      -8.208   4.419  64.675  1.00  0.00    -0.106 C  
BRANCH  32  33
HETATM   33  C   UNL     1      -9.097   3.176  64.773  1.00  0.00    -0.140 C  
HETATM   34  O   UNL     1      -9.902   3.272  65.957  1.00  0.00    -0.405 OA 
HETATM   35  H   UNL     1     -10.454   2.500  66.018  1.00  0.00     0.000 HD 
BRANCH  33  36
HETATM   36  C   UNL     1      -9.983   3.027  63.524  1.00  0.00    -0.146 C  
HETATM   37  O   UNL     1     -10.905   4.108  63.400  1.00  0.00    -0.415 OA 
HETATM   38  H   UNL     1     -11.452   4.016  62.629  1.00  0.00     0.000 HD 
ENDBRANCH  33  36
ENDBRANCH  32  33
ENDBRANCH  31  32
ENDBRANCH  16  28
ENDBRANCH   6   8
ENDBRANCH   3   4
ENDBRANCH   2   3
TORSDOF 11
ENDMDL
MODEL       45
REMARK 921   NORMALIZED FREE ENERGY PREDICTED BY IDOCK:   -4.11 KCAL/MOL
REMARK 922        TOTAL FREE ENERGY PREDICTED BY IDOCK:   -7.88 KCAL/MOL
REMARK 923 INTER-LIGAND FREE ENERGY PREDICTED BY IDOCK:   -6.74 KCAL/MOL
REMARK 924 INTRA-LIGAND FREE ENERGY PREDICTED BY IDOCK:   -1.14 KCAL/MOL
REMARK 927      BINDING AFFINITY PREDICTED BY RF-SCORE:    0.00 PKD
ROOT
HETATM    1  C   UNL     1     -11.597  15.464  69.631  1.00  0.00    -0.331 C  
HETATM    2  O   UNL     1     -10.384  14.945  69.092  1.00  0.00    -0.235 OA 
ENDROOT
BRANCH   2   3
HETATM    3  C   UNL     1     -10.601  14.120  67.955  1.00  0.00    -0.239 C  
BRANCH   3   4
HETATM    4  C   UNL     1     -10.157  12.661  68.156  1.00  0.00    -0.231 C  
HETATM    5  O   UNL     1      -9.019  12.377  68.521  1.00  0.00    -0.155 OA 
HETATM    6  N   UNL     1     -11.158  11.712  67.915  1.00  0.00    -0.229 N  
HETATM    7  H   UNL     1     -12.083  11.987  67.581  1.00  0.00     0.000 HD 
BRANCH   6   8
HETATM    8  C   UNL     1     -10.830  10.345  68.155  1.00  0.00    -0.264 A  
HETATM    9  C   UNL     1     -10.126   9.584  67.189  1.00  0.00    -0.229 A  
HETATM   10  C   UNL     1      -9.541   8.327  67.523  1.00  0.00    -0.194 A  
HETATM   11  I   UNL     1      -9.969  10.455  65.227  1.00  0.00    -0.273 I  
HETATM   12  C   UNL     1     -11.156   9.757  69.399  1.00  0.00    -0.170 A  
HETATM   13  C   UNL     1      -9.703   7.882  68.862  1.00  0.00    -0.158 A  
HETATM   14  I   UNL     1      -8.237   6.562  69.746  1.00  0.00    -0.129 I  
HETATM   15  I   UNL     1     -12.606  10.784  70.630  1.00  0.00    -0.348 I  
HETATM   16  C   UNL     1     -10.630   8.499  69.747  1.00  0.00    -0.224 A  
BRANCH  10  17
HETATM   17  C   UNL     1      -8.676   7.616  66.512  1.00  0.00    -0.149 C  
HETATM   18  O   UNL     1      -7.622   8.170  66.198  1.00  0.00    -0.085 OA 
HETATM   19  C   UNL     1     -10.178   5.553  66.239  1.00  0.00    -0.153 C  
HETATM   20  N   UNL     1      -9.052   6.409  65.889  1.00  0.00    -0.103 N  
BRANCH  20  21
HETATM   21  C   UNL     1      -8.233   5.911  64.750  1.00  0.00    -0.129 C  
BRANCH  21  22
HETATM   22  C   UNL     1      -8.666   4.502  64.268  1.00  0.00    -0.146 C  
HETATM   23  H   UNL     1      -9.120   3.617  62.550  1.00  0.00     0.000 HD 
HETATM   24  O   UNL     1      -8.854   4.480  62.845  1.00  0.00    -0.113 OA 
BRANCH  22  25
HETATM   25  C   UNL     1      -7.646   3.411  64.626  1.00  0.00    -0.077 C  
HETATM   26  H   UNL     1      -6.499   2.929  66.160  1.00  0.00     0.000 HD 
HETATM   27  O   UNL     1      -7.130   3.604  65.939  1.00  0.00    -0.061 OA 
ENDBRANCH  22  25
ENDBRANCH  21  22
ENDBRANCH  20  21
ENDBRANCH  10  17
BRANCH  16  28
HETATM   28  C   UNL     1     -11.078   7.822  71.004  1.00  0.00    -0.257 C  
HETATM   29  H   UNL     1      -9.617   8.823  72.129  1.00  0.00     0.000 HD 
HETATM   30  O   UNL     1     -11.990   7.011  71.011  1.00  0.00    -0.328 OA 
HETATM   31  N   UNL     1     -10.344   8.109  72.154  1.00  0.00    -0.250 N  
BRANCH  31  32
HETATM   32  C   UNL     1     -10.617   7.388  73.391  1.00  0.00    -0.377 C  
BRANCH  32  33
HETATM   33  C   UNL     1      -9.807   6.092  73.505  1.00  0.00    -0.174 C  
HETATM   34  O   UNL     1      -8.786   6.269  74.498  1.00  0.00    -0.132 OA 
HETATM   35  H   UNL     1      -8.284   5.465  74.569  1.00  0.00     0.000 HD 
BRANCH  33  36
HETATM   36  C   UNL     1     -10.713   4.902  73.863  1.00  0.00    -0.303 C  
HETATM   37  O   UNL     1     -11.996   5.012  73.250  1.00  0.00    -0.493 OA 
HETATM   38  H   UNL     1     -12.555   4.276  73.472  1.00  0.00     0.000 HD 
ENDBRANCH  33  36
ENDBRANCH  32  33
ENDBRANCH  31  32
ENDBRANCH  16  28
ENDBRANCH   6   8
ENDBRANCH   3   4
ENDBRANCH   2   3
TORSDOF 11
ENDMDL
MODEL       46
REMARK 921   NORMALIZED FREE ENERGY PREDICTED BY IDOCK:   -4.11 KCAL/MOL
REMARK 922        TOTAL FREE ENERGY PREDICTED BY IDOCK:   -7.87 KCAL/MOL
REMARK 923 INTER-LIGAND FREE ENERGY PREDICTED BY IDOCK:   -7.37 KCAL/MOL
REMARK 924 INTRA-LIGAND FREE ENERGY PREDICTED BY IDOCK:   -0.50 KCAL/MOL
REMARK 927      BINDING AFFINITY PREDICTED BY RF-SCORE:    0.00 PKD
ROOT
HETATM    1  C   UNL     1      -6.594   8.810  69.866  1.00  0.00    -0.041 C  
HETATM    2  O   UNL     1      -5.447   9.621  69.623  1.00  0.00    -0.034 OA 
ENDROOT
BRANCH   2   3
HETATM    3  C   UNL     1      -5.549  10.904  70.225  1.00  0.00    -0.089 C  
BRANCH   3   4
HETATM    4  C   UNL     1      -5.913  12.025  69.237  1.00  0.00    -0.081 C  
HETATM    5  O   UNL     1      -5.337  12.147  68.159  1.00  0.00    -0.051 OA 
HETATM    6  N   UNL     1      -6.957  12.855  69.661  1.00  0.00    -0.331 N  
HETATM    7  H   UNL     1      -7.389  12.741  70.579  1.00  0.00     0.000 HD 
BRANCH   6   8
HETATM    8  C   UNL     1      -7.392  13.869  68.755  1.00  0.00    -0.118 A  
HETATM    9  C   UNL     1      -8.338  13.581  67.740  1.00  0.00    -0.181 A  
HETATM   10  C   UNL     1      -8.994  14.627  67.027  1.00  0.00    -0.258 A  
HETATM   11  I   UNL     1      -8.740  11.497  67.382  1.00  0.00    -0.167 I  
HETATM   12  C   UNL     1      -6.920  15.192  68.910  1.00  0.00    -0.124 A  
HETATM   13  C   UNL     1      -8.650  15.958  67.381  1.00  0.00    -0.172 A  
HETATM   14  I   UNL     1     -10.077  17.555  67.095  1.00  0.00    -0.338 I  
HETATM   15  I   UNL     1      -5.167  15.481  70.141  1.00  0.00    -0.138 I  
HETATM   16  C   UNL     1      -7.517  16.245  68.191  1.00  0.00    -0.148 A  
BRANCH  10  17
HETATM   17  C   UNL     1     -10.101  14.287  66.058  1.00  0.00    -0.318 C  
HETATM   18  O   UNL     1      -9.815  14.314  64.860  1.00  0.00    -0.213 OA 
HETATM   19  C   UNL     1     -11.899  13.798  67.822  1.00  0.00    -0.369 C  
HETATM   20  N   UNL     1     -11.422  14.011  66.461  1.00  0.00    -0.342 N  
BRANCH  20  21
HETATM   21  C   UNL     1     -12.478  13.908  65.417  1.00  0.00    -0.501 C  
BRANCH  21  22
HETATM   22  C   UNL     1     -12.540  12.505  64.759  1.00  0.00    -0.413 C  
HETATM   23  H   UNL     1     -13.926  11.300  64.007  1.00  0.00     0.000 HD 
HETATM   24  O   UNL     1     -13.888  12.159  64.410  1.00  0.00     0.031 OA 
BRANCH  22  25
HETATM   25  C   UNL     1     -11.682  12.405  63.489  1.00  0.00    -0.510 C  
HETATM   26  H   UNL     1     -10.051  11.461  62.898  1.00  0.00     0.000 HD 
HETATM   27  O   UNL     1     -10.581  11.523  63.683  1.00  0.00    -0.357 OA 
ENDBRANCH  22  25
ENDBRANCH  21  22
ENDBRANCH  20  21
ENDBRANCH  10  17
BRANCH  16  28
HETATM   28  C   UNL     1      -6.933  17.621  68.257  1.00  0.00    -0.220 C  
HETATM   29  H   UNL     1      -5.958  17.354  66.417  1.00  0.00     0.000 HD 
HETATM   30  O   UNL     1      -7.138  18.366  69.200  1.00  0.00    -0.271 OA 
HETATM   31  N   UNL     1      -6.077  17.977  67.216  1.00  0.00    -0.149 N  
BRANCH  31  32
HETATM   32  C   UNL     1      -5.351  19.240  67.269  1.00  0.00    -0.162 C  
BRANCH  32  33
HETATM   33  C   UNL     1      -6.019  20.335  66.431  1.00  0.00    -0.176 C  
HETATM   34  O   UNL     1      -6.798  19.718  65.396  1.00  0.00    -0.280 OA 
HETATM   35  H   UNL     1      -7.212  20.398  64.876  1.00  0.00     0.000 HD 
BRANCH  33  36
HETATM   36  C   UNL     1      -6.899  21.244  67.306  1.00  0.00    -0.271 C  
HETATM   37  O   UNL     1      -8.287  21.012  67.076  1.00  0.00    -0.574 OA 
HETATM   38  H   UNL     1      -8.831  21.573  67.616  1.00  0.00     0.000 HD 
ENDBRANCH  33  36
ENDBRANCH  32  33
ENDBRANCH  31  32
ENDBRANCH  16  28
ENDBRANCH   6   8
ENDBRANCH   3   4
ENDBRANCH   2   3
TORSDOF 11
ENDMDL
MODEL       47
REMARK 921   NORMALIZED FREE ENERGY PREDICTED BY IDOCK:   -4.10 KCAL/MOL
REMARK 922        TOTAL FREE ENERGY PREDICTED BY IDOCK:   -7.87 KCAL/MOL
REMARK 923 INTER-LIGAND FREE ENERGY PREDICTED BY IDOCK:   -7.02 KCAL/MOL
REMARK 924 INTRA-LIGAND FREE ENERGY PREDICTED BY IDOCK:   -0.84 KCAL/MOL
REMARK 927      BINDING AFFINITY PREDICTED BY RF-SCORE:    0.00 PKD
ROOT
HETATM    1  C   UNL     1     -10.862   5.184  73.366  1.00  0.00    -0.302 C  
HETATM    2  O   UNL     1     -11.347   6.215  72.510  1.00  0.00    -0.270 OA 
ENDROOT
BRANCH   2   3
HETATM    3  C   UNL     1     -10.962   7.512  72.946  1.00  0.00    -0.383 C  
BRANCH   3   4
HETATM    4  C   UNL     1     -10.345   8.382  71.837  1.00  0.00    -0.283 C  
HETATM    5  O   UNL     1      -9.450   9.188  72.073  1.00  0.00    -0.323 OA 
HETATM    6  N   UNL     1     -10.871   8.151  70.560  1.00  0.00    -0.237 N  
HETATM    7  H   UNL     1     -11.638   7.494  70.411  1.00  0.00     0.000 HD 
BRANCH   6   8
HETATM    8  C   UNL     1     -10.288   8.874  69.477  1.00  0.00    -0.213 A  
HETATM    9  C   UNL     1      -9.144   8.379  68.803  1.00  0.00    -0.143 A  
HETATM   10  C   UNL     1      -8.730   8.926  67.553  1.00  0.00    -0.124 A  
HETATM   11  I   UNL     1      -8.112   6.749  69.758  1.00  0.00    -0.129 I  
HETATM   12  C   UNL     1     -10.896  10.068  69.027  1.00  0.00    -0.222 A  
HETATM   13  C   UNL     1      -9.516   9.985  67.026  1.00  0.00    -0.164 A  
HETATM   14  I   UNL     1      -9.600  10.308  64.891  1.00  0.00    -0.382 I  
HETATM   15  I   UNL     1     -12.327  11.008  70.346  1.00  0.00    -0.385 I  
HETATM   16  C   UNL     1     -10.486  10.659  67.818  1.00  0.00    -0.258 A  
BRANCH  10  17
HETATM   17  C   UNL     1      -7.596   8.279  66.796  1.00  0.00    -0.091 C  
HETATM   18  O   UNL     1      -6.486   8.800  66.910  1.00  0.00    -0.059 OA 
HETATM   19  C   UNL     1      -8.968   6.353  65.799  1.00  0.00    -0.052 C  
HETATM   20  N   UNL     1      -7.772   7.174  65.941  1.00  0.00    -0.096 N  
BRANCH  20  21
HETATM   21  C   UNL     1      -6.635   6.756  65.075  1.00  0.00    -0.043 C  
BRANCH  21  22
HETATM   22  C   UNL     1      -5.975   5.433  65.544  1.00  0.00    -0.025 C  
HETATM   23  H   UNL     1      -5.740   4.437  67.244  1.00  0.00     0.000 HD 
HETATM   24  O   UNL     1      -6.144   5.247  66.957  1.00  0.00    -0.028 OA 
BRANCH  22  25
HETATM   25  C   UNL     1      -6.546   4.197  64.833  1.00  0.00    -0.043 C  
HETATM   26  H   UNL     1      -7.305   3.749  63.065  1.00  0.00     0.000 HD 
HETATM   27  O   UNL     1      -6.952   4.513  63.505  1.00  0.00    -0.042 OA 
ENDBRANCH  22  25
ENDBRANCH  21  22
ENDBRANCH  20  21
ENDBRANCH  10  17
BRANCH  16  28
HETATM   28  C   UNL     1     -11.037  11.989  67.410  1.00  0.00    -0.281 C  
HETATM   29  H   UNL     1      -9.253  12.955  67.947  1.00  0.00     0.000 HD 
HETATM   30  O   UNL     1     -12.171  12.114  66.977  1.00  0.00    -0.522 OA 
HETATM   31  N   UNL     1     -10.211  13.092  67.626  1.00  0.00    -0.214 N  
BRANCH  31  32
HETATM   32  C   UNL     1     -10.718  14.438  67.394  1.00  0.00    -0.280 C  
BRANCH  32  33
HETATM   33  C   UNL     1     -11.326  15.061  68.654  1.00  0.00    -0.296 C  
HETATM   34  O   UNL     1     -12.590  14.436  68.919  1.00  0.00    -0.555 OA 
HETATM   35  H   UNL     1     -12.968  14.822  69.700  1.00  0.00     0.000 HD 
BRANCH  33  36
HETATM   36  C   UNL     1     -10.382  14.909  69.859  1.00  0.00    -0.037 C  
HETATM   37  O   UNL     1     -11.104  14.831  71.087  1.00  0.00    -0.538 OA 
HETATM   38  H   UNL     1     -10.521  14.737  71.832  1.00  0.00     0.000 HD 
ENDBRANCH  33  36
ENDBRANCH  32  33
ENDBRANCH  31  32
ENDBRANCH  16  28
ENDBRANCH   6   8
ENDBRANCH   3   4
ENDBRANCH   2   3
TORSDOF 11
ENDMDL
MODEL       48
REMARK 921   NORMALIZED FREE ENERGY PREDICTED BY IDOCK:   -4.04 KCAL/MOL
REMARK 922        TOTAL FREE ENERGY PREDICTED BY IDOCK:   -7.76 KCAL/MOL
REMARK 923 INTER-LIGAND FREE ENERGY PREDICTED BY IDOCK:   -7.07 KCAL/MOL
REMARK 924 INTRA-LIGAND FREE ENERGY PREDICTED BY IDOCK:   -0.69 KCAL/MOL
REMARK 927      BINDING AFFINITY PREDICTED BY RF-SCORE:    0.00 PKD
ROOT
HETATM    1  C   UNL     1     -12.698  12.009  63.445  1.00  0.00    -0.398 C  
HETATM    2  O   UNL     1     -13.261  12.474  64.669  1.00  0.00    -0.848 OA 
ENDROOT
BRANCH   2   3
HETATM    3  C   UNL     1     -12.742  13.737  65.063  1.00  0.00    -0.336 C  
BRANCH   3   4
HETATM    4  C   UNL     1     -11.228  13.727  65.336  1.00  0.00    -0.302 C  
HETATM    5  O   UNL     1     -10.425  14.196  64.533  1.00  0.00    -0.408 OA 
HETATM    6  N   UNL     1     -10.865  13.171  66.568  1.00  0.00    -0.278 N  
HETATM    7  H   UNL     1     -11.560  12.763  67.193  1.00  0.00     0.000 HD 
BRANCH   6   8
HETATM    8  C   UNL     1      -9.480  13.200  66.912  1.00  0.00    -0.244 A  
HETATM    9  C   UNL     1      -8.918  14.320  67.575  1.00  0.00    -0.196 A  
HETATM   10  C   UNL     1      -7.629  14.247  68.179  1.00  0.00    -0.134 A  
HETATM   11  I   UNL     1     -10.136  16.093  67.640  1.00  0.00    -0.262 I  
HETATM   12  C   UNL     1      -8.671  12.073  66.645  1.00  0.00    -0.171 A  
HETATM   13  C   UNL     1      -6.943  13.008  68.080  1.00  0.00    -0.112 A  
HETATM   14  I   UNL     1      -5.502  12.446  69.589  1.00  0.00    -0.117 I  
HETATM   15  I   UNL     1      -9.437  10.613  65.248  1.00  0.00    -0.346 I  
HETATM   16  C   UNL     1      -7.377  11.985  67.191  1.00  0.00    -0.134 A  
BRANCH  10  17
HETATM   17  C   UNL     1      -7.125  15.409  69.001  1.00  0.00    -0.144 C  
HETATM   18  O   UNL     1      -7.404  15.401  70.201  1.00  0.00    -0.019 OA 
HETATM   19  C   UNL     1      -5.888  16.603  67.096  1.00  0.00    -0.159 C  
HETATM   20  N   UNL     1      -6.423  16.498  68.448  1.00  0.00    -0.131 N  
BRANCH  20  21
HETATM   21  C   UNL     1      -6.168  17.689  69.304  1.00  0.00    -0.239 C  
BRANCH  21  22
HETATM   22  C   UNL     1      -6.748  18.996  68.703  1.00  0.00    -0.278 C  
HETATM   23  H   UNL     1      -8.510  19.905  68.598  1.00  0.00     0.000 HD 
HETATM   24  O   UNL     1      -8.155  19.104  68.967  1.00  0.00    -0.318 OA 
BRANCH  22  25
HETATM   25  C   UNL     1      -6.067  20.258  69.253  1.00  0.00    -0.336 C  
HETATM   26  H   UNL     1      -5.923  21.206  70.980  1.00  0.00     0.000 HD 
HETATM   27  O   UNL     1      -6.344  20.426  70.640  1.00  0.00    -0.510 OA 
ENDBRANCH  22  25
ENDBRANCH  21  22
ENDBRANCH  20  21
ENDBRANCH  10  17
BRANCH  16  28
HETATM   28  C   UNL     1      -6.475  10.856  66.802  1.00  0.00    -0.115 C  
HETATM   29  H   UNL     1      -7.355   9.591  68.227  1.00  0.00     0.000 HD 
HETATM   30  O   UNL     1      -5.625  10.977  65.936  1.00  0.00    -0.138 OA 
HETATM   31  N   UNL     1      -6.607   9.680  67.540  1.00  0.00    -0.069 N  
BRANCH  31  32
HETATM   32  C   UNL     1      -5.675   8.580  67.328  1.00  0.00    -0.039 C  
BRANCH  32  33
HETATM   33  C   UNL     1      -6.315   7.212  67.587  1.00  0.00    -0.047 C  
HETATM   34  O   UNL     1      -5.693   6.619  68.736  1.00  0.00    -0.016 OA 
HETATM   35  H   UNL     1      -6.090   5.770  68.897  1.00  0.00     0.000 HD 
BRANCH  33  36
HETATM   36  C   UNL     1      -7.833   7.340  67.796  1.00  0.00    -0.114 C  
HETATM   37  O   UNL     1      -8.229   6.871  69.083  1.00  0.00    -0.119 OA 
HETATM   38  H   UNL     1      -9.167   6.950  69.213  1.00  0.00     0.000 HD 
ENDBRANCH  33  36
ENDBRANCH  32  33
ENDBRANCH  31  32
ENDBRANCH  16  28
ENDBRANCH   6   8
ENDBRANCH   3   4
ENDBRANCH   2   3
TORSDOF 11
ENDMDL
MODEL       49
REMARK 921   NORMALIZED FREE ENERGY PREDICTED BY IDOCK:   -4.03 KCAL/MOL
REMARK 922        TOTAL FREE ENERGY PREDICTED BY IDOCK:   -7.75 KCAL/MOL
REMARK 923 INTER-LIGAND FREE ENERGY PREDICTED BY IDOCK:   -7.04 KCAL/MOL
REMARK 924 INTRA-LIGAND FREE ENERGY PREDICTED BY IDOCK:   -0.71 KCAL/MOL
REMARK 927      BINDING AFFINITY PREDICTED BY RF-SCORE:    0.00 PKD
ROOT
HETATM    1  C   UNL     1     -12.436  15.759  74.444  1.00  0.00    -0.638 C  
HETATM    2  O   UNL     1     -13.237  14.959  73.578  1.00  0.00    -0.532 OA 
ENDROOT
BRANCH   2   3
HETATM    3  C   UNL     1     -13.310  15.488  72.260  1.00  0.00    -0.473 C  
BRANCH   3   4
HETATM    4  C   UNL     1     -12.208  14.967  71.322  1.00  0.00    -0.325 C  
HETATM    5  O   UNL     1     -11.017  15.152  71.561  1.00  0.00    -0.270 OA 
HETATM    6  N   UNL     1     -12.680  14.255  70.212  1.00  0.00    -0.430 N  
HETATM    7  H   UNL     1     -13.679  14.151  70.033  1.00  0.00     0.000 HD 
BRANCH   6   8
HETATM    8  C   UNL     1     -11.704  13.683  69.344  1.00  0.00    -0.324 A  
HETATM    9  C   UNL     1     -11.000  14.484  68.410  1.00  0.00    -0.245 A  
HETATM   10  C   UNL     1      -9.834  13.995  67.751  1.00  0.00    -0.232 A  
HETATM   11  I   UNL     1     -11.773  16.467  68.089  1.00  0.00     0.931 I  
HETATM   12  C   UNL     1     -11.389  12.309  69.457  1.00  0.00    -0.187 A  
HETATM   13  C   UNL     1      -9.422  12.675  68.074  1.00  0.00    -0.209 A  
HETATM   14  I   UNL     1      -7.339  12.122  67.903  1.00  0.00    -0.153 I  
HETATM   15  I   UNL     1     -12.781  11.060  70.539  1.00  0.00    -0.110 I  
HETATM   16  C   UNL     1     -10.268  11.783  68.788  1.00  0.00    -0.175 A  
BRANCH  10  17
HETATM   17  C   UNL     1      -9.028  14.924  66.877  1.00  0.00    -0.253 C  
HETATM   18  O   UNL     1      -9.193  14.823  65.660  1.00  0.00    -0.103 OA 
HETATM   19  C   UNL     1      -7.858  16.182  68.783  1.00  0.00    -0.203 C  
HETATM   20  N   UNL     1      -8.077  15.832  67.386  1.00  0.00    -0.155 N  
BRANCH  20  21
HETATM   21  C   UNL     1      -7.184  16.538  66.427  1.00  0.00    -0.056 C  
BRANCH  21  22
HETATM   22  C   UNL     1      -7.589  18.019  66.207  1.00  0.00    -0.271 C  
HETATM   23  H   UNL     1      -9.259  19.055  65.927  1.00  0.00     0.000 HD 
HETATM   24  O   UNL     1      -9.011  18.147  66.063  1.00  0.00    -0.503 OA 
BRANCH  22  25
HETATM   25  C   UNL     1      -7.146  18.936  67.357  1.00  0.00    -0.206 C  
HETATM   26  H   UNL     1      -7.793  20.573  68.251  1.00  0.00     0.000 HD 
HETATM   27  O   UNL     1      -8.066  20.007  67.540  1.00  0.00    -0.297 OA 
ENDBRANCH  22  25
ENDBRANCH  21  22
ENDBRANCH  20  21
ENDBRANCH  10  17
BRANCH  16  28
HETATM   28  C   UNL     1     -10.012  10.308  68.802  1.00  0.00    -0.179 C  
HETATM   29  H   UNL     1      -9.116  10.428  70.697  1.00  0.00     0.000 HD 
HETATM   30  O   UNL     1     -10.324   9.588  67.868  1.00  0.00    -0.199 OA 
HETATM   31  N   UNL     1      -9.325   9.814  69.910  1.00  0.00    -0.223 N  
BRANCH  31  32
HETATM   32  C   UNL     1      -8.906   8.418  69.944  1.00  0.00    -0.137 C  
BRANCH  32  33
HETATM   33  C   UNL     1      -9.822   7.551  70.812  1.00  0.00    -0.178 C  
HETATM   34  O   UNL     1      -9.108   6.370  71.205  1.00  0.00    -0.148 OA 
HETATM   35  H   UNL     1      -9.677   5.831  71.744  1.00  0.00     0.000 HD 
BRANCH  33  36
HETATM   36  C   UNL     1     -10.311   8.326  72.048  1.00  0.00    -0.279 C  
HETATM   37  O   UNL     1      -9.575   7.973  73.217  1.00  0.00    -0.277 OA 
HETATM   38  H   UNL     1      -9.877   8.451  73.980  1.00  0.00     0.000 HD 
ENDBRANCH  33  36
ENDBRANCH  32  33
ENDBRANCH  31  32
ENDBRANCH  16  28
ENDBRANCH   6   8
ENDBRANCH   3   4
ENDBRANCH   2   3
TORSDOF 11
ENDMDL
MODEL       50
REMARK 921   NORMALIZED FREE ENERGY PREDICTED BY IDOCK:   -4.02 KCAL/MOL
REMARK 922        TOTAL FREE ENERGY PREDICTED BY IDOCK:   -7.73 KCAL/MOL
REMARK 923 INTER-LIGAND FREE ENERGY PREDICTED BY IDOCK:   -7.15 KCAL/MOL
REMARK 924 INTRA-LIGAND FREE ENERGY PREDICTED BY IDOCK:   -0.58 KCAL/MOL
REMARK 927      BINDING AFFINITY PREDICTED BY RF-SCORE:    0.00 PKD
ROOT
HETATM    1  C   UNL     1      -6.688   9.315  64.028  1.00  0.00    -0.091 C  
HETATM    2  O   UNL     1      -7.901  10.045  63.868  1.00  0.00    -0.143 OA 
ENDROOT
BRANCH   2   3
HETATM    3  C   UNL     1      -8.225  10.823  65.013  1.00  0.00    -0.005 C  
BRANCH   3   4
HETATM    4  C   UNL     1      -9.229  10.142  65.960  1.00  0.00    -0.158 C  
HETATM    5  O   UNL     1     -10.244   9.594  65.537  1.00  0.00    -0.228 OA 
HETATM    6  N   UNL     1      -8.869  10.183  67.312  1.00  0.00    -0.132 N  
HETATM    7  H   UNL     1      -8.034  10.677  67.626  1.00  0.00     0.000 HD 
BRANCH   6   8
HETATM    8  C   UNL     1      -9.723   9.504  68.232  1.00  0.00    -0.147 A  
HETATM    9  C   UNL     1      -9.517   8.137  68.543  1.00  0.00    -0.143 A  
HETATM   10  C   UNL     1     -10.162   7.530  69.661  1.00  0.00    -0.205 A  
HETATM   11  I   UNL     1      -8.160   7.066  67.261  1.00  0.00    -0.116 I  
HETATM   12  C   UNL     1     -10.748  10.219  68.891  1.00  0.00    -0.227 A  
HETATM   13  C   UNL     1     -11.016   8.359  70.435  1.00  0.00    -0.239 A  
HETATM   14  I   UNL     1     -11.339   7.922  72.527  1.00  0.00    -0.382 I  
HETATM   15  I   UNL     1     -11.311  12.134  68.061  1.00  0.00    -0.419 I  
HETATM   16  C   UNL     1     -11.435   9.637  69.972  1.00  0.00    -0.191 A  
BRANCH  10  17
HETATM   17  C   UNL     1      -9.808   6.115  70.048  1.00  0.00    -0.170 C  
HETATM   18  O   UNL     1     -10.551   5.224  69.633  1.00  0.00    -0.294 OA 
HETATM   19  C   UNL     1      -7.673   6.691  71.350  1.00  0.00    -0.094 C  
HETATM   20  N   UNL     1      -8.726   5.794  70.891  1.00  0.00    -0.133 N  
BRANCH  20  21
HETATM   21  C   UNL     1      -8.600   4.396  71.386  1.00  0.00    -0.107 C  
BRANCH  21  22
HETATM   22  C   UNL     1      -7.304   3.698  70.897  1.00  0.00    -0.037 C  
HETATM   23  H   UNL     1      -5.925   2.481  71.643  1.00  0.00     0.000 HD 
HETATM   24  O   UNL     1      -6.719   2.908  71.943  1.00  0.00    -0.021 OA 
BRANCH  22  25
HETATM   25  C   UNL     1      -7.541   2.781  69.688  1.00  0.00    -0.043 C  
HETATM   26  H   UNL     1      -9.065   1.870  68.822  1.00  0.00     0.000 HD 
HETATM   27  O   UNL     1      -8.918   2.437  69.569  1.00  0.00    -0.083 OA 
ENDBRANCH  22  25
ENDBRANCH  21  22
ENDBRANCH  20  21
ENDBRANCH  10  17
BRANCH  16  28
HETATM   28  C   UNL     1     -12.606  10.342  70.583  1.00  0.00    -0.348 C  
HETATM   29  H   UNL     1     -11.402  11.965  71.150  1.00  0.00     0.000 HD 
HETATM   30  O   UNL     1     -13.723   9.852  70.592  1.00  0.00    -0.113 OA 
HETATM   31  N   UNL     1     -12.334  11.557  71.212  1.00  0.00    -0.267 N  
BRANCH  31  32
HETATM   32  C   UNL     1     -13.383  12.242  71.956  1.00  0.00    -0.386 C  
BRANCH  32  33
HETATM   33  C   UNL     1     -13.075  13.727  72.171  1.00  0.00    -0.406 C  
HETATM   34  O   UNL     1     -11.935  14.085  71.375  1.00  0.00    -0.413 OA 
HETATM   35  H   UNL     1     -11.744  15.006  71.508  1.00  0.00     0.000 HD 
BRANCH  33  36
HETATM   36  C   UNL     1     -14.286  14.603  71.810  1.00  0.00    -0.530 C  
HETATM   37  O   UNL     1     -13.971  15.541  70.783  1.00  0.00    -0.874 OA 
HETATM   38  H   UNL     1     -14.719  16.082  70.560  1.00  0.00     0.000 HD 
ENDBRANCH  33  36
ENDBRANCH  32  33
ENDBRANCH  31  32
ENDBRANCH  16  28
ENDBRANCH   6   8
ENDBRANCH   3   4
ENDBRANCH   2   3
TORSDOF 11
ENDMDL
MODEL       51
REMARK 921   NORMALIZED FREE ENERGY PREDICTED BY IDOCK:   -4.00 KCAL/MOL
REMARK 922        TOTAL FREE ENERGY PREDICTED BY IDOCK:   -7.70 KCAL/MOL
REMARK 923 INTER-LIGAND FREE ENERGY PREDICTED BY IDOCK:   -6.83 KCAL/MOL
REMARK 924 INTRA-LIGAND FREE ENERGY PREDICTED BY IDOCK:   -0.86 KCAL/MOL
REMARK 927      BINDING AFFINITY PREDICTED BY RF-SCORE:    0.00 PKD
ROOT
HETATM    1  C   UNL     1     -12.653  11.906  63.485  1.00  0.00    -0.459 C  
HETATM    2  O   UNL     1     -13.281  12.464  64.635  1.00  0.00    -0.822 OA 
ENDROOT
BRANCH   2   3
HETATM    3  C   UNL     1     -12.695  13.697  65.033  1.00  0.00    -0.336 C  
BRANCH   3   4
HETATM    4  C   UNL     1     -11.288  13.546  65.638  1.00  0.00    -0.298 C  
HETATM    5  O   UNL     1     -10.279  13.837  65.001  1.00  0.00    -0.364 OA 
HETATM    6  N   UNL     1     -11.271  13.086  66.960  1.00  0.00    -0.278 N  
HETATM    7  H   UNL     1     -12.131  12.825  67.443  1.00  0.00     0.000 HD 
BRANCH   6   8
HETATM    8  C   UNL     1     -10.000  12.996  67.601  1.00  0.00    -0.215 A  
HETATM    9  C   UNL     1      -9.293  11.769  67.648  1.00  0.00    -0.180 A  
HETATM   10  C   UNL     1      -7.916  11.725  68.017  1.00  0.00    -0.141 A  
HETATM   11  I   UNL     1     -10.406  10.011  67.096  1.00  0.00    -0.279 I  
HETATM   12  C   UNL     1      -9.408  14.160  68.143  1.00  0.00    -0.206 A  
HETATM   13  C   UNL     1      -7.299  12.964  68.336  1.00  0.00    -0.119 A  
HETATM   14  I   UNL     1      -5.172  13.216  68.050  1.00  0.00    -0.068 I  
HETATM   15  I   UNL     1     -10.693  15.869  68.459  1.00  0.00    -0.327 I  
HETATM   16  C   UNL     1      -8.063  14.143  68.557  1.00  0.00    -0.143 A  
BRANCH  10  17
HETATM   17  C   UNL     1      -7.158  10.424  67.915  1.00  0.00    -0.083 C  
HETATM   18  O   UNL     1      -6.627  10.177  66.830  1.00  0.00    -0.071 OA 
HETATM   19  C   UNL     1      -7.532   9.673  70.340  1.00  0.00    -0.158 C  
HETATM   20  N   UNL     1      -7.092   9.485  68.963  1.00  0.00    -0.065 N  
BRANCH  20  21
HETATM   21  C   UNL     1      -6.509   8.144  68.681  1.00  0.00    -0.053 C  
BRANCH  21  22
HETATM   22  C   UNL     1      -7.468   7.229  67.876  1.00  0.00    -0.102 C  
HETATM   23  H   UNL     1      -7.330   5.627  66.712  1.00  0.00     0.000 HD 
HETATM   24  O   UNL     1      -6.743   6.188  67.205  1.00  0.00    -0.057 OA 
BRANCH  22  25
HETATM   25  C   UNL     1      -8.538   6.566  68.757  1.00  0.00    -0.121 C  
HETATM   26  H   UNL     1     -10.066   5.337  68.523  1.00  0.00     0.000 HD 
HETATM   27  O   UNL     1      -9.405   5.746  67.979  1.00  0.00    -0.109 OA 
ENDBRANCH  22  25
ENDBRANCH  21  22
ENDBRANCH  20  21
ENDBRANCH  10  17
BRANCH  16  28
HETATM   28  C   UNL     1      -7.478  15.334  69.249  1.00  0.00    -0.200 C  
HETATM   29  H   UNL     1      -7.578  16.474  67.490  1.00  0.00     0.000 HD 
HETATM   30  O   UNL     1      -7.150  15.302  70.424  1.00  0.00     0.079 OA 
HETATM   31  N   UNL     1      -7.254  16.459  68.457  1.00  0.00    -0.162 N  
BRANCH  31  32
HETATM   32  C   UNL     1      -6.556  17.612  69.011  1.00  0.00    -0.244 C  
BRANCH  32  33
HETATM   33  C   UNL     1      -6.976  18.926  68.345  1.00  0.00    -0.254 C  
HETATM   34  O   UNL     1      -8.404  19.050  68.420  1.00  0.00    -0.322 OA 
HETATM   35  H   UNL     1      -8.665  19.865  68.007  1.00  0.00     0.000 HD 
BRANCH  33  36
HETATM   36  C   UNL     1      -6.292  20.131  69.013  1.00  0.00    -0.325 C  
HETATM   37  O   UNL     1      -6.296  20.017  70.435  1.00  0.00    -0.351 OA 
HETATM   38  H   UNL     1      -5.872  20.761  70.847  1.00  0.00     0.000 HD 
ENDBRANCH  33  36
ENDBRANCH  32  33
ENDBRANCH  31  32
ENDBRANCH  16  28
ENDBRANCH   6   8
ENDBRANCH   3   4
ENDBRANCH   2   3
TORSDOF 11
ENDMDL
MODEL       52
REMARK 921   NORMALIZED FREE ENERGY PREDICTED BY IDOCK:   -3.92 KCAL/MOL
REMARK 922        TOTAL FREE ENERGY PREDICTED BY IDOCK:   -7.57 KCAL/MOL
REMARK 923 INTER-LIGAND FREE ENERGY PREDICTED BY IDOCK:   -6.98 KCAL/MOL
REMARK 924 INTRA-LIGAND FREE ENERGY PREDICTED BY IDOCK:   -0.59 KCAL/MOL
REMARK 927      BINDING AFFINITY PREDICTED BY RF-SCORE:    0.00 PKD
ROOT
HETATM    1  C   UNL     1     -12.141   8.034  72.259  1.00  0.00    -0.341 C  
HETATM    2  O   UNL     1     -12.646   7.081  71.328  1.00  0.00    -0.372 OA 
ENDROOT
BRANCH   2   3
HETATM    3  C   UNL     1     -11.629   6.236  70.806  1.00  0.00    -0.279 C  
BRANCH   3   4
HETATM    4  C   UNL     1     -10.608   6.970  69.921  1.00  0.00    -0.229 C  
HETATM    5  O   UNL     1      -9.478   7.235  70.324  1.00  0.00    -0.165 OA 
HETATM    6  N   UNL     1     -11.069   7.275  68.634  1.00  0.00    -0.452 N  
HETATM    7  H   UNL     1     -12.026   7.066  68.349  1.00  0.00     0.000 HD 
BRANCH   6   8
HETATM    8  C   UNL     1     -10.143   7.890  67.740  1.00  0.00    -0.192 A  
HETATM    9  C   UNL     1      -9.338   7.108  66.874  1.00  0.00    -0.155 A  
HETATM   10  C   UNL     1      -8.633   7.703  65.787  1.00  0.00    -0.156 A  
HETATM   11  I   UNL     1      -9.282   4.995  67.282  1.00  0.00    -0.159 I  
HETATM   12  C   UNL     1     -10.070   9.300  67.671  1.00  0.00    -0.214 A  
HETATM   13  C   UNL     1      -8.777   9.105  65.621  1.00  0.00    -0.174 A  
HETATM   14  I   UNL     1      -8.559   9.989  63.660  1.00  0.00    -0.277 I  
HETATM   15  I   UNL     1     -10.952  10.418  69.297  1.00  0.00    -0.336 I  
HETATM   16  C   UNL     1      -9.350   9.922  66.635  1.00  0.00    -0.196 A  
BRANCH  10  17
HETATM   17  C   UNL     1      -7.906   6.822  64.800  1.00  0.00    -0.119 C  
HETATM   18  O   UNL     1      -8.582   6.323  63.899  1.00  0.00     0.133 OA 
HETATM   19  C   UNL     1      -5.566   7.116  65.812  1.00  0.00    -0.032 C  
HETATM   20  N   UNL     1      -6.536   6.511  64.908  1.00  0.00    -0.040 N  
BRANCH  20  21
HETATM   21  C   UNL     1      -5.972   5.461  64.016  1.00  0.00    -0.021 C  
BRANCH  21  22
HETATM   22  C   UNL     1      -6.274   4.023  64.512  1.00  0.00    -0.026 C  
HETATM   23  H   UNL     1      -6.456   2.209  63.726  1.00  0.00     0.000 HD 
HETATM   24  O   UNL     1      -6.270   3.090  63.422  1.00  0.00    -0.017 OA 
BRANCH  22  25
HETATM   25  C   UNL     1      -5.265   3.529  65.559  1.00  0.00    -0.009 C  
HETATM   26  H   UNL     1      -5.199   3.265  67.516  1.00  0.00     0.000 HD 
HETATM   27  O   UNL     1      -5.824   3.570  66.868  1.00  0.00    -0.022 OA 
ENDBRANCH  22  25
ENDBRANCH  21  22
ENDBRANCH  20  21
ENDBRANCH  10  17
BRANCH  16  28
HETATM   28  C   UNL     1      -9.165  11.407  66.637  1.00  0.00    -0.181 C  
HETATM   29  H   UNL     1     -11.108  11.704  65.901  1.00  0.00     0.000 HD 
HETATM   30  O   UNL     1      -8.119  11.928  66.986  1.00  0.00    -0.161 OA 
HETATM   31  N   UNL     1     -10.229  12.161  66.144  1.00  0.00    -0.222 N  
BRANCH  31  32
HETATM   32  C   UNL     1     -10.085  13.601  65.975  1.00  0.00    -0.312 C  
BRANCH  32  33
HETATM   33  C   UNL     1     -10.462  14.067  64.565  1.00  0.00    -0.259 C  
HETATM   34  O   UNL     1     -10.231  12.991  63.643  1.00  0.00    -0.643 OA 
HETATM   35  H   UNL     1     -10.465  13.280  62.768  1.00  0.00     0.000 HD 
BRANCH  33  36
HETATM   36  C   UNL     1     -11.928  14.527  64.506  1.00  0.00    -0.468 C  
HETATM   37  O   UNL     1     -12.417  14.558  63.167  1.00  0.00    -0.885 OA 
HETATM   38  H   UNL     1     -13.323  14.842  63.130  1.00  0.00     0.000 HD 
ENDBRANCH  33  36
ENDBRANCH  32  33
ENDBRANCH  31  32
ENDBRANCH  16  28
ENDBRANCH   6   8
ENDBRANCH   3   4
ENDBRANCH   2   3
TORSDOF 11
ENDMDL
MODEL       53
REMARK 921   NORMALIZED FREE ENERGY PREDICTED BY IDOCK:   -3.90 KCAL/MOL
REMARK 922        TOTAL FREE ENERGY PREDICTED BY IDOCK:   -7.54 KCAL/MOL
REMARK 923 INTER-LIGAND FREE ENERGY PREDICTED BY IDOCK:   -7.09 KCAL/MOL
REMARK 924 INTRA-LIGAND FREE ENERGY PREDICTED BY IDOCK:   -0.45 KCAL/MOL
REMARK 927      BINDING AFFINITY PREDICTED BY RF-SCORE:    0.00 PKD
ROOT
HETATM    1  C   UNL     1     -12.517  14.837  64.113  1.00  0.00    -0.111 C  
HETATM    2  O   UNL     1     -13.136  13.901  64.991  1.00  0.00    -0.749 OA 
ENDROOT
BRANCH   2   3
HETATM    3  C   UNL     1     -12.551  12.608  64.912  1.00  0.00    -0.450 C  
BRANCH   3   4
HETATM    4  C   UNL     1     -11.072  12.571  65.335  1.00  0.00    -0.302 C  
HETATM    5  O   UNL     1     -10.180  12.295  64.537  1.00  0.00    -0.290 OA 
HETATM    6  N   UNL     1     -10.845  12.900  66.676  1.00  0.00    -0.265 N  
HETATM    7  H   UNL     1     -11.617  13.092  67.316  1.00  0.00     0.000 HD 
BRANCH   6   8
HETATM    8  C   UNL     1      -9.487  12.955  67.111  1.00  0.00    -0.229 A  
HETATM    9  C   UNL     1      -8.745  14.160  67.030  1.00  0.00    -0.204 A  
HETATM   10  C   UNL     1      -7.505  14.310  67.718  1.00  0.00    -0.175 A  
HETATM   11  I   UNL     1      -9.618  15.733  65.849  1.00  0.00    -0.223 I  
HETATM   12  C   UNL     1      -8.892  11.811  67.689  1.00  0.00    -0.162 A  
HETATM   13  C   UNL     1      -7.057  13.198  68.479  1.00  0.00    -0.105 A  
HETATM   14  I   UNL     1      -5.779  13.508  70.194  1.00  0.00    -0.142 I  
HETATM   15  I   UNL     1      -9.880   9.914  67.373  1.00  0.00    -0.267 I  
HETATM   16  C   UNL     1      -7.649  11.912  68.342  1.00  0.00    -0.120 A  
BRANCH  10  17
HETATM   17  C   UNL     1      -6.816  15.652  67.728  1.00  0.00    -0.159 C  
HETATM   18  O   UNL     1      -5.814  15.766  67.020  1.00  0.00    -0.316 OA 
HETATM   19  C   UNL     1      -8.458  16.815  69.321  1.00  0.00     0.037 C  
HETATM   20  N   UNL     1      -7.230  16.726  68.541  1.00  0.00    -0.184 N  
BRANCH  20  21
HETATM   21  C   UNL     1      -6.352  17.924  68.639  1.00  0.00    -0.209 C  
BRANCH  21  22
HETATM   22  C   UNL     1      -7.139  19.222  68.956  1.00  0.00    -0.356 C  
HETATM   23  H   UNL     1      -6.898  20.845  70.074  1.00  0.00     0.000 HD 
HETATM   24  O   UNL     1      -6.415  20.050  69.880  1.00  0.00    -0.352 OA 
BRANCH  22  25
HETATM   25  C   UNL     1      -7.435  20.060  67.704  1.00  0.00    -0.292 C  
HETATM   26  H   UNL     1      -8.885  20.239  66.375  1.00  0.00     0.000 HD 
HETATM   27  O   UNL     1      -8.702  19.720  67.149  1.00  0.00    -0.299 OA 
ENDBRANCH  22  25
ENDBRANCH  21  22
ENDBRANCH  20  21
ENDBRANCH  10  17
BRANCH  16  28
HETATM   28  C   UNL     1      -6.961  10.679  68.837  1.00  0.00    -0.073 C  
HETATM   29  H   UNL     1      -8.312  10.500  70.434  1.00  0.00     0.000 HD 
HETATM   30  O   UNL     1      -5.976  10.221  68.283  1.00  0.00    -0.041 OA 
HETATM   31  N   UNL     1      -7.461  10.126  70.015  1.00  0.00    -0.167 N  
BRANCH  31  32
HETATM   32  C   UNL     1      -6.767   9.012  70.648  1.00  0.00    -0.064 C  
BRANCH  32  33
HETATM   33  C   UNL     1      -7.717   8.091  71.421  1.00  0.00    -0.089 C  
HETATM   34  O   UNL     1      -8.112   8.745  72.636  1.00  0.00    -0.390 OA 
HETATM   35  H   UNL     1      -8.701   8.174  73.116  1.00  0.00     0.000 HD 
BRANCH  33  36
HETATM   36  C   UNL     1      -8.950   7.730  70.574  1.00  0.00    -0.150 C  
HETATM   37  O   UNL     1     -10.165   8.050  71.249  1.00  0.00    -0.189 OA 
HETATM   38  H   UNL     1     -10.926   7.827  70.726  1.00  0.00     0.000 HD 
ENDBRANCH  33  36
ENDBRANCH  32  33
ENDBRANCH  31  32
ENDBRANCH  16  28
ENDBRANCH   6   8
ENDBRANCH   3   4
ENDBRANCH   2   3
TORSDOF 11
ENDMDL
MODEL       54
REMARK 921   NORMALIZED FREE ENERGY PREDICTED BY IDOCK:   -3.87 KCAL/MOL
REMARK 922        TOTAL FREE ENERGY PREDICTED BY IDOCK:   -7.49 KCAL/MOL
REMARK 923 INTER-LIGAND FREE ENERGY PREDICTED BY IDOCK:   -6.53 KCAL/MOL
REMARK 924 INTRA-LIGAND FREE ENERGY PREDICTED BY IDOCK:   -0.96 KCAL/MOL
REMARK 927      BINDING AFFINITY PREDICTED BY RF-SCORE:    0.00 PKD
ROOT
HETATM    1  C   UNL     1      -8.337   3.039  64.170  1.00  0.00    -0.086 C  
HETATM    2  O   UNL     1      -9.133   4.221  64.203  1.00  0.00    -0.143 OA 
ENDROOT
BRANCH   2   3
HETATM    3  C   UNL     1      -8.382   5.393  63.915  1.00  0.00    -0.109 C  
BRANCH   3   4
HETATM    4  C   UNL     1      -8.131   6.285  65.142  1.00  0.00    -0.130 C  
HETATM    5  O   UNL     1      -6.999   6.476  65.580  1.00  0.00    -0.051 OA 
HETATM    6  N   UNL     1      -9.284   6.867  65.682  1.00  0.00    -0.376 N  
HETATM    7  H   UNL     1     -10.211   6.658  65.308  1.00  0.00     0.000 HD 
BRANCH   6   8
HETATM    8  C   UNL     1      -9.108   7.765  66.777  1.00  0.00    -0.154 A  
HETATM    9  C   UNL     1      -9.165   7.301  68.115  1.00  0.00    -0.132 A  
HETATM   10  C   UNL     1      -8.708   8.112  69.195  1.00  0.00    -0.140 A  
HETATM   11  I   UNL     1      -9.938   5.312  68.398  1.00  0.00    -0.161 I  
HETATM   12  C   UNL     1      -8.812   9.123  66.524  1.00  0.00    -0.134 A  
HETATM   13  C   UNL     1      -8.201   9.396  68.863  1.00  0.00    -0.111 A  
HETATM   14  I   UNL     1      -6.730  10.339  70.135  1.00  0.00    -0.060 I  
HETATM   15  I   UNL     1      -9.190   9.866  64.530  1.00  0.00    -0.212 I  
HETATM   16  C   UNL     1      -8.397   9.964  67.574  1.00  0.00    -0.114 A  
BRANCH  10  17
HETATM   17  C   UNL     1      -8.646   7.532  70.587  1.00  0.00    -0.137 C  
HETATM   18  O   UNL     1      -7.793   6.666  70.790  1.00  0.00    -0.102 OA 
HETATM   19  C   UNL     1     -10.509   8.981  71.593  1.00  0.00    -0.355 C  
HETATM   20  N   UNL     1      -9.544   7.889  71.612  1.00  0.00    -0.157 N  
BRANCH  20  21
HETATM   21  C   UNL     1      -9.536   7.099  72.874  1.00  0.00    -0.151 C  
BRANCH  21  22
HETATM   22  C   UNL     1     -10.789   6.197  73.027  1.00  0.00    -0.257 C  
HETATM   23  H   UNL     1     -11.975   5.126  71.850  1.00  0.00     0.000 HD 
HETATM   24  O   UNL     1     -11.207   5.678  71.756  1.00  0.00    -0.242 OA 
BRANCH  22  25
HETATM   25  C   UNL     1     -10.555   5.007  73.970  1.00  0.00    -0.298 C  
HETATM   26  H   UNL     1     -11.075   3.105  74.078  1.00  0.00     0.000 HD 
HETATM   27  O   UNL     1     -11.219   3.841  73.495  1.00  0.00    -0.243 OA 
ENDBRANCH  22  25
ENDBRANCH  21  22
ENDBRANCH  20  21
ENDBRANCH  10  17
BRANCH  16  28
HETATM   28  C   UNL     1      -8.210  11.429  67.331  1.00  0.00    -0.145 C  
HETATM   29  H   UNL     1     -10.247  11.801  67.673  1.00  0.00     0.000 HD 
HETATM   30  O   UNL     1      -7.125  11.902  67.037  1.00  0.00    -0.142 OA 
HETATM   31  N   UNL     1      -9.361  12.213  67.381  1.00  0.00    -0.177 N  
BRANCH  31  32
HETATM   32  C   UNL     1      -9.299  13.623  67.017  1.00  0.00    -0.248 C  
BRANCH  32  33
HETATM   33  C   UNL     1     -10.394  14.021  66.023  1.00  0.00    -0.306 C  
HETATM   34  O   UNL     1      -9.990  13.624  64.704  1.00  0.00    -0.625 OA 
HETATM   35  H   UNL     1     -10.670  13.872  64.086  1.00  0.00     0.000 HD 
BRANCH  33  36
HETATM   36  C   UNL     1     -11.741  13.379  66.394  1.00  0.00    -0.368 C  
HETATM   37  O   UNL     1     -12.359  12.760  65.268  1.00  0.00    -0.465 OA 
HETATM   38  H   UNL     1     -13.191  12.364  65.498  1.00  0.00     0.000 HD 
ENDBRANCH  33  36
ENDBRANCH  32  33
ENDBRANCH  31  32
ENDBRANCH  16  28
ENDBRANCH   6   8
ENDBRANCH   3   4
ENDBRANCH   2   3
TORSDOF 11
ENDMDL
MODEL       55
REMARK 921   NORMALIZED FREE ENERGY PREDICTED BY IDOCK:   -3.87 KCAL/MOL
REMARK 922        TOTAL FREE ENERGY PREDICTED BY IDOCK:   -7.48 KCAL/MOL
REMARK 923 INTER-LIGAND FREE ENERGY PREDICTED BY IDOCK:   -7.54 KCAL/MOL
REMARK 924 INTRA-LIGAND FREE ENERGY PREDICTED BY IDOCK:    0.06 KCAL/MOL
REMARK 927      BINDING AFFINITY PREDICTED BY RF-SCORE:    0.00 PKD
ROOT
HETATM    1  C   UNL     1      -9.152  11.106  62.882  1.00  0.00    -0.302 C  
HETATM    2  O   UNL     1      -9.835  12.331  63.135  1.00  0.00    -0.373 OA 
ENDROOT
BRANCH   2   3
HETATM    3  C   UNL     1      -9.667  12.783  64.472  1.00  0.00     0.117 C  
BRANCH   3   4
HETATM    4  C   UNL     1     -10.427  11.942  65.511  1.00  0.00    -0.268 C  
HETATM    5  O   UNL     1     -11.562  11.524  65.297  1.00  0.00    -0.117 OA 
HETATM    6  N   UNL     1      -9.708  11.680  66.683  1.00  0.00    -0.198 N  
HETATM    7  H   UNL     1      -8.778  12.073  66.836  1.00  0.00     0.000 HD 
BRANCH   6   8
HETATM    8  C   UNL     1     -10.331  10.842  67.655  1.00  0.00    -0.201 A  
HETATM    9  C   UNL     1     -10.074   9.448  67.687  1.00  0.00    -0.211 A  
HETATM   10  C   UNL     1     -10.448   8.655  68.811  1.00  0.00    -0.209 A  
HETATM   11  I   UNL     1      -9.065   8.631  65.970  1.00  0.00    -0.220 I  
HETATM   12  C   UNL     1     -11.166  11.416  68.640  1.00  0.00    -0.243 A  
HETATM   13  C   UNL     1     -11.088   9.328  69.885  1.00  0.00    -0.181 A  
HETATM   14  I   UNL     1     -10.920   8.556  71.897  1.00  0.00    -0.427 I  
HETATM   15  I   UNL     1     -11.886  13.423  68.281  1.00  0.00    -0.218 I  
HETATM   16  C   UNL     1     -11.589  10.652  69.743  1.00  0.00    -0.385 A  
BRANCH  10  17
HETATM   17  C   UNL     1     -10.029   7.207  68.873  1.00  0.00    -0.163 C  
HETATM   18  O   UNL     1     -10.867   6.373  68.524  1.00  0.00    -0.258 OA 
HETATM   19  C   UNL     1      -7.628   7.628  69.674  1.00  0.00    -0.093 C  
HETATM   20  N   UNL     1      -8.776   6.786  69.360  1.00  0.00    -0.135 N  
BRANCH  20  21
HETATM   21  C   UNL     1      -8.551   5.332  69.585  1.00  0.00    -0.098 C  
BRANCH  21  22
HETATM   22  C   UNL     1      -7.073   4.912  69.374  1.00  0.00    -0.055 C  
HETATM   23  H   UNL     1      -5.679   3.909  70.370  1.00  0.00     0.000 HD 
HETATM   24  O   UNL     1      -6.585   4.166  70.500  1.00  0.00    -0.030 OA 
BRANCH  22  25
HETATM   25  C   UNL     1      -6.871   4.053  68.116  1.00  0.00    -0.047 C  
HETATM   26  H   UNL     1      -6.887   4.306  66.158  1.00  0.00     0.000 HD 
HETATM   27  O   UNL     1      -7.012   4.836  66.935  1.00  0.00    -0.058 OA 
ENDBRANCH  22  25
ENDBRANCH  21  22
ENDBRANCH  20  21
ENDBRANCH  10  17
BRANCH  16  28
HETATM   28  C   UNL     1     -12.577  11.220  70.714  1.00  0.00    -0.332 C  
HETATM   29  H   UNL     1     -11.525  13.034  70.806  1.00  0.00     0.000 HD 
HETATM   30  O   UNL     1     -13.531  10.576  71.117  1.00  0.00    -0.240 OA 
HETATM   31  N   UNL     1     -12.303  12.500  71.193  1.00  0.00    -0.245 N  
BRANCH  31  32
HETATM   32  C   UNL     1     -13.129  13.075  72.247  1.00  0.00    -0.340 C  
BRANCH  32  33
HETATM   33  C   UNL     1     -13.169  14.606  72.191  1.00  0.00    -0.363 C  
HETATM   34  O   UNL     1     -13.671  15.103  73.441  1.00  0.00    -0.582 OA 
HETATM   35  H   UNL     1     -13.696  16.053  73.407  1.00  0.00     0.000 HD 
BRANCH  33  36
HETATM   36  C   UNL     1     -11.776  15.187  71.897  1.00  0.00    -0.415 C  
HETATM   37  O   UNL     1     -11.822  16.600  71.714  1.00  0.00    -0.650 OA 
HETATM   38  H   UNL     1     -10.961  16.959  71.532  1.00  0.00     0.000 HD 
ENDBRANCH  33  36
ENDBRANCH  32  33
ENDBRANCH  31  32
ENDBRANCH  16  28
ENDBRANCH   6   8
ENDBRANCH   3   4
ENDBRANCH   2   3
TORSDOF 11
ENDMDL
MODEL       56
REMARK 921   NORMALIZED FREE ENERGY PREDICTED BY IDOCK:   -3.86 KCAL/MOL
REMARK 922        TOTAL FREE ENERGY PREDICTED BY IDOCK:   -7.47 KCAL/MOL
REMARK 923 INTER-LIGAND FREE ENERGY PREDICTED BY IDOCK:   -6.69 KCAL/MOL
REMARK 924 INTRA-LIGAND FREE ENERGY PREDICTED BY IDOCK:   -0.77 KCAL/MOL
REMARK 927      BINDING AFFINITY PREDICTED BY RF-SCORE:    0.00 PKD
ROOT
HETATM    1  C   UNL     1     -13.444  13.083  72.443  1.00  0.00    -0.515 C  
HETATM    2  O   UNL     1     -14.137  11.865  72.190  1.00  0.00     0.197 OA 
ENDROOT
BRANCH   2   3
HETATM    3  C   UNL     1     -13.261  10.751  72.080  1.00  0.00    -0.361 C  
BRANCH   3   4
HETATM    4  C   UNL     1     -12.573  10.637  70.709  1.00  0.00    -0.386 C  
HETATM    5  O   UNL     1     -13.215  10.451  69.679  1.00  0.00     0.118 OA 
HETATM    6  N   UNL     1     -11.182  10.790  70.745  1.00  0.00    -0.328 N  
HETATM    7  H   UNL     1     -10.682  10.912  71.626  1.00  0.00     0.000 HD 
BRANCH   6   8
HETATM    8  C   UNL     1     -10.493  10.769  69.496  1.00  0.00    -0.170 A  
HETATM    9  C   UNL     1     -10.344  11.950  68.726  1.00  0.00    -0.165 A  
HETATM   10  C   UNL     1      -9.423  12.010  67.639  1.00  0.00    -0.185 A  
HETATM   11  I   UNL     1     -11.553  13.628  69.321  1.00  0.00    -0.366 I  
HETATM   12  C   UNL     1      -9.896   9.569  69.048  1.00  0.00    -0.176 A  
HETATM   13  C   UNL     1      -8.672  10.835  67.370  1.00  0.00    -0.126 A  
HETATM   14  I   UNL     1      -6.727  10.985  66.440  1.00  0.00     0.012 I  
HETATM   15  I   UNL     1     -10.531   7.733  69.996  1.00  0.00    -0.235 I  
HETATM   16  C   UNL     1      -9.013   9.583  67.952  1.00  0.00    -0.125 A  
BRANCH  10  17
HETATM   17  C   UNL     1      -9.184  13.324  66.937  1.00  0.00    -0.241 C  
HETATM   18  O   UNL     1      -9.716  13.467  65.834  1.00  0.00    -0.262 OA 
HETATM   19  C   UNL     1      -7.767  14.396  68.788  1.00  0.00    -0.139 C  
HETATM   20  N   UNL     1      -8.351  14.336  67.454  1.00  0.00    -0.187 N  
BRANCH  20  21
HETATM   21  C   UNL     1      -8.010  15.492  66.581  1.00  0.00    -0.099 C  
BRANCH  21  22
HETATM   22  C   UNL     1      -8.169  16.857  67.301  1.00  0.00    -0.184 C  
HETATM   23  H   UNL     1      -7.720  18.759  66.951  1.00  0.00     0.000 HD 
HETATM   24  O   UNL     1      -7.622  17.923  66.510  1.00  0.00    -0.216 OA 
BRANCH  22  25
HETATM   25  C   UNL     1      -9.634  17.201  67.609  1.00  0.00    -0.254 C  
HETATM   26  H   UNL     1     -10.780  17.415  69.204  1.00  0.00     0.000 HD 
HETATM   27  O   UNL     1      -9.874  17.202  69.013  1.00  0.00    -0.275 OA 
ENDBRANCH  22  25
ENDBRANCH  21  22
ENDBRANCH  20  21
ENDBRANCH  10  17
BRANCH  16  28
HETATM   28  C   UNL     1      -8.485   8.296  67.399  1.00  0.00    -0.125 C  
HETATM   29  H   UNL     1     -10.010   8.228  65.958  1.00  0.00     0.000 HD 
HETATM   30  O   UNL     1      -7.506   7.743  67.870  1.00  0.00    -0.099 OA 
HETATM   31  N   UNL     1      -9.222   7.723  66.363  1.00  0.00    -0.178 N  
BRANCH  31  32
HETATM   32  C   UNL     1      -8.866   6.402  65.861  1.00  0.00    -0.131 C  
BRANCH  32  33
HETATM   33  C   UNL     1      -9.913   5.340  66.211  1.00  0.00    -0.192 C  
HETATM   34  O   UNL     1     -11.168   5.989  66.461  1.00  0.00    -0.741 OA 
HETATM   35  H   UNL     1     -11.818   5.330  66.679  1.00  0.00     0.000 HD 
BRANCH  33  36
HETATM   36  C   UNL     1     -10.053   4.305  65.082  1.00  0.00    -0.207 C  
HETATM   37  O   UNL     1      -9.561   4.809  63.841  1.00  0.00    -0.355 OA 
HETATM   38  H   UNL     1      -9.648   4.169  63.144  1.00  0.00     0.000 HD 
ENDBRANCH  33  36
ENDBRANCH  32  33
ENDBRANCH  31  32
ENDBRANCH  16  28
ENDBRANCH   6   8
ENDBRANCH   3   4
ENDBRANCH   2   3
TORSDOF 11
ENDMDL
MODEL       57
REMARK 921   NORMALIZED FREE ENERGY PREDICTED BY IDOCK:   -3.85 KCAL/MOL
REMARK 922        TOTAL FREE ENERGY PREDICTED BY IDOCK:   -7.44 KCAL/MOL
REMARK 923 INTER-LIGAND FREE ENERGY PREDICTED BY IDOCK:   -6.46 KCAL/MOL
REMARK 924 INTRA-LIGAND FREE ENERGY PREDICTED BY IDOCK:   -0.99 KCAL/MOL
REMARK 927      BINDING AFFINITY PREDICTED BY RF-SCORE:    0.00 PKD
ROOT
HETATM    1  C   UNL     1      -6.059   3.780  65.347  1.00  0.00    -0.024 C  
HETATM    2  O   UNL     1      -6.065   4.387  64.057  1.00  0.00    -0.017 OA 
ENDROOT
BRANCH   2   3
HETATM    3  C   UNL     1      -5.957   5.803  64.120  1.00  0.00    -0.025 C  
BRANCH   3   4
HETATM    4  C   UNL     1      -7.227   6.498  64.639  1.00  0.00    -0.064 C  
HETATM    5  O   UNL     1      -8.342   6.009  64.477  1.00  0.00    -0.123 OA 
HETATM    6  N   UNL     1      -6.993   7.698  65.321  1.00  0.00    -0.057 N  
HETATM    7  H   UNL     1      -6.054   8.087  65.406  1.00  0.00     0.000 HD 
BRANCH   6   8
HETATM    8  C   UNL     1      -8.125   8.353  65.891  1.00  0.00    -0.110 A  
HETATM    9  C   UNL     1      -8.583   8.018  67.190  1.00  0.00    -0.124 A  
HETATM   10  C   UNL     1      -9.512   8.849  67.882  1.00  0.00    -0.160 A  
HETATM   11  I   UNL     1      -7.767   6.220  68.048  1.00  0.00    -0.105 I  
HETATM   12  C   UNL     1      -8.762   9.394  65.178  1.00  0.00    -0.181 A  
HETATM   13  C   UNL     1      -9.952  10.018  67.206  1.00  0.00    -0.197 A  
HETATM   14  I   UNL     1     -10.589  11.745  68.337  1.00  0.00    -0.290 I  
HETATM   15  I   UNL     1      -8.337   9.551  63.065  1.00  0.00    -0.221 I  
HETATM   16  C   UNL     1      -9.714  10.210  65.817  1.00  0.00    -0.307 A  
BRANCH  10  17
HETATM   17  C   UNL     1      -9.864   8.540  69.316  1.00  0.00    -0.185 C  
HETATM   18  O   UNL     1     -10.936   7.963  69.511  1.00  0.00    -0.191 OA 
HETATM   19  C   UNL     1      -7.718   9.485  70.358  1.00  0.00    -0.163 C  
HETATM   20  N   UNL     1      -9.065   8.931  70.408  1.00  0.00    -0.173 N  
BRANCH  20  21
HETATM   21  C   UNL     1      -9.612   8.772  71.784  1.00  0.00    -0.301 C  
BRANCH  21  22
HETATM   22  C   UNL     1      -8.786   7.787  72.651  1.00  0.00    -0.146 C  
HETATM   23  H   UNL     1      -8.127   7.679  74.520  1.00  0.00     0.000 HD 
HETATM   24  O   UNL     1      -8.634   8.282  73.989  1.00  0.00    -0.244 OA 
BRANCH  22  25
HETATM   25  C   UNL     1      -9.419   6.390  72.733  1.00  0.00    -0.143 C  
HETATM   26  H   UNL     1      -9.452   4.874  73.997  1.00  0.00     0.000 HD 
HETATM   27  O   UNL     1      -9.061   5.737  73.947  1.00  0.00    -0.126 OA 
ENDBRANCH  22  25
ENDBRANCH  21  22
ENDBRANCH  20  21
ENDBRANCH  10  17
BRANCH  16  28
HETATM   28  C   UNL     1     -10.481  11.225  65.027  1.00  0.00    -0.298 C  
HETATM   29  H   UNL     1      -8.898  12.598  65.152  1.00  0.00     0.000 HD 
HETATM   30  O   UNL     1     -11.612  11.011  64.624  1.00  0.00     0.190 OA 
HETATM   31  N   UNL     1      -9.860  12.460  64.845  1.00  0.00    -0.160 N  
BRANCH  31  32
HETATM   32  C   UNL     1     -10.588  13.554  64.214  1.00  0.00    -0.287 C  
BRANCH  32  33
HETATM   33  C   UNL     1     -10.826  14.727  65.170  1.00  0.00    -0.404 C  
HETATM   34  O   UNL     1     -10.779  15.952  64.423  1.00  0.00    -0.803 OA 
HETATM   35  H   UNL     1     -10.926  16.680  65.016  1.00  0.00     0.000 HD 
BRANCH  33  36
HETATM   36  C   UNL     1     -12.175  14.586  65.896  1.00  0.00    -0.259 C  
HETATM   37  O   UNL     1     -13.073  13.741  65.180  1.00  0.00    -0.762 OA 
HETATM   38  H   UNL     1     -13.906  13.654  65.629  1.00  0.00     0.000 HD 
ENDBRANCH  33  36
ENDBRANCH  32  33
ENDBRANCH  31  32
ENDBRANCH  16  28
ENDBRANCH   6   8
ENDBRANCH   3   4
ENDBRANCH   2   3
TORSDOF 11
ENDMDL
MODEL       58
REMARK 921   NORMALIZED FREE ENERGY PREDICTED BY IDOCK:   -3.84 KCAL/MOL
REMARK 922        TOTAL FREE ENERGY PREDICTED BY IDOCK:   -7.44 KCAL/MOL
REMARK 923 INTER-LIGAND FREE ENERGY PREDICTED BY IDOCK:   -6.22 KCAL/MOL
REMARK 924 INTRA-LIGAND FREE ENERGY PREDICTED BY IDOCK:   -1.22 KCAL/MOL
REMARK 927      BINDING AFFINITY PREDICTED BY RF-SCORE:    0.00 PKD
ROOT
HETATM    1  C   UNL     1     -11.053   2.461  63.108  1.00  0.00    -0.205 C  
HETATM    2  O   UNL     1     -10.698   3.679  63.756  1.00  0.00    -0.266 OA 
ENDROOT
BRANCH   2   3
HETATM    3  C   UNL     1      -9.722   3.492  64.772  1.00  0.00    -0.165 C  
BRANCH   3   4
HETATM    4  C   UNL     1      -9.635   4.660  65.770  1.00  0.00    -0.184 C  
HETATM    5  O   UNL     1     -10.642   5.188  66.233  1.00  0.00    -0.292 OA 
HETATM    6  N   UNL     1      -8.330   5.034  66.112  1.00  0.00    -0.112 N  
HETATM    7  H   UNL     1      -7.518   4.591  65.680  1.00  0.00     0.000 HD 
BRANCH   6   8
HETATM    8  C   UNL     1      -8.183   6.062  67.090  1.00  0.00    -0.105 A  
HETATM    9  C   UNL     1      -8.113   7.426  66.709  1.00  0.00    -0.123 A  
HETATM   10  C   UNL     1      -8.261   8.468  67.670  1.00  0.00    -0.118 A  
HETATM   11  I   UNL     1      -7.814   7.810  64.612  1.00  0.00    -0.084 I  
HETATM   12  C   UNL     1      -8.170   5.724  68.462  1.00  0.00    -0.108 A  
HETATM   13  C   UNL     1      -8.476   8.072  69.016  1.00  0.00    -0.130 A  
HETATM   14  I   UNL     1      -9.553   9.372  70.366  1.00  0.00    -0.256 I  
HETATM   15  I   UNL     1      -7.814   3.652  68.967  1.00  0.00    -0.060 I  
HETATM   16  C   UNL     1      -8.272   6.730  69.441  1.00  0.00    -0.128 A  
BRANCH  10  17
HETATM   17  C   UNL     1      -8.328   9.903  67.208  1.00  0.00    -0.121 C  
HETATM   18  O   UNL     1      -7.293  10.565  67.305  1.00  0.00    -0.088 OA 
HETATM   19  C   UNL     1     -10.773   9.850  66.430  1.00  0.00     0.036 C  
HETATM   20  N   UNL     1      -9.511  10.510  66.743  1.00  0.00    -0.160 N  
BRANCH  20  21
HETATM   21  C   UNL     1      -9.518  11.983  66.524  1.00  0.00    -0.228 C  
BRANCH  21  22
HETATM   22  C   UNL     1     -10.761  12.468  65.733  1.00  0.00    -0.269 C  
HETATM   23  H   UNL     1     -12.177  13.845  65.929  1.00  0.00     0.000 HD 
HETATM   24  O   UNL     1     -11.415  13.548  66.414  1.00  0.00    -0.311 OA 
BRANCH  22  25
HETATM   25  C   UNL     1     -10.415  12.945  64.314  1.00  0.00    -0.407 C  
HETATM   26  H   UNL     1     -11.314  13.091  62.562  1.00  0.00     0.000 HD 
HETATM   27  O   UNL     1     -11.528  12.796  63.439  1.00  0.00    -0.490 OA 
ENDBRANCH  22  25
ENDBRANCH  21  22
ENDBRANCH  20  21
ENDBRANCH  10  17
BRANCH  16  28
HETATM   28  C   UNL     1      -8.126   6.383  70.889  1.00  0.00    -0.124 C  
HETATM   29  H   UNL     1     -10.087   5.637  70.964  1.00  0.00     0.000 HD 
HETATM   30  O   UNL     1      -7.100   6.610  71.508  1.00  0.00    -0.076 OA 
HETATM   31  N   UNL     1      -9.257   5.858  71.514  1.00  0.00    -0.146 N  
BRANCH  31  32
HETATM   32  C   UNL     1      -9.253   5.626  72.952  1.00  0.00    -0.135 C  
BRANCH  32  33
HETATM   33  C   UNL     1     -10.557   6.069  73.622  1.00  0.00    -0.264 C  
HETATM   34  O   UNL     1     -10.435   7.445  74.013  1.00  0.00    -0.406 OA 
HETATM   35  H   UNL     1     -11.244   7.720  74.429  1.00  0.00     0.000 HD 
BRANCH  33  36
HETATM   36  C   UNL     1     -11.758   5.877  72.680  1.00  0.00    -0.198 C  
HETATM   37  O   UNL     1     -12.467   7.097  72.475  1.00  0.00    -0.493 OA 
HETATM   38  H   UNL     1     -13.209   6.978  71.892  1.00  0.00     0.000 HD 
ENDBRANCH  33  36
ENDBRANCH  32  33
ENDBRANCH  31  32
ENDBRANCH  16  28
ENDBRANCH   6   8
ENDBRANCH   3   4
ENDBRANCH   2   3
TORSDOF 11
ENDMDL
MODEL       59
REMARK 921   NORMALIZED FREE ENERGY PREDICTED BY IDOCK:   -3.82 KCAL/MOL
REMARK 922        TOTAL FREE ENERGY PREDICTED BY IDOCK:   -7.39 KCAL/MOL
REMARK 923 INTER-LIGAND FREE ENERGY PREDICTED BY IDOCK:   -6.87 KCAL/MOL
REMARK 924 INTRA-LIGAND FREE ENERGY PREDICTED BY IDOCK:   -0.52 KCAL/MOL
REMARK 927      BINDING AFFINITY PREDICTED BY RF-SCORE:    0.00 PKD
ROOT
HETATM    1  C   UNL     1      -8.393   5.764  73.380  1.00  0.00    -0.115 C  
HETATM    2  O   UNL     1      -9.723   5.698  72.872  1.00  0.00    -0.155 OA 
ENDROOT
BRANCH   2   3
HETATM    3  C   UNL     1     -10.410   6.937  72.980  1.00  0.00    -0.244 C  
BRANCH   3   4
HETATM    4  C   UNL     1      -9.953   7.990  71.955  1.00  0.00    -0.195 C  
HETATM    5  O   UNL     1      -9.163   8.881  72.255  1.00  0.00    -0.376 OA 
HETATM    6  N   UNL     1     -10.490   7.822  70.673  1.00  0.00    -0.211 N  
HETATM    7  H   UNL     1     -11.169   7.087  70.472  1.00  0.00     0.000 HD 
BRANCH   6   8
HETATM    8  C   UNL     1     -10.046   8.723  69.659  1.00  0.00    -0.204 A  
HETATM    9  C   UNL     1      -8.920   8.416  68.855  1.00  0.00    -0.146 A  
HETATM   10  C   UNL     1      -8.644   9.150  67.664  1.00  0.00    -0.117 A  
HETATM   11  I   UNL     1      -7.699   6.773  69.519  1.00  0.00    -0.108 I  
HETATM   12  C   UNL     1     -10.775   9.908  69.411  1.00  0.00    -0.232 A  
HETATM   13  C   UNL     1      -9.545  10.196  67.332  1.00  0.00    -0.154 A  
HETATM   14  I   UNL     1      -9.812  10.778  65.268  1.00  0.00    -0.398 I  
HETATM   15  I   UNL     1     -12.171  10.548  70.931  1.00  0.00    -0.518 I  
HETATM   16  C   UNL     1     -10.502  10.680  68.267  1.00  0.00    -0.214 A  
BRANCH  10  17
HETATM   17  C   UNL     1      -7.524   8.703  66.757  1.00  0.00    -0.086 C  
HETATM   18  O   UNL     1      -6.464   9.326  66.837  1.00  0.00    -0.065 OA 
HETATM   19  C   UNL     1      -8.782   6.746  65.675  1.00  0.00    -0.074 C  
HETATM   20  N   UNL     1      -7.664   7.672  65.808  1.00  0.00    -0.095 N  
BRANCH  20  21
HETATM   21  C   UNL     1      -6.573   7.462  64.817  1.00  0.00    -0.043 C  
BRANCH  21  22
HETATM   22  C   UNL     1      -6.862   8.139  63.451  1.00  0.00    -0.084 C  
HETATM   23  H   UNL     1      -8.449   8.747  62.425  1.00  0.00     0.000 HD 
HETATM   24  O   UNL     1      -8.272   8.333  63.261  1.00  0.00    -0.158 OA 
BRANCH  22  25
HETATM   25  C   UNL     1      -6.174   9.505  63.306  1.00  0.00    -0.099 C  
HETATM   26  H   UNL     1      -6.650  11.323  62.698  1.00  0.00     0.000 HD 
HETATM   27  O   UNL     1      -7.075  10.479  62.788  1.00  0.00    -0.134 OA 
ENDBRANCH  22  25
ENDBRANCH  21  22
ENDBRANCH  20  21
ENDBRANCH  10  17
BRANCH  16  28
HETATM   28  C   UNL     1     -11.182  11.999  68.074  1.00  0.00    -0.258 C  
HETATM   29  H   UNL     1      -9.609  13.011  69.026  1.00  0.00     0.000 HD 
HETATM   30  O   UNL     1     -12.271  12.092  67.532  1.00  0.00    -0.474 OA 
HETATM   31  N   UNL     1     -10.538  13.110  68.618  1.00  0.00    -0.252 N  
BRANCH  31  32
HETATM   32  C   UNL     1     -11.194  14.411  68.605  1.00  0.00    -0.259 C  
BRANCH  32  33
HETATM   33  C   UNL     1     -10.843  15.232  67.361  1.00  0.00    -0.304 C  
HETATM   34  O   UNL     1     -10.747  16.616  67.729  1.00  0.00    -0.334 OA 
HETATM   35  H   UNL     1     -10.529  17.126  66.957  1.00  0.00     0.000 HD 
BRANCH  33  36
HETATM   36  C   UNL     1      -9.528  14.746  66.728  1.00  0.00    -0.254 C  
HETATM   37  O   UNL     1      -9.672  14.506  65.330  1.00  0.00    -0.509 OA 
HETATM   38  H   UNL     1      -8.859  14.206  64.939  1.00  0.00     0.000 HD 
ENDBRANCH  33  36
ENDBRANCH  32  33
ENDBRANCH  31  32
ENDBRANCH  16  28
ENDBRANCH   6   8
ENDBRANCH   3   4
ENDBRANCH   2   3
TORSDOF 11
ENDMDL
MODEL       60
REMARK 921   NORMALIZED FREE ENERGY PREDICTED BY IDOCK:   -3.78 KCAL/MOL
REMARK 922        TOTAL FREE ENERGY PREDICTED BY IDOCK:   -7.33 KCAL/MOL
REMARK 923 INTER-LIGAND FREE ENERGY PREDICTED BY IDOCK:   -6.71 KCAL/MOL
REMARK 924 INTRA-LIGAND FREE ENERGY PREDICTED BY IDOCK:   -0.63 KCAL/MOL
REMARK 927      BINDING AFFINITY PREDICTED BY RF-SCORE:    0.00 PKD
ROOT
HETATM    1  C   UNL     1      -5.778  18.415  68.182  1.00  0.00    -0.176 C  
HETATM    2  O   UNL     1      -5.241  17.238  68.779  1.00  0.00    -0.142 OA 
ENDROOT
BRANCH   2   3
HETATM    3  C   UNL     1      -5.148  16.155  67.862  1.00  0.00    -0.123 C  
BRANCH   3   4
HETATM    4  C   UNL     1      -6.484  15.430  67.622  1.00  0.00    -0.165 C  
HETATM    5  O   UNL     1      -7.117  15.575  66.580  1.00  0.00    -0.097 OA 
HETATM    6  N   UNL     1      -6.883  14.590  68.668  1.00  0.00    -0.088 N  
HETATM    7  H   UNL     1      -6.344  14.522  69.532  1.00  0.00     0.000 HD 
BRANCH   6   8
HETATM    8  C   UNL     1      -8.076  13.832  68.474  1.00  0.00    -0.128 A  
HETATM    9  C   UNL     1      -8.022  12.492  68.015  1.00  0.00    -0.153 A  
HETATM   10  C   UNL     1      -9.162  11.639  68.095  1.00  0.00    -0.184 A  
HETATM   11  I   UNL     1      -6.126  11.832  67.239  1.00  0.00    -0.134 I  
HETATM   12  C   UNL     1      -9.327  14.403  68.803  1.00  0.00    -0.150 A  
HETATM   13  C   UNL     1     -10.343  12.198  68.650  1.00  0.00    -0.195 A  
HETATM   14  I   UNL     1     -11.785  10.922  69.630  1.00  0.00    -0.456 I  
HETATM   15  I   UNL     1      -9.402  16.549  69.046  1.00  0.00    -0.076 I  
HETATM   16  C   UNL     1     -10.481  13.600  68.851  1.00  0.00    -0.167 A  
BRANCH  10  17
HETATM   17  C   UNL     1      -9.026  10.180  67.734  1.00  0.00    -0.128 C  
HETATM   18  O   UNL     1      -8.608   9.428  68.615  1.00  0.00    -0.121 OA 
HETATM   19  C   UNL     1      -9.925  10.384  65.339  1.00  0.00    -0.295 C  
HETATM   20  N   UNL     1      -9.295   9.676  66.446  1.00  0.00    -0.164 N  
BRANCH  20  21
HETATM   21  C   UNL     1      -8.917   8.268  66.140  1.00  0.00    -0.181 C  
BRANCH  21  22
HETATM   22  C   UNL     1      -7.413   8.110  65.797  1.00  0.00    -0.080 C  
HETATM   23  H   UNL     1      -6.046   6.671  65.837  1.00  0.00     0.000 HD 
HETATM   24  O   UNL     1      -6.967   6.768  66.046  1.00  0.00    -0.061 OA 
BRANCH  22  25
HETATM   25  C   UNL     1      -7.097   8.448  64.333  1.00  0.00    -0.081 C  
HETATM   26  H   UNL     1      -7.870   8.091  62.551  1.00  0.00     0.000 HD 
HETATM   27  O   UNL     1      -8.065   7.882  63.456  1.00  0.00    -0.145 OA 
ENDBRANCH  22  25
ENDBRANCH  21  22
ENDBRANCH  20  21
ENDBRANCH  10  17
BRANCH  16  28
HETATM   28  C   UNL     1     -11.822  14.227  69.070  1.00  0.00    -0.335 C  
HETATM   29  H   UNL     1     -11.485  14.355  71.138  1.00  0.00     0.000 HD 
HETATM   30  O   UNL     1     -12.598  14.432  68.152  1.00  0.00     0.085 OA 
HETATM   31  N   UNL     1     -12.168  14.494  70.394  1.00  0.00    -0.308 N  
BRANCH  31  32
HETATM   32  C   UNL     1     -13.508  14.971  70.715  1.00  0.00    -0.270 C  
BRANCH  32  33
HETATM   33  C   UNL     1     -13.882  14.726  72.180  1.00  0.00    -0.475 C  
HETATM   34  O   UNL     1     -13.526  13.381  72.532  1.00  0.00    -0.558 OA 
HETATM   35  H   UNL     1     -13.758  13.229  73.441  1.00  0.00     0.000 HD 
BRANCH  33  36
HETATM   36  C   UNL     1     -13.183  15.734  73.107  1.00  0.00    -0.591 C  
HETATM   37  O   UNL     1     -12.872  15.157  74.374  1.00  0.00    -0.565 OA 
HETATM   38  H   UNL     1     -12.440  15.780  74.947  1.00  0.00     0.000 HD 
ENDBRANCH  33  36
ENDBRANCH  32  33
ENDBRANCH  31  32
ENDBRANCH  16  28
ENDBRANCH   6   8
ENDBRANCH   3   4
ENDBRANCH   2   3
TORSDOF 11
ENDMDL
MODEL       61
REMARK 921   NORMALIZED FREE ENERGY PREDICTED BY IDOCK:   -3.78 KCAL/MOL
REMARK 922        TOTAL FREE ENERGY PREDICTED BY IDOCK:   -7.33 KCAL/MOL
REMARK 923 INTER-LIGAND FREE ENERGY PREDICTED BY IDOCK:   -6.38 KCAL/MOL
REMARK 924 INTRA-LIGAND FREE ENERGY PREDICTED BY IDOCK:   -0.95 KCAL/MOL
REMARK 927      BINDING AFFINITY PREDICTED BY RF-SCORE:    0.00 PKD
ROOT
HETATM    1  C   UNL     1     -12.642  15.493  70.734  1.00  0.00    -0.452 C  
HETATM    2  O   UNL     1     -11.931  15.695  69.515  1.00  0.00    -0.359 OA 
ENDROOT
BRANCH   2   3
HETATM    3  C   UNL     1     -12.226  14.702  68.541  1.00  0.00    -0.100 C  
BRANCH   3   4
HETATM    4  C   UNL     1     -11.366  13.434  68.669  1.00  0.00    -0.286 C  
HETATM    5  O   UNL     1     -10.214  13.476  69.096  1.00  0.00    -0.030 OA 
HETATM    6  N   UNL     1     -12.014  12.253  68.289  1.00  0.00    -0.294 N  
HETATM    7  H   UNL     1     -12.961  12.264  67.910  1.00  0.00     0.000 HD 
BRANCH   6   8
HETATM    8  C   UNL     1     -11.293  11.033  68.456  1.00  0.00    -0.287 A  
HETATM    9  C   UNL     1     -11.442  10.253  69.631  1.00  0.00    -0.235 A  
HETATM   10  C   UNL     1     -10.967   8.910  69.689  1.00  0.00    -0.132 A  
HETATM   11  I   UNL     1     -12.449  11.204  71.278  1.00  0.00    -0.238 I  
HETATM   12  C   UNL     1     -10.468  10.561  67.410  1.00  0.00    -0.244 A  
HETATM   13  C   UNL     1     -10.340   8.401  68.521  1.00  0.00    -0.200 A  
HETATM   14  I   UNL     1     -10.374   6.279  68.115  1.00  0.00    -0.365 I  
HETATM   15  I   UNL     1      -9.917  11.974  65.870  1.00  0.00    -0.262 I  
HETATM   16  C   UNL     1      -9.947   9.255  67.453  1.00  0.00    -0.253 A  
BRANCH  10  17
HETATM   17  C   UNL     1     -11.272   8.065  70.901  1.00  0.00    -0.266 C  
HETATM   18  O   UNL     1     -12.360   7.486  70.914  1.00  0.00    -0.266 OA 
HETATM   19  C   UNL     1      -9.041   8.459  72.106  1.00  0.00    -0.239 C  
HETATM   20  N   UNL     1     -10.409   7.967  72.011  1.00  0.00    -0.211 N  
BRANCH  20  21
HETATM   21  C   UNL     1     -10.904   7.288  73.240  1.00  0.00    -0.358 C  
BRANCH  21  22
HETATM   22  C   UNL     1     -10.128   5.985  73.562  1.00  0.00    -0.201 C  
HETATM   23  H   UNL     1     -10.452   4.291  74.544  1.00  0.00     0.000 HD 
HETATM   24  O   UNL     1     -10.929   5.089  74.347  1.00  0.00    -0.289 OA 
BRANCH  22  25
HETATM   25  C   UNL     1      -9.677   5.233  72.300  1.00  0.00    -0.158 C  
HETATM   26  H   UNL     1     -10.482   4.048  70.940  1.00  0.00     0.000 HD 
HETATM   27  O   UNL     1     -10.760   4.513  71.720  1.00  0.00    -0.031 OA 
ENDBRANCH  22  25
ENDBRANCH  21  22
ENDBRANCH  20  21
ENDBRANCH  10  17
BRANCH  16  28
HETATM   28  C   UNL     1      -8.969   8.803  66.414  1.00  0.00    -0.158 C  
HETATM   29  H   UNL     1      -7.413   8.754  67.821  1.00  0.00     0.000 HD 
HETATM   30  O   UNL     1      -9.293   8.640  65.249  1.00  0.00    -0.067 OA 
HETATM   31  N   UNL     1      -7.648   8.655  66.834  1.00  0.00    -0.084 N  
BRANCH  31  32
HETATM   32  C   UNL     1      -6.604   8.359  65.861  1.00  0.00    -0.053 C  
BRANCH  32  33
HETATM   33  C   UNL     1      -6.204   6.881  65.862  1.00  0.00    -0.039 C  
HETATM   34  O   UNL     1      -6.763   6.249  67.023  1.00  0.00    -0.056 OA 
HETATM   35  H   UNL     1      -6.514   5.331  67.024  1.00  0.00     0.000 HD 
BRANCH  33  36
HETATM   36  C   UNL     1      -6.678   6.176  64.580  1.00  0.00    -0.042 C  
HETATM   37  O   UNL     1      -8.097   6.037  64.548  1.00  0.00    -0.129 OA 
HETATM   38  H   UNL     1      -8.390   5.602  63.756  1.00  0.00     0.000 HD 
ENDBRANCH  33  36
ENDBRANCH  32  33
ENDBRANCH  31  32
ENDBRANCH  16  28
ENDBRANCH   6   8
ENDBRANCH   3   4
ENDBRANCH   2   3
TORSDOF 11
ENDMDL
MODEL       62
REMARK 921   NORMALIZED FREE ENERGY PREDICTED BY IDOCK:   -3.76 KCAL/MOL
REMARK 922        TOTAL FREE ENERGY PREDICTED BY IDOCK:   -7.30 KCAL/MOL
REMARK 923 INTER-LIGAND FREE ENERGY PREDICTED BY IDOCK:   -6.58 KCAL/MOL
REMARK 924 INTRA-LIGAND FREE ENERGY PREDICTED BY IDOCK:   -0.72 KCAL/MOL
REMARK 927      BINDING AFFINITY PREDICTED BY RF-SCORE:    0.00 PKD
ROOT
HETATM    1  C   UNL     1     -13.219   9.141  72.305  1.00  0.00    -0.461 C  
HETATM    2  O   UNL     1     -12.700   9.259  70.983  1.00  0.00    -0.270 OA 
ENDROOT
BRANCH   2   3
HETATM    3  C   UNL     1     -13.021  10.506  70.381  1.00  0.00    -0.144 C  
BRANCH   3   4
HETATM    4  C   UNL     1     -11.980  10.984  69.354  1.00  0.00    -0.337 C  
HETATM    5  O   UNL     1     -12.220  10.994  68.150  1.00  0.00    -0.578 OA 
HETATM    6  N   UNL     1     -10.773  11.422  69.913  1.00  0.00    -0.407 N  
HETATM    7  H   UNL     1     -10.601  11.367  70.917  1.00  0.00     0.000 HD 
BRANCH   6   8
HETATM    8  C   UNL     1      -9.795  11.947  69.017  1.00  0.00     0.139 A  
HETATM    9  C   UNL     1      -9.764  13.328  68.701  1.00  0.00    -0.069 A  
HETATM   10  C   UNL     1      -8.635  13.911  68.053  1.00  0.00    -0.178 A  
HETATM   11  I   UNL     1     -11.488  14.475  69.289  1.00  0.00    -0.390 I  
HETATM   12  C   UNL     1      -8.804  11.091  68.486  1.00  0.00    -0.159 A  
HETATM   13  C   UNL     1      -7.556  13.042  67.741  1.00  0.00    -0.152 A  
HETATM   14  I   UNL     1      -5.545  13.822  67.607  1.00  0.00     0.366 I  
HETATM   15  I   UNL     1      -9.159   8.963  68.617  1.00  0.00    -0.138 I  
HETATM   16  C   UNL     1      -7.696  11.628  67.804  1.00  0.00    -0.126 A  
BRANCH  10  17
HETATM   17  C   UNL     1      -8.574  15.407  67.865  1.00  0.00    -0.155 C  
HETATM   18  O   UNL     1      -7.984  16.052  68.734  1.00  0.00    -0.170 OA 
HETATM   19  C   UNL     1      -9.813  15.472  65.619  1.00  0.00    -0.342 C  
HETATM   20  N   UNL     1      -9.203  16.076  66.797  1.00  0.00    -0.225 N  
BRANCH  20  21
HETATM   21  C   UNL     1      -9.269  17.563  66.828  1.00  0.00    -0.265 C  
BRANCH  21  22
HETATM   22  C   UNL     1     -10.541  18.095  67.539  1.00  0.00    -0.401 C  
HETATM   23  H   UNL     1     -11.145  18.434  69.399  1.00  0.00     0.000 HD 
HETATM   24  O   UNL     1     -10.366  18.108  68.964  1.00  0.00    -0.337 OA 
BRANCH  22  25
HETATM   25  C   UNL     1     -10.921  19.515  67.096  1.00  0.00    -0.343 C  
HETATM   26  H   UNL     1     -10.486  20.751  65.618  1.00  0.00     0.000 HD 
HETATM   27  O   UNL     1     -10.251  19.873  65.892  1.00  0.00    -0.479 OA 
ENDBRANCH  22  25
ENDBRANCH  21  22
ENDBRANCH  20  21
ENDBRANCH  10  17
BRANCH  16  28
HETATM   28  C   UNL     1      -6.718  10.717  67.131  1.00  0.00    -0.084 C  
HETATM   29  H   UNL     1      -7.622  11.037  65.264  1.00  0.00     0.000 HD 
HETATM   30  O   UNL     1      -5.842  10.137  67.750  1.00  0.00    -0.042 OA 
HETATM   31  N   UNL     1      -6.912  10.506  65.766  1.00  0.00    -0.135 N  
BRANCH  31  32
HETATM   32  C   UNL     1      -6.098   9.526  65.058  1.00  0.00    -0.073 C  
BRANCH  32  33
HETATM   33  C   UNL     1      -6.945   8.486  64.318  1.00  0.00    -0.081 C  
HETATM   34  O   UNL     1      -6.491   7.173  64.680  1.00  0.00    -0.036 OA 
HETATM   35  H   UNL     1      -7.016   6.528  64.220  1.00  0.00     0.000 HD 
BRANCH  33  36
HETATM   36  C   UNL     1      -8.439   8.653  64.644  1.00  0.00    -0.132 C  
HETATM   37  O   UNL     1      -8.988   7.469  65.221  1.00  0.00    -0.377 OA 
HETATM   38  H   UNL     1      -9.911   7.572  65.422  1.00  0.00     0.000 HD 
ENDBRANCH  33  36
ENDBRANCH  32  33
ENDBRANCH  31  32
ENDBRANCH  16  28
ENDBRANCH   6   8
ENDBRANCH   3   4
ENDBRANCH   2   3
TORSDOF 11
ENDMDL
MODEL       63
REMARK 921   NORMALIZED FREE ENERGY PREDICTED BY IDOCK:   -3.75 KCAL/MOL
REMARK 922        TOTAL FREE ENERGY PREDICTED BY IDOCK:   -7.28 KCAL/MOL
REMARK 923 INTER-LIGAND FREE ENERGY PREDICTED BY IDOCK:   -6.27 KCAL/MOL
REMARK 924 INTRA-LIGAND FREE ENERGY PREDICTED BY IDOCK:   -1.01 KCAL/MOL
REMARK 927      BINDING AFFINITY PREDICTED BY RF-SCORE:    0.00 PKD
ROOT
HETATM    1  C   UNL     1     -14.075   8.068  71.733  1.00  0.00    -0.434 C  
HETATM    2  O   UNL     1     -13.276   9.222  71.488  1.00  0.00    -0.347 OA 
ENDROOT
BRANCH   2   3
HETATM    3  C   UNL     1     -11.903   9.007  71.786  1.00  0.00    -0.372 C  
BRANCH   3   4
HETATM    4  C   UNL     1     -10.950   9.427  70.654  1.00  0.00    -0.290 C  
HETATM    5  O   UNL     1      -9.764   9.668  70.866  1.00  0.00    -0.225 OA 
HETATM    6  N   UNL     1     -11.542   9.477  69.387  1.00  0.00    -0.425 N  
HETATM    7  H   UNL     1     -12.539   9.300  69.258  1.00  0.00     0.000 HD 
BRANCH   6   8
HETATM    8  C   UNL     1     -10.692   9.788  68.283  1.00  0.00    -0.233 A  
HETATM    9  C   UNL     1     -10.408  11.133  67.939  1.00  0.00    -0.185 A  
HETATM   10  C   UNL     1      -9.348  11.455  67.042  1.00  0.00    -0.183 A  
HETATM   11  I   UNL     1     -11.639  12.631  68.873  1.00  0.00    -0.364 I  
HETATM   12  C   UNL     1     -10.075   8.741  67.562  1.00  0.00    -0.222 A  
HETATM   13  C   UNL     1      -8.602  10.369  66.515  1.00  0.00    -0.130 A  
HETATM   14  I   UNL     1      -6.546  10.660  65.916  1.00  0.00     0.012 I  
HETATM   15  I   UNL     1     -10.883   6.752  67.815  1.00  0.00    -0.259 I  
HETATM   16  C   UNL     1      -9.052   9.025  66.638  1.00  0.00    -0.196 A  
BRANCH  10  17
HETATM   17  C   UNL     1      -8.981  12.901  66.812  1.00  0.00    -0.179 C  
HETATM   18  O   UNL     1      -9.570  13.484  65.900  1.00  0.00    -0.222 OA 
HETATM   19  C   UNL     1      -7.287  13.084  68.731  1.00  0.00    -0.064 C  
HETATM   20  N   UNL     1      -7.975  13.567  67.541  1.00  0.00    -0.171 N  
BRANCH  20  21
HETATM   21  C   UNL     1      -7.542  14.917  67.086  1.00  0.00    -0.110 C  
BRANCH  21  22
HETATM   22  C   UNL     1      -8.169  16.063  67.921  1.00  0.00    -0.148 C  
HETATM   23  H   UNL     1      -9.306  16.245  69.538  1.00  0.00     0.000 HD 
HETATM   24  O   UNL     1      -8.922  15.542  69.027  1.00  0.00    -0.201 OA 
BRANCH  22  25
HETATM   25  C   UNL     1      -7.119  17.035  68.481  1.00  0.00    -0.202 C  
HETATM   26  H   UNL     1      -5.982  17.190  70.088  1.00  0.00     0.000 HD 
HETATM   27  O   UNL     1      -6.631  16.589  69.742  1.00  0.00    -0.211 OA 
ENDBRANCH  22  25
ENDBRANCH  21  22
ENDBRANCH  20  21
ENDBRANCH  10  17
BRANCH  16  28
HETATM   28  C   UNL     1      -8.492   7.933  65.782  1.00  0.00    -0.140 C  
HETATM   29  H   UNL     1      -7.642   6.986  67.451  1.00  0.00     0.000 HD 
HETATM   30  O   UNL     1      -8.644   7.917  64.572  1.00  0.00     0.009 OA 
HETATM   31  N   UNL     1      -7.716   6.975  66.434  1.00  0.00    -0.101 N  
BRANCH  31  32
HETATM   32  C   UNL     1      -7.013   5.959  65.663  1.00  0.00    -0.068 C  
BRANCH  32  33
HETATM   33  C   UNL     1      -7.566   4.551  65.907  1.00  0.00    -0.086 C  
HETATM   34  O   UNL     1      -7.685   4.337  67.321  1.00  0.00    -0.080 OA 
HETATM   35  H   UNL     1      -8.028   3.464  67.473  1.00  0.00     0.000 HD 
BRANCH  33  36
HETATM   36  C   UNL     1      -8.924   4.360  65.212  1.00  0.00    -0.140 C  
HETATM   37  O   UNL     1      -8.970   5.024  63.951  1.00  0.00    -0.300 OA 
HETATM   38  H   UNL     1      -9.810   4.906  63.522  1.00  0.00     0.000 HD 
ENDBRANCH  33  36
ENDBRANCH  32  33
ENDBRANCH  31  32
ENDBRANCH  16  28
ENDBRANCH   6   8
ENDBRANCH   3   4
ENDBRANCH   2   3
TORSDOF 11
ENDMDL
MODEL       64
REMARK 921   NORMALIZED FREE ENERGY PREDICTED BY IDOCK:   -3.71 KCAL/MOL
REMARK 922        TOTAL FREE ENERGY PREDICTED BY IDOCK:   -7.23 KCAL/MOL
REMARK 923 INTER-LIGAND FREE ENERGY PREDICTED BY IDOCK:   -6.44 KCAL/MOL
REMARK 924 INTRA-LIGAND FREE ENERGY PREDICTED BY IDOCK:   -0.79 KCAL/MOL
REMARK 927      BINDING AFFINITY PREDICTED BY RF-SCORE:    0.00 PKD
ROOT
HETATM    1  C   UNL     1     -13.648   9.612  72.133  1.00  0.00    -0.389 C  
HETATM    2  O   UNL     1     -13.168   8.296  72.389  1.00  0.00    -0.253 OA 
ENDROOT
BRANCH   2   3
HETATM    3  C   UNL     1     -11.750   8.241  72.484  1.00  0.00    -0.383 C  
BRANCH   3   4
HETATM    4  C   UNL     1     -11.038   8.228  71.120  1.00  0.00    -0.250 C  
HETATM    5  O   UNL     1     -11.511   7.637  70.153  1.00  0.00    -0.199 OA 
HETATM    6  N   UNL     1      -9.845   8.959  71.082  1.00  0.00    -0.248 N  
HETATM    7  H   UNL     1      -9.470   9.409  71.917  1.00  0.00     0.000 HD 
BRANCH   6   8
HETATM    8  C   UNL     1      -9.176   9.046  69.825  1.00  0.00    -0.167 A  
HETATM    9  C   UNL     1      -9.511  10.057  68.890  1.00  0.00    -0.172 A  
HETATM   10  C   UNL     1      -8.669  10.337  67.774  1.00  0.00    -0.121 A  
HETATM   11  I   UNL     1     -11.326  11.146  69.282  1.00  0.00    -0.440 I  
HETATM   12  C   UNL     1      -8.121   8.152  69.532  1.00  0.00    -0.119 A  
HETATM   13  C   UNL     1      -7.491   9.556  67.648  1.00  0.00    -0.091 A  
HETATM   14  I   UNL     1      -5.760  10.366  66.639  1.00  0.00    -0.085 I  
HETATM   15  I   UNL     1      -7.959   6.377  70.755  1.00  0.00    -0.114 I  
HETATM   16  C   UNL     1      -7.294   8.374  68.415  1.00  0.00    -0.094 A  
BRANCH  10  17
HETATM   17  C   UNL     1      -8.981  11.515  66.883  1.00  0.00    -0.179 C  
HETATM   18  O   UNL     1      -8.769  12.635  67.351  1.00  0.00    -0.172 OA 
HETATM   19  C   UNL     1      -9.728  10.151  64.841  1.00  0.00    -0.324 C  
HETATM   20  N   UNL     1      -9.547  11.383  65.600  1.00  0.00    -0.226 N  
BRANCH  20  21
HETATM   21  C   UNL     1     -10.018  12.609  64.900  1.00  0.00    -0.146 C  
BRANCH  21  22
HETATM   22  C   UNL     1     -11.551  12.615  64.662  1.00  0.00    -0.342 C  
HETATM   23  H   UNL     1     -13.200  12.340  65.732  1.00  0.00     0.000 HD 
HETATM   24  O   UNL     1     -12.261  12.337  65.878  1.00  0.00    -0.634 OA 
BRANCH  22  25
HETATM   25  C   UNL     1     -12.063  13.955  64.112  1.00  0.00    -0.425 C  
HETATM   26  H   UNL     1     -13.465  15.274  64.552  1.00  0.00     0.000 HD 
HETATM   27  O   UNL     1     -13.149  14.446  64.892  1.00  0.00    -0.593 OA 
ENDBRANCH  22  25
ENDBRANCH  21  22
ENDBRANCH  20  21
ENDBRANCH  10  17
BRANCH  16  28
HETATM   28  C   UNL     1      -6.264   7.358  68.033  1.00  0.00    -0.043 C  
HETATM   29  H   UNL     1      -7.453   6.669  66.447  1.00  0.00     0.000 HD 
HETATM   30  O   UNL     1      -5.221   7.231  68.652  1.00  0.00    -0.019 OA 
HETATM   31  N   UNL     1      -6.596   6.511  66.976  1.00  0.00    -0.049 N  
BRANCH  31  32
HETATM   32  C   UNL     1      -5.717   5.402  66.628  1.00  0.00    -0.018 C  
BRANCH  32  33
HETATM   33  C   UNL     1      -6.421   4.045  66.721  1.00  0.00    -0.041 C  
HETATM   34  O   UNL     1      -5.811   3.140  65.789  1.00  0.00    -0.018 OA 
HETATM   35  H   UNL     1      -6.248   2.298  65.847  1.00  0.00     0.000 HD 
BRANCH  33  36
HETATM   36  C   UNL     1      -6.353   3.481  68.150  1.00  0.00    -0.036 C  
HETATM   37  O   UNL     1      -7.651   3.331  68.721  1.00  0.00    -0.049 OA 
HETATM   38  H   UNL     1      -7.608   2.982  69.604  1.00  0.00     0.000 HD 
ENDBRANCH  33  36
ENDBRANCH  32  33
ENDBRANCH  31  32
ENDBRANCH  16  28
ENDBRANCH   6   8
ENDBRANCH   3   4
ENDBRANCH   2   3
TORSDOF 11
ENDMDL
MODEL       65
REMARK 921   NORMALIZED FREE ENERGY PREDICTED BY IDOCK:   -3.71 KCAL/MOL
REMARK 922        TOTAL FREE ENERGY PREDICTED BY IDOCK:   -7.22 KCAL/MOL
REMARK 923 INTER-LIGAND FREE ENERGY PREDICTED BY IDOCK:   -5.99 KCAL/MOL
REMARK 924 INTRA-LIGAND FREE ENERGY PREDICTED BY IDOCK:   -1.23 KCAL/MOL
REMARK 927      BINDING AFFINITY PREDICTED BY RF-SCORE:    0.00 PKD
ROOT
HETATM    1  C   UNL     1      -7.520   3.870  66.403  1.00  0.00    -0.084 C  
HETATM    2  O   UNL     1      -6.386   4.670  66.079  1.00  0.00    -0.034 OA 
ENDROOT
BRANCH   2   3
HETATM    3  C   UNL     1      -6.729   5.817  65.313  1.00  0.00    -0.044 C  
BRANCH   3   4
HETATM    4  C   UNL     1      -7.568   6.849  66.086  1.00  0.00    -0.092 C  
HETATM    5  O   UNL     1      -8.775   6.972  65.894  1.00  0.00    -0.146 OA 
HETATM    6  N   UNL     1      -6.847   7.596  67.025  1.00  0.00    -0.066 N  
HETATM    7  H   UNL     1      -5.838   7.486  67.132  1.00  0.00     0.000 HD 
BRANCH   6   8
HETATM    8  C   UNL     1      -7.584   8.518  67.827  1.00  0.00    -0.098 A  
HETATM    9  C   UNL     1      -7.889   9.817  67.348  1.00  0.00    -0.099 A  
HETATM   10  C   UNL     1      -8.859  10.634  68.001  1.00  0.00    -0.130 A  
HETATM   11  I   UNL     1      -6.839  10.447  65.579  1.00  0.00     0.001 I  
HETATM   12  C   UNL     1      -8.070   8.112  69.090  1.00  0.00    -0.121 A  
HETATM   13  C   UNL     1      -9.492  10.084  69.147  1.00  0.00    -0.207 A  
HETATM   14  I   UNL     1     -11.482  10.728  69.694  1.00  0.00    -0.444 I  
HETATM   15  I   UNL     1      -7.205   6.331  69.958  1.00  0.00    -0.081 I  
HETATM   16  C   UNL     1      -8.997   8.912  69.783  1.00  0.00    -0.149 A  
BRANCH  10  17
HETATM   17  C   UNL     1      -9.264  11.949  67.381  1.00  0.00    -0.177 C  
HETATM   18  O   UNL     1     -10.155  11.909  66.531  1.00  0.00    -0.199 OA 
HETATM   19  C   UNL     1      -7.677  13.425  68.754  1.00  0.00    -0.037 C  
HETATM   20  N   UNL     1      -8.635  13.172  67.686  1.00  0.00    -0.179 N  
BRANCH  20  21
HETATM   21  C   UNL     1      -8.961  14.365  66.858  1.00  0.00    -0.243 C  
BRANCH  21  22
HETATM   22  C   UNL     1      -9.047  15.670  67.691  1.00  0.00    -0.192 C  
HETATM   23  H   UNL     1      -8.818  17.619  67.389  1.00  0.00     0.000 HD 
HETATM   24  O   UNL     1      -8.765  16.820  66.878  1.00  0.00    -0.194 OA 
BRANCH  22  25
HETATM   25  C   UNL     1     -10.427  15.876  68.335  1.00  0.00    -0.254 C  
HETATM   26  H   UNL     1     -11.727  17.344  68.567  1.00  0.00     0.000 HD 
HETATM   27  O   UNL     1     -10.874  17.217  68.169  1.00  0.00    -0.375 OA 
ENDBRANCH  22  25
ENDBRANCH  21  22
ENDBRANCH  20  21
ENDBRANCH  10  17
BRANCH  16  28
HETATM   28  C   UNL     1      -9.410   8.547  71.174  1.00  0.00    -0.196 C  
HETATM   29  H   UNL     1     -10.724   7.076  70.455  1.00  0.00     0.000 HD 
HETATM   30  O   UNL     1      -8.961   9.118  72.154  1.00  0.00    -0.315 OA 
HETATM   31  N   UNL     1     -10.398   7.569  71.286  1.00  0.00    -0.193 N  
BRANCH  31  32
HETATM   32  C   UNL     1     -10.964   7.252  72.592  1.00  0.00    -0.299 C  
BRANCH  32  33
HETATM   33  C   UNL     1     -12.488   7.397  72.621  1.00  0.00     0.258 C  
HETATM   34  O   UNL     1     -12.820   8.729  73.040  1.00  0.00    -0.629 OA 
HETATM   35  H   UNL     1     -13.767   8.819  73.059  1.00  0.00     0.000 HD 
BRANCH  33  36
HETATM   36  C   UNL     1     -13.101   7.094  71.243  1.00  0.00    -0.300 C  
HETATM   37  O   UNL     1     -14.319   7.807  71.039  1.00  0.00    -0.668 OA 
HETATM   38  H   UNL     1     -14.698   7.620  70.188  1.00  0.00     0.000 HD 
ENDBRANCH  33  36
ENDBRANCH  32  33
ENDBRANCH  31  32
ENDBRANCH  16  28
ENDBRANCH   6   8
ENDBRANCH   3   4
ENDBRANCH   2   3
TORSDOF 11
ENDMDL
MODEL       66
REMARK 921   NORMALIZED FREE ENERGY PREDICTED BY IDOCK:   -3.70 KCAL/MOL
REMARK 922        TOTAL FREE ENERGY PREDICTED BY IDOCK:   -7.20 KCAL/MOL
REMARK 923 INTER-LIGAND FREE ENERGY PREDICTED BY IDOCK:   -6.36 KCAL/MOL
REMARK 924 INTRA-LIGAND FREE ENERGY PREDICTED BY IDOCK:   -0.85 KCAL/MOL
REMARK 927      BINDING AFFINITY PREDICTED BY RF-SCORE:    0.00 PKD
ROOT
HETATM    1  C   UNL     1      -9.997   5.922  71.379  1.00  0.00    -0.185 C  
HETATM    2  O   UNL     1      -9.057   6.377  70.410  1.00  0.00    -0.153 OA 
ENDROOT
BRANCH   2   3
HETATM    3  C   UNL     1      -8.257   7.450  70.887  1.00  0.00    -0.114 C  
BRANCH   3   4
HETATM    4  C   UNL     1      -8.654   8.821  70.314  1.00  0.00    -0.152 C  
HETATM    5  O   UNL     1      -9.548   9.496  70.819  1.00  0.00    -0.259 OA 
HETATM    6  N   UNL     1      -7.900   9.227  69.207  1.00  0.00    -0.083 N  
HETATM    7  H   UNL     1      -7.187   8.622  68.798  1.00  0.00     0.000 HD 
BRANCH   6   8
HETATM    8  C   UNL     1      -8.171  10.523  68.676  1.00  0.00    -0.130 A  
HETATM    9  C   UNL     1      -9.232  10.727  67.758  1.00  0.00    -0.152 A  
HETATM   10  C   UNL     1      -9.697  12.039  67.449  1.00  0.00    -0.185 A  
HETATM   11  I   UNL     1     -10.104   8.953  66.908  1.00  0.00    -0.316 I  
HETATM   12  C   UNL     1      -7.412  11.631  69.116  1.00  0.00     0.003 A  
HETATM   13  C   UNL     1      -9.044  13.120  68.099  1.00  0.00    -0.200 A  
HETATM   14  I   UNL     1     -10.106  14.969  68.450  1.00  0.00    -0.241 I  
HETATM   15  I   UNL     1      -5.549  11.215  70.131  1.00  0.00    -0.144 I  
HETATM   16  C   UNL     1      -7.817  12.940  68.796  1.00  0.00     0.040 A  
BRANCH  10  17
HETATM   17  C   UNL     1     -10.921  12.211  66.583  1.00  0.00    -0.282 C  
HETATM   18  O   UNL     1     -12.013  12.166  67.152  1.00  0.00    -0.580 OA 
HETATM   19  C   UNL     1      -9.670  12.568  64.371  1.00  0.00     0.061 C  
HETATM   20  N   UNL     1     -10.862  12.353  65.183  1.00  0.00    -0.288 N  
BRANCH  20  21
HETATM   21  C   UNL     1     -12.131  12.292  64.407  1.00  0.00    -0.399 C  
BRANCH  21  22
HETATM   22  C   UNL     1     -12.814  13.676  64.260  1.00  0.00     0.204 C  
HETATM   23  H   UNL     1     -14.139  14.768  65.256  1.00  0.00     0.000 HD 
HETATM   24  O   UNL     1     -13.721  13.920  65.346  1.00  0.00    -0.352 OA 
BRANCH  22  25
HETATM   25  C   UNL     1     -11.807  14.836  64.216  1.00  0.00    -0.319 C  
HETATM   26  H   UNL     1     -11.827  16.773  63.834  1.00  0.00     0.000 HD 
HETATM   27  O   UNL     1     -12.449  16.056  63.861  1.00  0.00    -0.806 OA 
ENDBRANCH  22  25
ENDBRANCH  21  22
ENDBRANCH  20  21
ENDBRANCH  10  17
BRANCH  16  28
HETATM   28  C   UNL     1      -6.944  14.103  69.150  1.00  0.00    -0.111 C  
HETATM   29  H   UNL     1      -6.303  14.297  67.161  1.00  0.00     0.000 HD 
HETATM   30  O   UNL     1      -6.856  14.520  70.293  1.00  0.00    -0.120 OA 
HETATM   31  N   UNL     1      -6.176  14.635  68.115  1.00  0.00    -0.128 N  
BRANCH  31  32
HETATM   32  C   UNL     1      -5.192  15.672  68.398  1.00  0.00    -0.100 C  
BRANCH  32  33
HETATM   33  C   UNL     1      -5.452  16.957  67.605  1.00  0.00    -0.132 C  
HETATM   34  O   UNL     1      -6.328  16.658  66.509  1.00  0.00    -0.273 OA 
HETATM   35  H   UNL     1      -6.489  17.455  66.017  1.00  0.00     0.000 HD 
BRANCH  33  36
HETATM   36  C   UNL     1      -6.058  18.050  68.502  1.00  0.00    -0.191 C  
HETATM   37  O   UNL     1      -7.455  17.849  68.707  1.00  0.00    -0.274 OA 
HETATM   38  H   UNL     1      -7.829  18.524  69.261  1.00  0.00     0.000 HD 
ENDBRANCH  33  36
ENDBRANCH  32  33
ENDBRANCH  31  32
ENDBRANCH  16  28
ENDBRANCH   6   8
ENDBRANCH   3   4
ENDBRANCH   2   3
TORSDOF 11
ENDMDL
MODEL       67
REMARK 921   NORMALIZED FREE ENERGY PREDICTED BY IDOCK:   -3.65 KCAL/MOL
REMARK 922        TOTAL FREE ENERGY PREDICTED BY IDOCK:   -7.12 KCAL/MOL
REMARK 923 INTER-LIGAND FREE ENERGY PREDICTED BY IDOCK:   -6.79 KCAL/MOL
REMARK 924 INTRA-LIGAND FREE ENERGY PREDICTED BY IDOCK:   -0.33 KCAL/MOL
REMARK 927      BINDING AFFINITY PREDICTED BY RF-SCORE:    0.00 PKD
ROOT
HETATM    1  C   UNL     1      -6.586   6.422  71.548  1.00  0.00    -0.054 C  
HETATM    2  O   UNL     1      -7.337   6.982  70.474  1.00  0.00    -0.073 OA 
ENDROOT
BRANCH   2   3
HETATM    3  C   UNL     1      -6.614   7.978  69.764  1.00  0.00    -0.037 C  
BRANCH   3   4
HETATM    4  C   UNL     1      -7.397   9.287  69.563  1.00  0.00    -0.070 C  
HETATM    5  O   UNL     1      -8.170   9.713  70.417  1.00  0.00    -0.183 OA 
HETATM    6  N   UNL     1      -7.128   9.943  68.355  1.00  0.00    -0.072 N  
HETATM    7  H   UNL     1      -6.503   9.539  67.658  1.00  0.00     0.000 HD 
BRANCH   6   8
HETATM    8  C   UNL     1      -7.768  11.201  68.143  1.00  0.00    -0.107 A  
HETATM    9  C   UNL     1      -9.002  11.283  67.450  1.00  0.00    -0.144 A  
HETATM   10  C   UNL     1      -9.788  12.471  67.484  1.00  0.00    -0.198 A  
HETATM   11  I   UNL     1      -9.616   9.510  66.395  1.00  0.00    -0.338 I  
HETATM   12  C   UNL     1      -7.196  12.375  68.683  1.00  0.00    -0.104 A  
HETATM   13  C   UNL     1      -9.273  13.559  68.237  1.00  0.00    -0.195 A  
HETATM   14  I   UNL     1     -10.623  15.006  69.106  1.00  0.00    -0.267 I  
HETATM   15  I   UNL     1      -5.130  12.272  69.310  1.00  0.00    -0.072 I  
HETATM   16  C   UNL     1      -7.927  13.577  68.696  1.00  0.00    -0.073 A  
BRANCH  10  17
HETATM   17  C   UNL     1     -11.162  12.473  66.858  1.00  0.00    -0.303 C  
HETATM   18  O   UNL     1     -11.963  11.636  67.278  1.00  0.00    -0.627 OA 
HETATM   19  C   UNL     1     -10.767  14.462  65.286  1.00  0.00    -0.375 C  
HETATM   20  N   UNL     1     -11.527  13.331  65.802  1.00  0.00    -0.315 N  
BRANCH  20  21
HETATM   21  C   UNL     1     -12.827  13.099  65.114  1.00  0.00    -0.300 C  
BRANCH  21  22
HETATM   22  C   UNL     1     -12.660  12.443  63.719  1.00  0.00    -0.437 C  
HETATM   23  H   UNL     1     -12.318  13.033  61.854  1.00  0.00     0.000 HD 
HETATM   24  O   UNL     1     -12.420  13.435  62.709  1.00  0.00    -0.390 OA 
BRANCH  22  25
HETATM   25  C   UNL     1     -11.506  11.431  63.670  1.00  0.00    -0.137 C  
HETATM   26  H   UNL     1      -9.661  11.351  62.969  1.00  0.00     0.000 HD 
HETATM   27  O   UNL     1     -10.375  11.977  62.999  1.00  0.00    -0.333 OA 
ENDBRANCH  22  25
ENDBRANCH  21  22
ENDBRANCH  20  21
ENDBRANCH  10  17
BRANCH  16  28
HETATM   28  C   UNL     1      -7.274  14.846  69.148  1.00  0.00    -0.153 C  
HETATM   29  H   UNL     1      -7.372  15.650  67.211  1.00  0.00     0.000 HD 
HETATM   30  O   UNL     1      -6.917  15.014  70.302  1.00  0.00    -0.105 OA 
HETATM   31  N   UNL     1      -7.024  15.796  68.158  1.00  0.00    -0.112 N  
BRANCH  31  32
HETATM   32  C   UNL     1      -6.264  16.998  68.479  1.00  0.00    -0.149 C  
BRANCH  32  33
HETATM   33  C   UNL     1      -6.881  18.261  67.870  1.00  0.00    -0.213 C  
HETATM   34  O   UNL     1      -5.882  18.939  67.095  1.00  0.00    -0.157 OA 
HETATM   35  H   UNL     1      -6.265  19.723  66.718  1.00  0.00     0.000 HD 
BRANCH  33  36
HETATM   36  C   UNL     1      -8.103  17.918  67.000  1.00  0.00    -0.221 C  
HETATM   37  O   UNL     1      -8.271  18.853  65.936  1.00  0.00    -0.477 OA 
HETATM   38  H   UNL     1      -9.026  18.642  65.399  1.00  0.00     0.000 HD 
ENDBRANCH  33  36
ENDBRANCH  32  33
ENDBRANCH  31  32
ENDBRANCH  16  28
ENDBRANCH   6   8
ENDBRANCH   3   4
ENDBRANCH   2   3
TORSDOF 11
ENDMDL
MODEL       68
REMARK 921   NORMALIZED FREE ENERGY PREDICTED BY IDOCK:   -3.61 KCAL/MOL
REMARK 922        TOTAL FREE ENERGY PREDICTED BY IDOCK:   -7.05 KCAL/MOL
REMARK 923 INTER-LIGAND FREE ENERGY PREDICTED BY IDOCK:   -5.74 KCAL/MOL
REMARK 924 INTRA-LIGAND FREE ENERGY PREDICTED BY IDOCK:   -1.31 KCAL/MOL
REMARK 927      BINDING AFFINITY PREDICTED BY RF-SCORE:    0.00 PKD
ROOT
HETATM    1  C   UNL     1     -10.594   4.179  74.452  1.00  0.00    -0.208 C  
HETATM    2  O   UNL     1     -11.054   3.448  73.319  1.00  0.00    -0.186 OA 
ENDROOT
BRANCH   2   3
HETATM    3  C   UNL     1     -10.008   3.140  72.407  1.00  0.00    -0.164 C  
BRANCH   3   4
HETATM    4  C   UNL     1      -9.556   4.338  71.555  1.00  0.00    -0.165 C  
HETATM    5  O   UNL     1      -8.537   4.970  71.822  1.00  0.00    -0.125 OA 
HETATM    6  N   UNL     1     -10.381   4.613  70.459  1.00  0.00    -0.130 N  
HETATM    7  H   UNL     1     -11.236   4.084  70.290  1.00  0.00     0.000 HD 
BRANCH   6   8
HETATM    8  C   UNL     1      -9.973   5.667  69.587  1.00  0.00    -0.203 A  
HETATM    9  C   UNL     1     -10.366   7.007  69.831  1.00  0.00    -0.210 A  
HETATM   10  C   UNL     1      -9.738   8.093  69.154  1.00  0.00    -0.163 A  
HETATM   11  I   UNL     1     -11.917   7.289  71.296  1.00  0.00    -0.386 I  
HETATM   12  C   UNL     1      -9.116   5.382  68.500  1.00  0.00    -0.108 A  
HETATM   13  C   UNL     1      -8.713   7.765  68.228  1.00  0.00    -0.127 A  
HETATM   14  I   UNL     1      -7.137   9.184  67.813  1.00  0.00    -0.079 I  
HETATM   15  I   UNL     1      -8.928   3.313  67.904  1.00  0.00    -0.246 I  
HETATM   16  C   UNL     1      -8.511   6.429  67.781  1.00  0.00    -0.117 A  
BRANCH  10  17
HETATM   17  C   UNL     1     -10.078   9.511  69.545  1.00  0.00    -0.206 C  
HETATM   18  O   UNL     1      -9.791   9.852  70.694  1.00  0.00    -0.186 OA 
HETATM   19  C   UNL     1     -11.029  10.225  67.271  1.00  0.00    -0.210 C  
HETATM   20  N   UNL     1     -10.747  10.408  68.689  1.00  0.00    -0.204 N  
BRANCH  20  21
HETATM   21  C   UNL     1     -11.229  11.701  69.249  1.00  0.00    -0.265 C  
BRANCH  21  22
HETATM   22  C   UNL     1     -11.135  12.869  68.233  1.00  0.00    -0.264 C  
HETATM   23  H   UNL     1     -12.075  14.581  67.879  1.00  0.00     0.000 HD 
HETATM   24  O   UNL     1     -12.133  13.865  68.502  1.00  0.00    -0.362 OA 
BRANCH  22  25
HETATM   25  C   UNL     1      -9.763  13.559  68.244  1.00  0.00    -0.224 C  
HETATM   26  H   UNL     1      -8.258  13.838  66.996  1.00  0.00     0.000 HD 
HETATM   27  O   UNL     1      -9.106  13.411  66.990  1.00  0.00    -0.228 OA 
ENDBRANCH  22  25
ENDBRANCH  21  22
ENDBRANCH  20  21
ENDBRANCH  10  17
BRANCH  16  28
HETATM   28  C   UNL     1      -7.710   6.131  66.553  1.00  0.00    -0.103 C  
HETATM   29  H   UNL     1      -9.335   6.605  65.312  1.00  0.00     0.000 HD 
HETATM   30  O   UNL     1      -6.554   5.747  66.612  1.00  0.00    -0.052 OA 
HETATM   31  N   UNL     1      -8.384   6.239  65.337  1.00  0.00    -0.148 N  
BRANCH  31  32
HETATM   32  C   UNL     1      -7.727   5.830  64.102  1.00  0.00    -0.097 C  
BRANCH  32  33
HETATM   33  C   UNL     1      -7.589   6.981  63.102  1.00  0.00    -0.104 C  
HETATM   34  O   UNL     1      -8.411   8.075  63.536  1.00  0.00    -0.391 OA 
HETATM   35  H   UNL     1      -8.326   8.790  62.915  1.00  0.00     0.000 HD 
BRANCH  33  36
HETATM   36  C   UNL     1      -6.123   7.425  62.966  1.00  0.00    -0.054 C  
HETATM   37  O   UNL     1      -5.335   6.989  64.072  1.00  0.00    -0.027 OA 
HETATM   38  H   UNL     1      -4.429   7.264  63.988  1.00  0.00     0.000 HD 
ENDBRANCH  33  36
ENDBRANCH  32  33
ENDBRANCH  31  32
ENDBRANCH  16  28
ENDBRANCH   6   8
ENDBRANCH   3   4
ENDBRANCH   2   3
TORSDOF 11
ENDMDL
MODEL       69
REMARK 921   NORMALIZED FREE ENERGY PREDICTED BY IDOCK:   -3.58 KCAL/MOL
REMARK 922        TOTAL FREE ENERGY PREDICTED BY IDOCK:   -7.01 KCAL/MOL
REMARK 923 INTER-LIGAND FREE ENERGY PREDICTED BY IDOCK:   -6.51 KCAL/MOL
REMARK 924 INTRA-LIGAND FREE ENERGY PREDICTED BY IDOCK:   -0.50 KCAL/MOL
REMARK 927      BINDING AFFINITY PREDICTED BY RF-SCORE:    0.00 PKD
ROOT
HETATM    1  C   UNL     1      -6.057   9.316  63.262  1.00  0.00    -0.090 C  
HETATM    2  O   UNL     1      -7.431   9.292  63.639  1.00  0.00    -0.102 OA 
ENDROOT
BRANCH   2   3
HETATM    3  C   UNL     1      -7.758  10.313  64.572  1.00  0.00    -0.107 C  
BRANCH   3   4
HETATM    4  C   UNL     1      -8.910   9.940  65.522  1.00  0.00    -0.159 C  
HETATM    5  O   UNL     1     -10.009   9.594  65.096  1.00  0.00    -0.263 OA 
HETATM    6  N   UNL     1      -8.584  10.003  66.881  1.00  0.00    -0.125 N  
HETATM    7  H   UNL     1      -7.668  10.326  67.195  1.00  0.00     0.000 HD 
BRANCH   6   8
HETATM    8  C   UNL     1      -9.587   9.596  67.810  1.00  0.00    -0.139 A  
HETATM    9  C   UNL     1      -9.668   8.252  68.253  1.00  0.00    -0.158 A  
HETATM   10  C   UNL     1     -10.461   7.895  69.383  1.00  0.00    -0.222 A  
HETATM   11  I   UNL     1      -8.503   6.818  67.149  1.00  0.00    -0.124 I  
HETATM   12  C   UNL     1     -10.474  10.557  68.345  1.00  0.00    -0.186 A  
HETATM   13  C   UNL     1     -11.161   8.945  70.032  1.00  0.00    -0.110 A  
HETATM   14  I   UNL     1     -11.641   8.787  72.133  1.00  0.00    -0.209 I  
HETATM   15  I   UNL     1     -10.617  12.453  67.317  1.00  0.00    -0.283 I  
HETATM   16  C   UNL     1     -11.302  10.228  69.434  1.00  0.00    -0.279 A  
BRANCH  10  17
HETATM   17  C   UNL     1     -10.408   6.483  69.914  1.00  0.00    -0.191 C  
HETATM   18  O   UNL     1     -11.316   5.726  69.567  1.00  0.00    -0.261 OA 
HETATM   19  C   UNL     1      -8.208   6.738  71.211  1.00  0.00    -0.119 C  
HETATM   20  N   UNL     1      -9.421   6.034  70.813  1.00  0.00    -0.167 N  
BRANCH  20  21
HETATM   21  C   UNL     1      -9.589   4.695  71.444  1.00  0.00    -0.166 C  
BRANCH  21  22
HETATM   22  C   UNL     1     -10.005   4.781  72.935  1.00  0.00    -0.155 C  
HETATM   23  H   UNL     1     -11.678   5.018  73.977  1.00  0.00     0.000 HD 
HETATM   24  O   UNL     1     -11.423   4.965  73.064  1.00  0.00    -0.293 OA 
BRANCH  22  25
HETATM   25  C   UNL     1      -9.617   3.529  73.735  1.00  0.00    -0.102 C  
HETATM   26  H   UNL     1      -8.199   2.983  74.997  1.00  0.00     0.000 HD 
HETATM   27  O   UNL     1      -8.439   3.757  74.502  1.00  0.00    -0.087 OA 
ENDBRANCH  22  25
ENDBRANCH  21  22
ENDBRANCH  20  21
ENDBRANCH  10  17
BRANCH  16  28
HETATM   28  C   UNL     1     -12.332  11.203  69.914  1.00  0.00    -0.261 C  
HETATM   29  H   UNL     1     -10.856  12.630  70.350  1.00  0.00     0.000 HD 
HETATM   30  O   UNL     1     -13.521  10.933  69.929  1.00  0.00     0.287 OA 
HETATM   31  N   UNL     1     -11.849  12.411  70.417  1.00  0.00    -0.250 N  
BRANCH  31  32
HETATM   32  C   UNL     1     -12.766  13.360  71.036  1.00  0.00    -0.307 C  
BRANCH  32  33
HETATM   33  C   UNL     1     -12.581  14.785  70.506  1.00  0.00    -0.359 C  
HETATM   34  O   UNL     1     -13.778  15.534  70.763  1.00  0.00    -0.838 OA 
HETATM   35  H   UNL     1     -13.664  16.419  70.434  1.00  0.00     0.000 HD 
BRANCH  33  36
HETATM   36  C   UNL     1     -11.365  15.466  71.155  1.00  0.00    -0.378 C  
HETATM   37  O   UNL     1     -10.290  15.618  70.230  1.00  0.00    -0.307 OA 
HETATM   38  H   UNL     1      -9.538  16.039  70.631  1.00  0.00     0.000 HD 
ENDBRANCH  33  36
ENDBRANCH  32  33
ENDBRANCH  31  32
ENDBRANCH  16  28
ENDBRANCH   6   8
ENDBRANCH   3   4
ENDBRANCH   2   3
TORSDOF 11
ENDMDL
MODEL       70
REMARK 921   NORMALIZED FREE ENERGY PREDICTED BY IDOCK:   -3.55 KCAL/MOL
REMARK 922        TOTAL FREE ENERGY PREDICTED BY IDOCK:   -6.96 KCAL/MOL
REMARK 923 INTER-LIGAND FREE ENERGY PREDICTED BY IDOCK:   -6.30 KCAL/MOL
REMARK 924 INTRA-LIGAND FREE ENERGY PREDICTED BY IDOCK:   -0.66 KCAL/MOL
REMARK 927      BINDING AFFINITY PREDICTED BY RF-SCORE:    0.00 PKD
ROOT
HETATM    1  C   UNL     1      -7.274   7.062  70.868  1.00  0.00    -0.072 C  
HETATM    2  O   UNL     1      -7.067   8.407  71.291  1.00  0.00    -0.057 OA 
ENDROOT
BRANCH   2   3
HETATM    3  C   UNL     1      -5.938   9.006  70.669  1.00  0.00    -0.038 C  
BRANCH   3   4
HETATM    4  C   UNL     1      -6.300  10.035  69.585  1.00  0.00    -0.053 C  
HETATM    5  O   UNL     1      -5.793   9.999  68.467  1.00  0.00    -0.042 OA 
HETATM    6  N   UNL     1      -7.262  10.975  69.976  1.00  0.00    -0.317 N  
HETATM    7  H   UNL     1      -7.636  10.990  70.925  1.00  0.00     0.000 HD 
BRANCH   6   8
HETATM    8  C   UNL     1      -7.695  11.910  68.989  1.00  0.00     0.066 A  
HETATM    9  C   UNL     1      -8.739  11.586  68.087  1.00  0.00    -0.157 A  
HETATM   10  C   UNL     1      -9.375  12.593  67.303  1.00  0.00    -0.195 A  
HETATM   11  I   UNL     1      -9.315   9.514  68.009  1.00  0.00    -0.154 I  
HETATM   12  C   UNL     1      -7.120  13.201  68.951  1.00  0.00    -0.075 A  
HETATM   13  C   UNL     1      -8.909  13.924  67.471  1.00  0.00    -0.196 A  
HETATM   14  I   UNL     1     -10.238  15.588  67.100  1.00  0.00    -0.276 I  
HETATM   15  I   UNL     1      -5.257  13.487  70.009  1.00  0.00    -0.110 I  
HETATM   16  C   UNL     1      -7.696  14.210  68.157  1.00  0.00    -0.140 A  
BRANCH  10  17
HETATM   17  C   UNL     1     -10.577  12.236  66.464  1.00  0.00    -0.234 C  
HETATM   18  O   UNL     1     -11.665  12.199  67.042  1.00  0.00    -0.477 OA 
HETATM   19  C   UNL     1      -9.326  12.019  64.234  1.00  0.00     0.276 C  
HETATM   20  N   UNL     1     -10.491  11.892  65.101  1.00  0.00    -0.276 N  
BRANCH  20  21
HETATM   21  C   UNL     1     -11.701  11.343  64.428  1.00  0.00     0.082 C  
BRANCH  21  22
HETATM   22  C   UNL     1     -12.292  12.310  63.369  1.00  0.00    -0.517 C  
HETATM   23  H   UNL     1     -14.007  12.549  62.399  1.00  0.00     0.000 HD 
HETATM   24  O   UNL     1     -13.645  11.956  63.047  1.00  0.00    -0.104 OA 
BRANCH  22  25
HETATM   25  C   UNL     1     -12.284  13.775  63.831  1.00  0.00    -0.351 C  
HETATM   26  H   UNL     1     -13.160  14.874  65.220  1.00  0.00     0.000 HD 
HETATM   27  O   UNL     1     -13.165  13.968  64.934  1.00  0.00    -0.593 OA 
ENDBRANCH  22  25
ENDBRANCH  21  22
ENDBRANCH  20  21
ENDBRANCH  10  17
BRANCH  16  28
HETATM   28  C   UNL     1      -7.013  15.534  68.016  1.00  0.00    -0.132 C  
HETATM   29  H   UNL     1      -7.821  16.205  69.833  1.00  0.00     0.000 HD 
HETATM   30  O   UNL     1      -6.321  15.804  67.049  1.00  0.00    -0.308 OA 
HETATM   31  N   UNL     1      -7.276  16.472  69.013  1.00  0.00    -0.209 N  
BRANCH  31  32
HETATM   32  C   UNL     1      -6.770  17.832  68.884  1.00  0.00    -0.237 C  
BRANCH  32  33
HETATM   33  C   UNL     1      -7.756  18.758  68.164  1.00  0.00    -0.285 C  
HETATM   34  O   UNL     1      -8.963  18.841  68.936  1.00  0.00    -0.297 OA 
HETATM   35  H   UNL     1      -9.575  19.415  68.489  1.00  0.00     0.000 HD 
BRANCH  33  36
HETATM   36  C   UNL     1      -7.151  20.156  67.952  1.00  0.00    -0.290 C  
HETATM   37  O   UNL     1      -7.957  20.954  67.088  1.00  0.00    -0.535 OA 
HETATM   38  H   UNL     1      -7.583  21.818  66.957  1.00  0.00     0.000 HD 
ENDBRANCH  33  36
ENDBRANCH  32  33
ENDBRANCH  31  32
ENDBRANCH  16  28
ENDBRANCH   6   8
ENDBRANCH   3   4
ENDBRANCH   2   3
TORSDOF 11
ENDMDL
MODEL       71
REMARK 921   NORMALIZED FREE ENERGY PREDICTED BY IDOCK:   -3.53 KCAL/MOL
REMARK 922        TOTAL FREE ENERGY PREDICTED BY IDOCK:   -6.93 KCAL/MOL
REMARK 923 INTER-LIGAND FREE ENERGY PREDICTED BY IDOCK:   -6.19 KCAL/MOL
REMARK 924 INTRA-LIGAND FREE ENERGY PREDICTED BY IDOCK:   -0.73 KCAL/MOL
REMARK 927      BINDING AFFINITY PREDICTED BY RF-SCORE:    0.00 PKD
ROOT
HETATM    1  C   UNL     1      -5.569  17.959  69.972  1.00  0.00    -0.241 C  
HETATM    2  O   UNL     1      -5.897  16.999  68.971  1.00  0.00    -0.150 OA 
ENDROOT
BRANCH   2   3
HETATM    3  C   UNL     1      -5.469  15.687  69.312  1.00  0.00    -0.102 C  
BRANCH   3   4
HETATM    4  C   UNL     1      -6.187  14.577  68.526  1.00  0.00    -0.089 C  
HETATM    5  O   UNL     1      -5.916  14.340  67.352  1.00  0.00    -0.346 OA 
HETATM    6  N   UNL     1      -7.136  13.863  69.267  1.00  0.00    -0.251 N  
HETATM    7  H   UNL     1      -7.355  14.113  70.232  1.00  0.00     0.000 HD 
BRANCH   6   8
HETATM    8  C   UNL     1      -7.783  12.772  68.616  1.00  0.00    -0.064 A  
HETATM    9  C   UNL     1      -7.190  11.485  68.587  1.00  0.00    -0.102 A  
HETATM   10  C   UNL     1      -7.942  10.335  68.206  1.00  0.00    -0.106 A  
HETATM   11  I   UNL     1      -5.125  11.379  69.186  1.00  0.00    -0.043 I  
HETATM   12  C   UNL     1      -9.062  12.959  68.044  1.00  0.00    -0.211 A  
HETATM   13  C   UNL     1      -9.302  10.546  67.855  1.00  0.00    -0.143 A  
HETATM   14  I   UNL     1     -10.744   8.958  68.116  1.00  0.00     0.120 I  
HETATM   15  I   UNL     1      -9.707  14.995  67.705  1.00  0.00    -0.219 I  
HETATM   16  C   UNL     1      -9.817  11.851  67.618  1.00  0.00    -0.192 A  
BRANCH  10  17
HETATM   17  C   UNL     1      -7.321   8.965  68.328  1.00  0.00    -0.083 C  
HETATM   18  O   UNL     1      -7.408   8.413  69.426  1.00  0.00    -0.067 OA 
HETATM   19  C   UNL     1      -6.536   8.778  65.892  1.00  0.00    -0.057 C  
HETATM   20  N   UNL     1      -6.614   8.342  67.280  1.00  0.00    -0.058 N  
BRANCH  20  21
HETATM   21  C   UNL     1      -5.856   7.095  67.576  1.00  0.00    -0.025 C  
BRANCH  21  22
HETATM   22  C   UNL     1      -6.600   5.815  67.115  1.00  0.00    -0.056 C  
HETATM   23  H   UNL     1      -6.145   4.091  66.242  1.00  0.00     0.000 HD 
HETATM   24  O   UNL     1      -5.689   4.876  66.524  1.00  0.00    -0.017 OA 
BRANCH  22  25
HETATM   25  C   UNL     1      -7.332   5.105  68.263  1.00  0.00    -0.071 C  
HETATM   26  H   UNL     1      -9.191   4.650  68.751  1.00  0.00     0.000 HD 
HETATM   27  O   UNL     1      -8.738   5.089  68.041  1.00  0.00    -0.103 OA 
ENDBRANCH  22  25
ENDBRANCH  21  22
ENDBRANCH  20  21
ENDBRANCH  10  17
BRANCH  16  28
HETATM   28  C   UNL     1     -11.111  12.058  66.895  1.00  0.00    -0.302 C  
HETATM   29  H   UNL     1     -10.141  12.015  65.034  1.00  0.00     0.000 HD 
HETATM   30  O   UNL     1     -12.169  12.190  67.488  1.00  0.00    -0.474 OA 
HETATM   31  N   UNL     1     -11.030  12.173  65.508  1.00  0.00    -0.291 N  
BRANCH  31  32
HETATM   32  C   UNL     1     -12.217  12.519  64.736  1.00  0.00    -0.465 C  
BRANCH  32  33
HETATM   33  C   UNL     1     -11.953  13.641  63.727  1.00  0.00    -0.377 C  
HETATM   34  O   UNL     1     -12.727  13.393  62.544  1.00  0.00    -0.240 OA 
HETATM   35  H   UNL     1     -12.563  14.089  61.917  1.00  0.00     0.000 HD 
BRANCH  33  36
HETATM   36  C   UNL     1     -12.299  15.016  64.323  1.00  0.00    -0.226 C  
HETATM   37  O   UNL     1     -11.349  16.009  63.943  1.00  0.00    -1.143 OA 
HETATM   38  H   UNL     1     -11.563  16.859  64.311  1.00  0.00     0.000 HD 
ENDBRANCH  33  36
ENDBRANCH  32  33
ENDBRANCH  31  32
ENDBRANCH  16  28
ENDBRANCH   6   8
ENDBRANCH   3   4
ENDBRANCH   2   3
TORSDOF 11
ENDMDL
MODEL       72
REMARK 921   NORMALIZED FREE ENERGY PREDICTED BY IDOCK:   -3.50 KCAL/MOL
REMARK 922        TOTAL FREE ENERGY PREDICTED BY IDOCK:   -6.88 KCAL/MOL
REMARK 923 INTER-LIGAND FREE ENERGY PREDICTED BY IDOCK:   -6.47 KCAL/MOL
REMARK 924 INTRA-LIGAND FREE ENERGY PREDICTED BY IDOCK:   -0.41 KCAL/MOL
REMARK 927      BINDING AFFINITY PREDICTED BY RF-SCORE:    0.00 PKD
ROOT
HETATM    1  C   UNL     1      -5.853   4.944  65.439  1.00  0.00    -0.018 C  
HETATM    2  O   UNL     1      -5.923   6.184  64.740  1.00  0.00    -0.024 OA 
ENDROOT
BRANCH   2   3
HETATM    3  C   UNL     1      -5.961   7.303  65.617  1.00  0.00    -0.037 C  
BRANCH   3   4
HETATM    4  C   UNL     1      -7.383   7.703  66.048  1.00  0.00    -0.077 C  
HETATM    5  O   UNL     1      -8.373   7.346  65.415  1.00  0.00    -0.132 OA 
HETATM    6  N   UNL     1      -7.439   8.470  67.218  1.00  0.00    -0.092 N  
HETATM    7  H   UNL     1      -6.591   8.773  67.697  1.00  0.00     0.000 HD 
BRANCH   6   8
HETATM    8  C   UNL     1      -8.734   8.810  67.711  1.00  0.00    -0.136 A  
HETATM    9  C   UNL     1      -9.414   7.960  68.619  1.00  0.00    -0.149 A  
HETATM   10  C   UNL     1     -10.558   8.414  69.338  1.00  0.00    -0.204 A  
HETATM   11  I   UNL     1      -8.595   5.985  68.864  1.00  0.00    -0.114 I  
HETATM   12  C   UNL     1      -9.322  10.040  67.338  1.00  0.00    -0.148 A  
HETATM   13  C   UNL     1     -10.978   9.749  69.096  1.00  0.00    -0.175 A  
HETATM   14  I   UNL     1     -12.036  10.844  70.630  1.00  0.00    -0.432 I  
HETATM   15  I   UNL     1      -8.482  11.062  65.629  1.00  0.00     0.121 I  
HETATM   16  C   UNL     1     -10.476  10.502  67.998  1.00  0.00    -0.232 A  
BRANCH  10  17
HETATM   17  C   UNL     1     -11.167   7.535  70.402  1.00  0.00    -0.253 C  
HETATM   18  O   UNL     1     -12.112   6.822  70.058  1.00  0.00    -0.242 OA 
HETATM   19  C   UNL     1      -9.569   8.209  72.293  1.00  0.00    -0.251 C  
HETATM   20  N   UNL     1     -10.747   7.546  71.747  1.00  0.00    -0.210 N  
BRANCH  20  21
HETATM   21  C   UNL     1     -11.558   6.808  72.753  1.00  0.00    -0.066 C  
BRANCH  21  22
HETATM   22  C   UNL     1     -11.064   5.355  72.975  1.00  0.00    -0.313 C  
HETATM   23  H   UNL     1      -9.992   4.005  71.990  1.00  0.00     0.000 HD 
HETATM   24  O   UNL     1     -10.294   4.895  71.853  1.00  0.00    -0.200 OA 
BRANCH  22  25
HETATM   25  C   UNL     1     -10.197   5.206  74.235  1.00  0.00    -0.262 C  
HETATM   26  H   UNL     1      -9.290   3.756  75.221  1.00  0.00     0.000 HD 
HETATM   27  O   UNL     1      -9.826   3.847  74.443  1.00  0.00    -0.114 OA 
ENDBRANCH  22  25
ENDBRANCH  21  22
ENDBRANCH  20  21
ENDBRANCH  10  17
BRANCH  16  28
HETATM   28  C   UNL     1     -11.171  11.736  67.516  1.00  0.00    -0.291 C  
HETATM   29  H   UNL     1      -9.936  12.957  68.696  1.00  0.00     0.000 HD 
HETATM   30  O   UNL     1     -12.102  11.689  66.730  1.00  0.00    -0.472 OA 
HETATM   31  N   UNL     1     -10.746  12.940  68.076  1.00  0.00    -0.222 N  
BRANCH  31  32
HETATM   32  C   UNL     1     -11.459  14.175  67.775  1.00  0.00    -0.325 C  
BRANCH  32  33
HETATM   33  C   UNL     1     -11.594  15.087  68.999  1.00  0.00    -0.319 C  
HETATM   34  O   UNL     1     -11.012  14.431  70.134  1.00  0.00    -0.460 OA 
HETATM   35  H   UNL     1     -11.096  14.996  70.894  1.00  0.00     0.000 HD 
BRANCH  33  36
HETATM   36  C   UNL     1     -10.921  16.448  68.754  1.00  0.00    -0.344 C  
HETATM   37  O   UNL     1     -10.348  16.526  67.450  1.00  0.00    -0.279 OA 
HETATM   38  H   UNL     1      -9.932  17.367  67.299  1.00  0.00     0.000 HD 
ENDBRANCH  33  36
ENDBRANCH  32  33
ENDBRANCH  31  32
ENDBRANCH  16  28
ENDBRANCH   6   8
ENDBRANCH   3   4
ENDBRANCH   2   3
TORSDOF 11
ENDMDL
MODEL       73
REMARK 921   NORMALIZED FREE ENERGY PREDICTED BY IDOCK:   -3.48 KCAL/MOL
REMARK 922        TOTAL FREE ENERGY PREDICTED BY IDOCK:   -6.85 KCAL/MOL
REMARK 923 INTER-LIGAND FREE ENERGY PREDICTED BY IDOCK:   -6.15 KCAL/MOL
REMARK 924 INTRA-LIGAND FREE ENERGY PREDICTED BY IDOCK:   -0.69 KCAL/MOL
REMARK 927      BINDING AFFINITY PREDICTED BY RF-SCORE:    0.00 PKD
ROOT
HETATM    1  C   UNL     1     -11.196   5.456  73.196  1.00  0.00    -0.297 C  
HETATM    2  O   UNL     1     -10.738   6.779  73.459  1.00  0.00    -0.309 OA 
ENDROOT
BRANCH   2   3
HETATM    3  C   UNL     1     -11.479   7.764  72.752  1.00  0.00    -0.359 C  
BRANCH   3   4
HETATM    4  C   UNL     1     -10.987   7.996  71.313  1.00  0.00    -0.236 C  
HETATM    5  O   UNL     1     -11.525   7.451  70.353  1.00  0.00    -0.279 OA 
HETATM    6  N   UNL     1      -9.913   8.887  71.205  1.00  0.00    -0.245 N  
HETATM    7  H   UNL     1      -9.474   9.295  72.031  1.00  0.00     0.000 HD 
BRANCH   6   8
HETATM    8  C   UNL     1      -9.459   9.201  69.889  1.00  0.00    -0.186 A  
HETATM    9  C   UNL     1     -10.033  10.270  69.156  1.00  0.00    -0.222 A  
HETATM   10  C   UNL     1      -9.406  10.778  67.981  1.00  0.00    -0.152 A  
HETATM   11  I   UNL     1     -11.862  11.086  69.945  1.00  0.00    -0.487 I  
HETATM   12  C   UNL     1      -8.380   8.478  69.332  1.00  0.00    -0.119 A  
HETATM   13  C   UNL     1      -8.190  10.160  67.585  1.00  0.00    -0.110 A  
HETATM   14  I   UNL     1      -6.725  11.281  66.460  1.00  0.00     0.082 I  
HETATM   15  I   UNL     1      -7.858   6.601  70.268  1.00  0.00    -0.110 I  
HETATM   16  C   UNL     1      -7.762   8.926  68.150  1.00  0.00    -0.100 A  
BRANCH  10  17
HETATM   17  C   UNL     1      -9.966  12.008  67.310  1.00  0.00    -0.194 C  
HETATM   18  O   UNL     1     -10.816  11.825  66.437  1.00  0.00    -0.259 OA 
HETATM   19  C   UNL     1      -8.638  13.723  68.682  1.00  0.00    -0.057 C  
HETATM   20  N   UNL     1      -9.519  13.313  67.595  1.00  0.00    -0.203 N  
BRANCH  20  21
HETATM   21  C   UNL     1      -9.977  14.429  66.723  1.00  0.00    -0.263 C  
BRANCH  21  22
HETATM   22  C   UNL     1     -10.310  15.718  67.519  1.00  0.00    -0.280 C  
HETATM   23  H   UNL     1     -10.702  17.624  67.125  1.00  0.00     0.000 HD 
HETATM   24  O   UNL     1     -10.498  16.834  66.636  1.00  0.00    -0.304 OA 
BRANCH  22  25
HETATM   25  C   UNL     1     -11.575  15.577  68.379  1.00  0.00    -0.357 C  
HETATM   26  H   UNL     1     -12.166  16.064  70.199  1.00  0.00     0.000 HD 
HETATM   27  O   UNL     1     -11.384  16.151  69.668  1.00  0.00    -0.326 OA 
ENDBRANCH  22  25
ENDBRANCH  21  22
ENDBRANCH  20  21
ENDBRANCH  10  17
BRANCH  16  28
HETATM   28  C   UNL     1      -6.709   8.091  67.492  1.00  0.00    -0.069 C  
HETATM   29  H   UNL     1      -8.063   7.445  66.023  1.00  0.00     0.000 HD 
HETATM   30  O   UNL     1      -5.573   8.021  67.929  1.00  0.00    -0.032 OA 
HETATM   31  N   UNL     1      -7.120   7.334  66.395  1.00  0.00    -0.075 N  
BRANCH  31  32
HETATM   32  C   UNL     1      -6.201   6.384  65.782  1.00  0.00    -0.038 C  
BRANCH  32  33
HETATM   33  C   UNL     1      -6.870   5.044  65.461  1.00  0.00    -0.061 C  
HETATM   34  O   UNL     1      -7.767   4.705  66.529  1.00  0.00    -0.090 OA 
HETATM   35  H   UNL     1      -8.183   3.874  66.330  1.00  0.00     0.000 HD 
BRANCH  33  36
HETATM   36  C   UNL     1      -7.621   5.106  64.120  1.00  0.00    -0.069 C  
HETATM   37  O   UNL     1      -8.993   5.453  64.300  1.00  0.00    -0.347 OA 
HETATM   38  H   UNL     1      -9.457   5.492  63.471  1.00  0.00     0.000 HD 
ENDBRANCH  33  36
ENDBRANCH  32  33
ENDBRANCH  31  32
ENDBRANCH  16  28
ENDBRANCH   6   8
ENDBRANCH   3   4
ENDBRANCH   2   3
TORSDOF 11
ENDMDL
MODEL       74
REMARK 921   NORMALIZED FREE ENERGY PREDICTED BY IDOCK:   -3.48 KCAL/MOL
REMARK 922        TOTAL FREE ENERGY PREDICTED BY IDOCK:   -6.84 KCAL/MOL
REMARK 923 INTER-LIGAND FREE ENERGY PREDICTED BY IDOCK:   -6.93 KCAL/MOL
REMARK 924 INTRA-LIGAND FREE ENERGY PREDICTED BY IDOCK:    0.08 KCAL/MOL
REMARK 927      BINDING AFFINITY PREDICTED BY RF-SCORE:    0.00 PKD
ROOT
HETATM    1  C   UNL     1      -6.808  11.289  62.393  1.00  0.00     0.316 C  
HETATM    2  O   UNL     1      -7.094   9.923  62.681  1.00  0.00    -0.110 OA 
ENDROOT
BRANCH   2   3
HETATM    3  C   UNL     1      -8.397   9.739  63.217  1.00  0.00    -0.169 C  
BRANCH   3   4
HETATM    4  C   UNL     1      -8.513  10.110  64.705  1.00  0.00    -0.174 C  
HETATM    5  O   UNL     1      -7.519  10.238  65.416  1.00  0.00    -0.140 OA 
HETATM    6  N   UNL     1      -9.824  10.309  65.153  1.00  0.00    -0.302 N  
HETATM    7  H   UNL     1     -10.625  10.162  64.538  1.00  0.00     0.000 HD 
BRANCH   6   8
HETATM    8  C   UNL     1      -9.992  10.728  66.506  1.00  0.00    -0.213 A  
HETATM    9  C   UNL     1     -10.251  12.085  66.822  1.00  0.00    -0.202 A  
HETATM   10  C   UNL     1     -10.706  12.467  68.118  1.00  0.00    -0.243 A  
HETATM   11  I   UNL     1      -9.951  13.503  65.230  1.00  0.00     0.038 I  
HETATM   12  C   UNL     1      -9.964   9.768  67.543  1.00  0.00    -0.184 A  
HETATM   13  C   UNL     1     -10.882  11.425  69.067  1.00  0.00    -0.219 A  
HETATM   14  I   UNL     1     -12.321  11.651  70.664  1.00  0.00    -0.148 I  
HETATM   15  I   UNL     1      -9.122   7.832  67.076  1.00  0.00    -0.205 I  
HETATM   16  C   UNL     1     -10.368  10.118  68.845  1.00  0.00    -0.223 A  
BRANCH  10  17
HETATM   17  C   UNL     1     -11.111  13.898  68.375  1.00  0.00    -0.255 C  
HETATM   18  O   UNL     1     -12.284  14.193  68.140  1.00  0.00    -0.306 OA 
HETATM   19  C   UNL     1      -8.836  14.694  69.257  1.00  0.00     0.042 C  
HETATM   20  N   UNL     1     -10.206  14.891  68.800  1.00  0.00    -0.236 N  
BRANCH  20  21
HETATM   21  C   UNL     1     -10.658  16.309  68.807  1.00  0.00    -0.298 C  
BRANCH  21  22
HETATM   22  C   UNL     1     -10.011  17.153  67.678  1.00  0.00    -0.283 C  
HETATM   23  H   UNL     1     -10.261  17.426  65.728  1.00  0.00     0.000 HD 
HETATM   24  O   UNL     1     -10.658  16.909  66.419  1.00  0.00    -0.277 OA 
BRANCH  22  25
HETATM   25  C   UNL     1     -10.069  18.663  67.954  1.00  0.00    -0.369 C  
HETATM   26  H   UNL     1      -8.931  20.248  67.651  1.00  0.00     0.000 HD 
HETATM   27  O   UNL     1      -8.895  19.315  67.480  1.00  0.00    -0.291 OA 
ENDBRANCH  22  25
ENDBRANCH  21  22
ENDBRANCH  20  21
ENDBRANCH  10  17
BRANCH  16  28
HETATM   28  C   UNL     1     -10.213   9.139  69.966  1.00  0.00    -0.204 C  
HETATM   29  H   UNL     1     -11.795   7.969  69.235  1.00  0.00     0.000 HD 
HETATM   30  O   UNL     1      -9.374   9.284  70.840  1.00  0.00    -0.251 OA 
HETATM   31  N   UNL     1     -11.134   8.093  70.001  1.00  0.00    -0.198 N  
BRANCH  31  32
HETATM   32  C   UNL     1     -11.150   7.175  71.133  1.00  0.00    -0.254 C  
BRANCH  32  33
HETATM   33  C   UNL     1     -12.507   7.143  71.843  1.00  0.00    -0.306 C  
HETATM   34  O   UNL     1     -12.396   6.333  73.023  1.00  0.00    -0.091 OA 
HETATM   35  H   UNL     1     -13.238   6.313  73.463  1.00  0.00     0.000 HD 
BRANCH  33  36
HETATM   36  C   UNL     1     -12.980   8.562  72.201  1.00  0.00    -0.363 C  
HETATM   37  O   UNL     1     -14.001   8.542  73.196  1.00  0.00    -0.807 OA 
HETATM   38  H   UNL     1     -14.293   9.419  73.418  1.00  0.00     0.000 HD 
ENDBRANCH  33  36
ENDBRANCH  32  33
ENDBRANCH  31  32
ENDBRANCH  16  28
ENDBRANCH   6   8
ENDBRANCH   3   4
ENDBRANCH   2   3
TORSDOF 11
ENDMDL
MODEL       75
REMARK 921   NORMALIZED FREE ENERGY PREDICTED BY IDOCK:   -3.47 KCAL/MOL
REMARK 922        TOTAL FREE ENERGY PREDICTED BY IDOCK:   -6.82 KCAL/MOL
REMARK 923 INTER-LIGAND FREE ENERGY PREDICTED BY IDOCK:   -8.45 KCAL/MOL
REMARK 924 INTRA-LIGAND FREE ENERGY PREDICTED BY IDOCK:    1.63 KCAL/MOL
REMARK 927      BINDING AFFINITY PREDICTED BY RF-SCORE:    0.00 PKD
ROOT
HETATM    1  C   UNL     1     -11.531   4.493  73.253  1.00  0.00    -0.219 C  
HETATM    2  O   UNL     1     -10.397   4.963  72.530  1.00  0.00    -0.188 OA 
ENDROOT
BRANCH   2   3
HETATM    3  C   UNL     1     -10.743   5.484  71.253  1.00  0.00    -0.218 C  
BRANCH   3   4
HETATM    4  C   UNL     1     -10.505   6.998  71.117  1.00  0.00    -0.211 C  
HETATM    5  O   UNL     1      -9.712   7.594  71.842  1.00  0.00    -0.160 OA 
HETATM    6  N   UNL     1     -11.240   7.610  70.095  1.00  0.00    -0.396 N  
HETATM    7  H   UNL     1     -11.913   7.086  69.535  1.00  0.00     0.000 HD 
BRANCH   6   8
HETATM    8  C   UNL     1     -11.008   9.000  69.870  1.00  0.00    -0.193 A  
HETATM    9  C   UNL     1      -9.995   9.434  68.979  1.00  0.00    -0.177 A  
HETATM   10  C   UNL     1      -9.943  10.784  68.524  1.00  0.00    -0.186 A  
HETATM   11  I   UNL     1      -8.588   7.936  68.340  1.00  0.00    -0.124 I  
HETATM   12  C   UNL     1     -11.839   9.957  70.495  1.00  0.00    -0.270 A  
HETATM   13  C   UNL     1     -10.947  11.663  69.008  1.00  0.00    -0.233 A  
HETATM   14  I   UNL     1     -11.550  13.370  67.828  1.00  0.00    -0.402 I  
HETATM   15  I   UNL     1     -13.036   9.288  72.166  1.00  0.00    -0.453 I  
HETATM   16  C   UNL     1     -11.786  11.307  70.100  1.00  0.00    -0.449 A  
BRANCH  10  17
HETATM   17  C   UNL     1      -8.941  11.175  67.464  1.00  0.00    -0.139 C  
HETATM   18  O   UNL     1      -9.229  10.893  66.300  1.00  0.00    -0.167 OA 
HETATM   19  C   UNL     1      -7.264  12.303  69.045  1.00  0.00    -0.023 C  
HETATM   20  N   UNL     1      -7.701  11.775  67.759  1.00  0.00    -0.124 N  
BRANCH  20  21
HETATM   21  C   UNL     1      -6.700  11.915  66.665  1.00  0.00     0.088 C  
BRANCH  21  22
HETATM   22  C   UNL     1      -5.588  10.836  66.727  1.00  0.00    -0.064 C  
HETATM   23  H   UNL     1      -5.062   9.340  67.921  1.00  0.00     0.000 HD 
HETATM   24  O   UNL     1      -5.744  10.001  67.884  1.00  0.00    -0.039 OA 
BRANCH  22  25
HETATM   25  C   UNL     1      -5.571   9.927  65.488  1.00  0.00    -0.061 C  
HETATM   26  H   UNL     1      -6.509   9.802  63.755  1.00  0.00     0.000 HD 
HETATM   27  O   UNL     1      -6.520  10.364  64.520  1.00  0.00    -0.117 OA 
ENDBRANCH  22  25
ENDBRANCH  21  22
ENDBRANCH  20  21
ENDBRANCH  10  17
BRANCH  16  28
HETATM   28  C   UNL     1     -12.569  12.338  70.851  1.00  0.00    -0.241 C  
HETATM   29  H   UNL     1     -11.621  13.894  69.810  1.00  0.00     0.000 HD 
HETATM   30  O   UNL     1     -13.378  12.035  71.712  1.00  0.00    -0.406 OA 
HETATM   31  N   UNL     1     -12.267  13.669  70.566  1.00  0.00    -0.358 N  
BRANCH  31  32
HETATM   32  C   UNL     1     -12.876  14.737  71.348  1.00  0.00    -0.336 C  
BRANCH  32  33
HETATM   33  C   UNL     1     -11.891  15.377  72.332  1.00  0.00    -0.459 C  
HETATM   34  O   UNL     1     -11.594  16.710  71.892  1.00  0.00    -0.570 OA 
HETATM   35  H   UNL     1     -10.983  17.107  72.502  1.00  0.00     0.000 HD 
BRANCH  33  36
HETATM   36  C   UNL     1     -12.464  15.392  73.760  1.00  0.00    -0.620 C  
HETATM   37  O   UNL     1     -13.526  16.335  73.891  1.00  0.00    -0.934 OA 
HETATM   38  H   UNL     1     -13.880  16.345  74.773  1.00  0.00     0.000 HD 
ENDBRANCH  33  36
ENDBRANCH  32  33
ENDBRANCH  31  32
ENDBRANCH  16  28
ENDBRANCH   6   8
ENDBRANCH   3   4
ENDBRANCH   2   3
TORSDOF 11
ENDMDL
MODEL       76
REMARK 921   NORMALIZED FREE ENERGY PREDICTED BY IDOCK:   -3.46 KCAL/MOL
REMARK 922        TOTAL FREE ENERGY PREDICTED BY IDOCK:   -6.81 KCAL/MOL
REMARK 923 INTER-LIGAND FREE ENERGY PREDICTED BY IDOCK:   -8.22 KCAL/MOL
REMARK 924 INTRA-LIGAND FREE ENERGY PREDICTED BY IDOCK:    1.41 KCAL/MOL
REMARK 927      BINDING AFFINITY PREDICTED BY RF-SCORE:    0.00 PKD
ROOT
HETATM    1  C   UNL     1     -11.396   4.924  73.273  1.00  0.00    -0.327 C  
HETATM    2  O   UNL     1     -11.523   5.363  71.923  1.00  0.00    -0.089 OA 
ENDROOT
BRANCH   2   3
HETATM    3  C   UNL     1     -10.270   5.680  71.332  1.00  0.00    -0.214 C  
BRANCH   3   4
HETATM    4  C   UNL     1     -10.184   7.121  70.799  1.00  0.00    -0.197 C  
HETATM    5  O   UNL     1      -9.188   7.817  70.981  1.00  0.00    -0.149 OA 
HETATM    6  N   UNL     1     -11.309   7.541  70.080  1.00  0.00    -0.435 N  
HETATM    7  H   UNL     1     -12.130   6.943  69.979  1.00  0.00     0.000 HD 
BRANCH   6   8
HETATM    8  C   UNL     1     -11.259   8.842  69.496  1.00  0.00     0.129 A  
HETATM    9  C   UNL     1     -11.830   9.959  70.156  1.00  0.00    -0.124 A  
HETATM   10  C   UNL     1     -11.538  11.290  69.738  1.00  0.00    -0.408 A  
HETATM   11  I   UNL     1     -13.113   9.519  71.827  1.00  0.00    -0.570 I  
HETATM   12  C   UNL     1     -10.578   9.032  68.273  1.00  0.00    -0.163 A  
HETATM   13  C   UNL     1     -10.657  11.436  68.634  1.00  0.00    -0.199 A  
HETATM   14  I   UNL     1      -9.457  13.223  68.439  1.00  0.00     0.016 I  
HETATM   15  I   UNL     1     -10.141   7.271  67.098  1.00  0.00    -0.362 I  
HETATM   16  C   UNL     1     -10.308  10.333  67.808  1.00  0.00    -0.246 A  
BRANCH  10  17
HETATM   17  C   UNL     1     -12.044  12.455  70.553  1.00  0.00    -0.275 C  
HETATM   18  O   UNL     1     -12.099  12.295  71.774  1.00  0.00     0.494 OA 
HETATM   19  C   UNL     1     -12.378  14.069  68.586  1.00  0.00    -0.008 C  
HETATM   20  N   UNL     1     -12.501  13.657  69.979  1.00  0.00    -0.257 N  
BRANCH  20  21
HETATM   21  C   UNL     1     -13.184  14.650  70.854  1.00  0.00    -0.337 C  
BRANCH  21  22
HETATM   22  C   UNL     1     -12.206  15.387  71.806  1.00  0.00    -0.379 C  
HETATM   23  H   UNL     1     -10.882  16.862  71.690  1.00  0.00     0.000 HD 
HETATM   24  O   UNL     1     -11.482  16.411  71.107  1.00  0.00    -0.394 OA 
BRANCH  22  25
HETATM   25  C   UNL     1     -12.916  16.042  73.000  1.00  0.00    -0.490 C  
HETATM   26  H   UNL     1     -13.242  15.640  74.906  1.00  0.00     0.000 HD 
HETATM   27  O   UNL     1     -12.803  15.235  74.168  1.00  0.00    -0.443 OA 
ENDBRANCH  22  25
ENDBRANCH  21  22
ENDBRANCH  20  21
ENDBRANCH  10  17
BRANCH  16  28
HETATM   28  C   UNL     1      -9.704  10.533  66.453  1.00  0.00    -0.198 C  
HETATM   29  H   UNL     1     -11.541  11.181  65.671  1.00  0.00     0.000 HD 
HETATM   30  O   UNL     1      -8.531  10.289  66.225  1.00  0.00    -0.130 OA 
HETATM   31  N   UNL     1     -10.576  10.940  65.444  1.00  0.00    -0.216 N  
BRANCH  31  32
HETATM   32  C   UNL     1     -10.109  11.022  64.066  1.00  0.00    -0.350 C  
BRANCH  32  33
HETATM   33  C   UNL     1     -10.506  12.337  63.389  1.00  0.00    -0.368 C  
HETATM   34  O   UNL     1     -11.856  12.226  62.915  1.00  0.00    -0.626 OA 
HETATM   35  H   UNL     1     -12.103  13.042  62.495  1.00  0.00     0.000 HD 
BRANCH  33  36
HETATM   36  C   UNL     1     -10.366  13.524  64.357  1.00  0.00    -0.281 C  
HETATM   37  O   UNL     1     -11.414  14.475  64.179  1.00  0.00    -0.620 OA 
HETATM   38  H   UNL     1     -11.327  15.209  64.777  1.00  0.00     0.000 HD 
ENDBRANCH  33  36
ENDBRANCH  32  33
ENDBRANCH  31  32
ENDBRANCH  16  28
ENDBRANCH   6   8
ENDBRANCH   3   4
ENDBRANCH   2   3
TORSDOF 11
ENDMDL
MODEL       77
REMARK 921   NORMALIZED FREE ENERGY PREDICTED BY IDOCK:   -3.44 KCAL/MOL
REMARK 922        TOTAL FREE ENERGY PREDICTED BY IDOCK:   -6.78 KCAL/MOL
REMARK 923 INTER-LIGAND FREE ENERGY PREDICTED BY IDOCK:   -6.13 KCAL/MOL
REMARK 924 INTRA-LIGAND FREE ENERGY PREDICTED BY IDOCK:   -0.65 KCAL/MOL
REMARK 927      BINDING AFFINITY PREDICTED BY RF-SCORE:    0.00 PKD
ROOT
HETATM    1  C   UNL     1     -14.027   8.722  72.489  1.00  0.00    -0.363 C  
HETATM    2  O   UNL     1     -14.008   9.422  71.248  1.00  0.00    -0.272 OA 
ENDROOT
BRANCH   2   3
HETATM    3  C   UNL     1     -13.151  10.555  71.274  1.00  0.00    -0.383 C  
BRANCH   3   4
HETATM    4  C   UNL     1     -12.216  10.653  70.057  1.00  0.00    -0.298 C  
HETATM    5  O   UNL     1     -12.637  10.534  68.909  1.00  0.00    -0.094 OA 
HETATM    6  N   UNL     1     -10.877  10.911  70.373  1.00  0.00    -0.371 N  
HETATM    7  H   UNL     1     -10.561  10.971  71.342  1.00  0.00     0.000 HD 
BRANCH   6   8
HETATM    8  C   UNL     1      -9.973  11.086  69.283  1.00  0.00    -0.063 A  
HETATM    9  C   UNL     1      -9.769  12.364  68.704  1.00  0.00    -0.055 A  
HETATM   10  C   UNL     1      -8.673  12.609  67.827  1.00  0.00    -0.179 A  
HETATM   11  I   UNL     1     -11.180  13.892  69.260  1.00  0.00    -0.207 I  
HETATM   12  C   UNL     1      -9.223   9.984  68.814  1.00  0.00    -0.159 A  
HETATM   13  C   UNL     1      -7.806  11.516  67.564  1.00  0.00    -0.133 A  
HETATM   14  I   UNL     1      -5.740  11.876  67.043  1.00  0.00     0.068 I  
HETATM   15  I   UNL     1      -9.890   8.012  69.396  1.00  0.00    -0.193 I  
HETATM   16  C   UNL     1      -8.159  10.183  67.915  1.00  0.00    -0.109 A  
BRANCH  10  17
HETATM   17  C   UNL     1      -8.403  14.014  67.346  1.00  0.00    -0.196 C  
HETATM   18  O   UNL     1      -7.578  14.669  67.985  1.00  0.00    -0.107 OA 
HETATM   19  C   UNL     1      -9.976  13.941  65.321  1.00  0.00    -0.238 C  
HETATM   20  N   UNL     1      -9.086  14.604  66.265  1.00  0.00    -0.217 N  
BRANCH  20  21
HETATM   21  C   UNL     1      -8.904  16.061  66.017  1.00  0.00    -0.279 C  
BRANCH  21  22
HETATM   22  C   UNL     1      -9.952  16.933  66.756  1.00  0.00    -0.289 C  
HETATM   23  H   UNL     1      -9.974  18.263  68.230  1.00  0.00     0.000 HD 
HETATM   24  O   UNL     1      -9.331  17.729  67.778  1.00  0.00    -0.251 OA 
BRANCH  22  25
HETATM   25  C   UNL     1     -10.708  17.882  65.814  1.00  0.00    -0.089 C  
HETATM   26  H   UNL     1     -11.263  17.922  63.919  1.00  0.00     0.000 HD 
HETATM   27  O   UNL     1     -10.795  17.336  64.501  1.00  0.00    -0.726 OA 
ENDBRANCH  22  25
ENDBRANCH  21  22
ENDBRANCH  20  21
ENDBRANCH  10  17
BRANCH  16  28
HETATM   28  C   UNL     1      -7.452   9.006  67.320  1.00  0.00    -0.084 C  
HETATM   29  H   UNL     1      -8.690   9.051  65.625  1.00  0.00     0.000 HD 
HETATM   30  O   UNL     1      -6.534   8.445  67.894  1.00  0.00    -0.055 OA 
HETATM   31  N   UNL     1      -7.952   8.537  66.106  1.00  0.00    -0.100 N  
BRANCH  31  32
HETATM   32  C   UNL     1      -7.419   7.311  65.524  1.00  0.00    -0.085 C  
BRANCH  32  33
HETATM   33  C   UNL     1      -8.121   6.057  66.055  1.00  0.00    -0.113 C  
HETATM   34  O   UNL     1      -9.323   5.843  65.302  1.00  0.00    -0.365 OA 
HETATM   35  H   UNL     1      -9.759   5.065  65.631  1.00  0.00     0.000 HD 
BRANCH  33  36
HETATM   36  C   UNL     1      -7.200   4.828  65.969  1.00  0.00    -0.076 C  
HETATM   37  O   UNL     1      -6.842   4.346  67.263  1.00  0.00    -0.050 OA 
HETATM   38  H   UNL     1      -6.274   3.587  67.210  1.00  0.00     0.000 HD 
ENDBRANCH  33  36
ENDBRANCH  32  33
ENDBRANCH  31  32
ENDBRANCH  16  28
ENDBRANCH   6   8
ENDBRANCH   3   4
ENDBRANCH   2   3
TORSDOF 11
ENDMDL
MODEL       78
REMARK 921   NORMALIZED FREE ENERGY PREDICTED BY IDOCK:   -3.43 KCAL/MOL
REMARK 922        TOTAL FREE ENERGY PREDICTED BY IDOCK:   -6.76 KCAL/MOL
REMARK 923 INTER-LIGAND FREE ENERGY PREDICTED BY IDOCK:   -6.14 KCAL/MOL
REMARK 924 INTRA-LIGAND FREE ENERGY PREDICTED BY IDOCK:   -0.62 KCAL/MOL
REMARK 927      BINDING AFFINITY PREDICTED BY RF-SCORE:    0.00 PKD
ROOT
HETATM    1  C   UNL     1      -5.581  13.987  73.652  1.00  0.00    -0.143 C  
HETATM    2  O   UNL     1      -5.161  13.420  72.414  1.00  0.00    -0.311 OA 
ENDROOT
BRANCH   2   3
HETATM    3  C   UNL     1      -5.203  14.354  71.344  1.00  0.00    -0.155 C  
BRANCH   3   4
HETATM    4  C   UNL     1      -6.454  14.226  70.458  1.00  0.00    -0.035 C  
HETATM    5  O   UNL     1      -7.535  14.703  70.796  1.00  0.00     0.730 OA 
HETATM    6  N   UNL     1      -6.242  13.554  69.248  1.00  0.00    -0.100 N  
HETATM    7  H   UNL     1      -5.336  13.144  69.019  1.00  0.00     0.000 HD 
BRANCH   6   8
HETATM    8  C   UNL     1      -7.347  13.468  68.350  1.00  0.00    -0.115 A  
HETATM    9  C   UNL     1      -8.039  12.245  68.162  1.00  0.00    -0.158 A  
HETATM   10  C   UNL     1      -9.304  12.208  67.506  1.00  0.00    -0.181 A  
HETATM   11  I   UNL     1      -7.086  10.485  68.953  1.00  0.00    -0.102 I  
HETATM   12  C   UNL     1      -7.798  14.630  67.684  1.00  0.00    -0.181 A  
HETATM   13  C   UNL     1      -9.827  13.448  67.052  1.00  0.00    -0.250 A  
HETATM   14  I   UNL     1     -11.964  13.718  66.873  1.00  0.00    -0.364 I  
HETATM   15  I   UNL     1      -6.460  16.327  67.638  1.00  0.00    -0.233 I  
HETATM   16  C   UNL     1      -9.023  14.619  66.991  1.00  0.00    -0.258 A  
BRANCH  10  17
HETATM   17  C   UNL     1     -10.078  10.914  67.453  1.00  0.00    -0.191 C  
HETATM   18  O   UNL     1     -10.956  10.759  68.303  1.00  0.00    -0.215 OA 
HETATM   19  C   UNL     1      -8.904   9.951  65.385  1.00  0.00    -0.168 C  
HETATM   20  N   UNL     1      -9.797   9.883  66.535  1.00  0.00    -0.202 N  
BRANCH  20  21
HETATM   21  C   UNL     1     -10.469   8.567  66.713  1.00  0.00    -0.238 C  
BRANCH  21  22
HETATM   22  C   UNL     1      -9.650   7.588  67.593  1.00  0.00    -0.143 C  
HETATM   23  H   UNL     1      -9.632   6.981  69.483  1.00  0.00     0.000 HD 
HETATM   24  O   UNL     1     -10.135   7.581  68.944  1.00  0.00    -0.181 OA 
BRANCH  22  25
HETATM   25  C   UNL     1      -9.688   6.143  67.071  1.00  0.00    -0.142 C  
HETATM   26  H   UNL     1      -9.053   5.145  65.490  1.00  0.00     0.000 HD 
HETATM   27  O   UNL     1      -9.030   6.038  65.812  1.00  0.00    -0.156 OA 
ENDBRANCH  22  25
ENDBRANCH  21  22
ENDBRANCH  20  21
ENDBRANCH  10  17
BRANCH  16  28
HETATM   28  C   UNL     1      -9.435  15.807  66.180  1.00  0.00    -0.340 C  
HETATM   29  H   UNL     1      -9.815  16.928  67.914  1.00  0.00     0.000 HD 
HETATM   30  O   UNL     1      -9.449  15.785  64.961  1.00  0.00    -0.100 OA 
HETATM   31  N   UNL     1      -9.879  16.918  66.897  1.00  0.00    -0.265 N  
BRANCH  31  32
HETATM   32  C   UNL     1     -10.434  18.066  66.190  1.00  0.00    -0.331 C  
BRANCH  32  33
HETATM   33  C   UNL     1      -9.871  19.396  66.699  1.00  0.00    -0.374 C  
HETATM   34  O   UNL     1     -10.202  19.540  68.088  1.00  0.00    -0.403 OA 
HETATM   35  H   UNL     1      -9.853  20.366  68.404  1.00  0.00     0.000 HD 
BRANCH  33  36
HETATM   36  C   UNL     1      -8.349  19.470  66.493  1.00  0.00    -0.332 C  
HETATM   37  O   UNL     1      -7.994  20.467  65.538  1.00  0.00    -0.499 OA 
HETATM   38  H   UNL     1      -7.053  20.512  65.411  1.00  0.00     0.000 HD 
ENDBRANCH  33  36
ENDBRANCH  32  33
ENDBRANCH  31  32
ENDBRANCH  16  28
ENDBRANCH   6   8
ENDBRANCH   3   4
ENDBRANCH   2   3
TORSDOF 11
ENDMDL
MODEL       79
REMARK 921   NORMALIZED FREE ENERGY PREDICTED BY IDOCK:   -3.39 KCAL/MOL
REMARK 922        TOTAL FREE ENERGY PREDICTED BY IDOCK:   -6.69 KCAL/MOL
REMARK 923 INTER-LIGAND FREE ENERGY PREDICTED BY IDOCK:   -6.69 KCAL/MOL
REMARK 924 INTRA-LIGAND FREE ENERGY PREDICTED BY IDOCK:   -0.00 KCAL/MOL
REMARK 927      BINDING AFFINITY PREDICTED BY RF-SCORE:    0.00 PKD
ROOT
HETATM    1  C   UNL     1      -6.699  19.777  67.592  1.00  0.00    -0.234 C  
HETATM    2  O   UNL     1      -5.952  18.585  67.366  1.00  0.00    -0.160 OA 
ENDROOT
BRANCH   2   3
HETATM    3  C   UNL     1      -6.428  17.847  66.249  1.00  0.00    -0.244 C  
BRANCH   3   4
HETATM    4  C   UNL     1      -7.458  16.765  66.614  1.00  0.00    -0.273 C  
HETATM    5  O   UNL     1      -8.350  16.435  65.835  1.00  0.00    -0.334 OA 
HETATM    6  N   UNL     1      -7.270  16.187  67.875  1.00  0.00    -0.124 N  
HETATM    7  H   UNL     1      -6.536  16.512  68.505  1.00  0.00     0.000 HD 
BRANCH   6   8
HETATM    8  C   UNL     1      -8.150  15.125  68.241  1.00  0.00    -0.138 A  
HETATM    9  C   UNL     1      -9.446  15.394  68.748  1.00  0.00    -0.211 A  
HETATM   10  C   UNL     1     -10.429  14.366  68.840  1.00  0.00    -0.246 A  
HETATM   11  I   UNL     1      -9.835  17.432  69.322  1.00  0.00     0.272 I  
HETATM   12  C   UNL     1      -7.748  13.785  68.039  1.00  0.00    -0.152 A  
HETATM   13  C   UNL     1     -10.044  13.071  68.406  1.00  0.00    -0.225 A  
HETATM   14  I   UNL     1     -11.534  11.694  67.659  1.00  0.00    -0.256 I  
HETATM   15  I   UNL     1      -5.642  13.421  67.714  1.00  0.00     0.085 I  
HETATM   16  C   UNL     1      -8.682  12.740  68.162  1.00  0.00    -0.193 A  
BRANCH  10  17
HETATM   17  C   UNL     1     -11.840  14.719  69.245  1.00  0.00    -0.318 C  
HETATM   18  O   UNL     1     -12.378  15.642  68.631  1.00  0.00    -0.052 OA 
HETATM   19  C   UNL     1     -12.095  12.902  71.039  1.00  0.00     0.050 C  
HETATM   20  N   UNL     1     -12.517  14.090  70.308  1.00  0.00    -0.349 N  
BRANCH  20  21
HETATM   21  C   UNL     1     -13.813  14.664  70.764  1.00  0.00     0.114 C  
BRANCH  21  22
HETATM   22  C   UNL     1     -13.728  15.292  72.180  1.00  0.00    -0.494 C  
HETATM   23  H   UNL     1     -13.805  14.674  74.064  1.00  0.00     0.000 HD 
HETATM   24  O   UNL     1     -13.857  14.288  73.197  1.00  0.00    -0.452 OA 
BRANCH  22  25
HETATM   25  C   UNL     1     -12.409  16.042  72.420  1.00  0.00    -0.497 C  
HETATM   26  H   UNL     1     -11.466  16.889  73.935  1.00  0.00     0.000 HD 
HETATM   27  O   UNL     1     -12.281  16.425  73.786  1.00  0.00    -0.495 OA 
ENDBRANCH  22  25
ENDBRANCH  21  22
ENDBRANCH  20  21
ENDBRANCH  10  17
BRANCH  16  28
HETATM   28  C   UNL     1      -8.229  11.316  68.076  1.00  0.00    -0.134 C  
HETATM   29  H   UNL     1      -8.075  11.434  65.986  1.00  0.00     0.000 HD 
HETATM   30  O   UNL     1      -8.116  10.613  69.066  1.00  0.00    -0.132 OA 
HETATM   31  N   UNL     1      -8.017  10.813  66.793  1.00  0.00    -0.132 N  
BRANCH  31  32
HETATM   32  C   UNL     1      -7.714   9.400  66.606  1.00  0.00    -0.097 C  
BRANCH  32  33
HETATM   33  C   UNL     1      -8.536   8.769  65.478  1.00  0.00    -0.165 C  
HETATM   34  O   UNL     1      -9.897   8.636  65.913  1.00  0.00    -0.452 OA 
HETATM   35  H   UNL     1     -10.407   8.244  65.213  1.00  0.00     0.000 HD 
BRANCH  33  36
HETATM   36  C   UNL     1      -8.455   9.611  64.194  1.00  0.00    -0.180 C  
HETATM   37  O   UNL     1      -9.711   9.665  63.519  1.00  0.00    -0.471 OA 
HETATM   38  H   UNL     1      -9.661  10.186  62.726  1.00  0.00     0.000 HD 
ENDBRANCH  33  36
ENDBRANCH  32  33
ENDBRANCH  31  32
ENDBRANCH  16  28
ENDBRANCH   6   8
ENDBRANCH   3   4
ENDBRANCH   2   3
TORSDOF 11
ENDMDL
MODEL       80
REMARK 921   NORMALIZED FREE ENERGY PREDICTED BY IDOCK:   -3.36 KCAL/MOL
REMARK 922        TOTAL FREE ENERGY PREDICTED BY IDOCK:   -6.65 KCAL/MOL
REMARK 923 INTER-LIGAND FREE ENERGY PREDICTED BY IDOCK:   -8.45 KCAL/MOL
REMARK 924 INTRA-LIGAND FREE ENERGY PREDICTED BY IDOCK:    1.80 KCAL/MOL
REMARK 927      BINDING AFFINITY PREDICTED BY RF-SCORE:    0.00 PKD
ROOT
HETATM    1  C   UNL     1     -10.292   4.946  70.792  1.00  0.00    -0.158 C  
HETATM    2  O   UNL     1     -10.514   6.354  70.794  1.00  0.00    -0.209 OA 
ENDROOT
BRANCH   2   3
HETATM    3  C   UNL     1      -9.584   7.053  69.977  1.00  0.00    -0.164 C  
BRANCH   3   4
HETATM    4  C   UNL     1      -9.819   8.573  69.932  1.00  0.00    -0.186 C  
HETATM    5  O   UNL     1      -9.043   9.361  70.466  1.00  0.00    -0.236 OA 
HETATM    6  N   UNL     1     -10.958   8.962  69.218  1.00  0.00    -0.420 N  
HETATM    7  H   UNL     1     -11.595   8.273  68.816  1.00  0.00     0.000 HD 
BRANCH   6   8
HETATM    8  C   UNL     1     -11.190  10.362  69.077  1.00  0.00    -0.234 A  
HETATM    9  C   UNL     1     -11.938  11.078  70.045  1.00  0.00    -0.351 A  
HETATM   10  C   UNL     1     -11.931  12.503  70.076  1.00  0.00    -0.372 A  
HETATM   11  I   UNL     1     -13.033   9.889  71.466  1.00  0.00    -0.557 I  
HETATM   12  C   UNL     1     -10.616  11.059  67.989  1.00  0.00    -0.204 A  
HETATM   13  C   UNL     1     -11.147  13.161  69.092  1.00  0.00    -0.196 A  
HETATM   14  I   UNL     1     -10.329  15.121  69.494  1.00  0.00    -0.157 I  
HETATM   15  I   UNL     1      -9.896   9.880  66.327  1.00  0.00    -0.313 I  
HETATM   16  C   UNL     1     -10.626  12.466  67.965  1.00  0.00    -0.238 A  
BRANCH  10  17
HETATM   17  C   UNL     1     -12.618  13.228  71.207  1.00  0.00    -0.308 C  
HETATM   18  O   UNL     1     -12.585  12.685  72.313  1.00  0.00     0.063 OA 
HETATM   19  C   UNL     1     -13.349  15.277  69.846  1.00  0.00     0.604 C  
HETATM   20  N   UNL     1     -13.326  14.433  71.035  1.00  0.00    -0.343 N  
BRANCH  20  21
HETATM   21  C   UNL     1     -14.150  14.943  72.166  1.00  0.00    -0.518 C  
BRANCH  21  22
HETATM   22  C   UNL     1     -13.328  15.786  73.175  1.00  0.00    -0.587 C  
HETATM   23  H   UNL     1     -12.354  15.491  74.880  1.00  0.00     0.000 HD 
HETATM   24  O   UNL     1     -12.857  14.974  74.261  1.00  0.00    -0.371 OA 
BRANCH  22  25
HETATM   25  C   UNL     1     -12.110  16.466  72.532  1.00  0.00    -0.443 C  
HETATM   26  H   UNL     1     -10.802  17.869  73.002  1.00  0.00     0.000 HD 
HETATM   27  O   UNL     1     -11.555  17.449  73.400  1.00  0.00     0.150 OA 
ENDBRANCH  22  25
ENDBRANCH  21  22
ENDBRANCH  20  21
ENDBRANCH  10  17
BRANCH  16  28
HETATM   28  C   UNL     1     -10.136  13.198  66.755  1.00  0.00    -0.253 C  
HETATM   29  H   UNL     1     -12.060  13.213  65.917  1.00  0.00     0.000 HD 
HETATM   30  O   UNL     1      -8.964  13.505  66.616  1.00  0.00    -0.210 OA 
HETATM   31  N   UNL     1     -11.079  13.440  65.757  1.00  0.00    -0.282 N  
BRANCH  31  32
HETATM   32  C   UNL     1     -10.662  14.017  64.486  1.00  0.00    -0.336 C  
BRANCH  32  33
HETATM   33  C   UNL     1     -11.165  15.452  64.300  1.00  0.00    -0.056 C  
HETATM   34  O   UNL     1     -12.534  15.412  63.869  1.00  0.00    -0.921 OA 
HETATM   35  H   UNL     1     -12.846  16.302  63.753  1.00  0.00     0.000 HD 
BRANCH  33  36
HETATM   36  C   UNL     1     -11.029  16.261  65.601  1.00  0.00    -0.106 C  
HETATM   37  O   UNL     1      -9.750  16.881  65.704  1.00  0.00    -0.538 OA 
HETATM   38  H   UNL     1      -9.666  17.381  66.508  1.00  0.00     0.000 HD 
ENDBRANCH  33  36
ENDBRANCH  32  33
ENDBRANCH  31  32
ENDBRANCH  16  28
ENDBRANCH   6   8
ENDBRANCH   3   4
ENDBRANCH   2   3
TORSDOF 11
ENDMDL
MODEL       81
REMARK 921   NORMALIZED FREE ENERGY PREDICTED BY IDOCK:   -3.36 KCAL/MOL
REMARK 922        TOTAL FREE ENERGY PREDICTED BY IDOCK:   -6.65 KCAL/MOL
REMARK 923 INTER-LIGAND FREE ENERGY PREDICTED BY IDOCK:   -5.24 KCAL/MOL
REMARK 924 INTRA-LIGAND FREE ENERGY PREDICTED BY IDOCK:   -1.41 KCAL/MOL
REMARK 927      BINDING AFFINITY PREDICTED BY RF-SCORE:    0.00 PKD
ROOT
HETATM    1  C   UNL     1     -10.714  12.919  68.414  1.00  0.00    -0.255 C  
HETATM    2  O   UNL     1      -9.735  12.545  67.449  1.00  0.00    -0.190 OA 
ENDROOT
BRANCH   2   3
HETATM    3  C   UNL     1     -10.253  11.666  66.458  1.00  0.00    -0.214 C  
BRANCH   3   4
HETATM    4  C   UNL     1      -9.988  10.179  66.749  1.00  0.00    -0.211 C  
HETATM    5  O   UNL     1     -10.907   9.382  66.917  1.00  0.00    -0.149 OA 
HETATM    6  N   UNL     1      -8.634   9.826  66.775  1.00  0.00    -0.127 N  
HETATM    7  H   UNL     1      -7.899  10.525  66.663  1.00  0.00     0.000 HD 
BRANCH   6   8
HETATM    8  C   UNL     1      -8.325   8.446  66.967  1.00  0.00    -0.114 A  
HETATM    9  C   UNL     1      -8.283   7.883  68.266  1.00  0.00    -0.124 A  
HETATM   10  C   UNL     1      -8.268   6.470  68.457  1.00  0.00    -0.121 A  
HETATM   11  I   UNL     1      -8.284   9.278  69.905  1.00  0.00    -0.217 I  
HETATM   12  C   UNL     1      -8.120   7.615  65.842  1.00  0.00    -0.122 A  
HETATM   13  C   UNL     1      -8.293   5.666  67.287  1.00  0.00    -0.100 A  
HETATM   14  I   UNL     1      -9.136   3.677  67.361  1.00  0.00    -0.236 I  
HETATM   15  I   UNL     1      -7.738   8.585  63.949  1.00  0.00    -0.155 I  
HETATM   16  C   UNL     1      -8.058   6.217  65.997  1.00  0.00    -0.119 A  
BRANCH  10  17
HETATM   17  C   UNL     1      -8.372   5.905  69.853  1.00  0.00    -0.121 C  
HETATM   18  O   UNL     1      -7.314   5.595  70.404  1.00  0.00    -0.074 OA 
HETATM   19  C   UNL     1     -10.921   6.103  70.063  1.00  0.00    -0.372 C  
HETATM   20  N   UNL     1      -9.600   5.670  70.501  1.00  0.00    -0.169 N  
BRANCH  20  21
HETATM   21  C   UNL     1      -9.596   4.908  71.780  1.00  0.00    -0.156 C  
BRANCH  21  22
HETATM   22  C   UNL     1      -9.862   3.394  71.578  1.00  0.00    -0.142 C  
HETATM   23  H   UNL     1      -8.797   1.749  71.258  1.00  0.00     0.000 HD 
HETATM   24  O   UNL     1      -8.634   2.677  71.381  1.00  0.00    -0.062 OA 
BRANCH  22  25
HETATM   25  C   UNL     1     -10.596   2.754  72.766  1.00  0.00    -0.093 C  
HETATM   26  H   UNL     1     -11.601   3.355  74.357  1.00  0.00     0.000 HD 
HETATM   27  O   UNL     1     -11.147   3.750  73.623  1.00  0.00    -0.234 OA 
ENDBRANCH  22  25
ENDBRANCH  21  22
ENDBRANCH  20  21
ENDBRANCH  10  17
BRANCH  16  28
HETATM   28  C   UNL     1      -7.710   5.349  64.829  1.00  0.00    -0.090 C  
HETATM   29  H   UNL     1      -9.559   5.744  63.916  1.00  0.00     0.000 HD 
HETATM   30  O   UNL     1      -6.650   4.751  64.761  1.00  0.00    -0.041 OA 
HETATM   31  N   UNL     1      -8.699   5.198  63.858  1.00  0.00    -0.094 N  
BRANCH  31  32
HETATM   32  C   UNL     1      -8.505   4.260  62.760  1.00  0.00    -0.091 C  
BRANCH  32  33
HETATM   33  C   UNL     1      -9.288   2.958  62.955  1.00  0.00    -0.093 C  
HETATM   34  O   UNL     1      -8.550   2.100  63.838  1.00  0.00    -0.084 OA 
HETATM   35  H   UNL     1      -9.036   1.292  63.959  1.00  0.00     0.000 HD 
BRANCH  33  36
HETATM   36  C   UNL     1     -10.693   3.234  63.514  1.00  0.00    -0.252 C  
HETATM   37  O   UNL     1     -11.460   2.037  63.628  1.00  0.00    -0.611 OA 
HETATM   38  H   UNL     1     -12.329   2.208  63.974  1.00  0.00     0.000 HD 
ENDBRANCH  33  36
ENDBRANCH  32  33
ENDBRANCH  31  32
ENDBRANCH  16  28
ENDBRANCH   6   8
ENDBRANCH   3   4
ENDBRANCH   2   3
TORSDOF 11
ENDMDL
MODEL       82
REMARK 921   NORMALIZED FREE ENERGY PREDICTED BY IDOCK:   -3.35 KCAL/MOL
REMARK 922        TOTAL FREE ENERGY PREDICTED BY IDOCK:   -6.63 KCAL/MOL
REMARK 923 INTER-LIGAND FREE ENERGY PREDICTED BY IDOCK:   -6.07 KCAL/MOL
REMARK 924 INTRA-LIGAND FREE ENERGY PREDICTED BY IDOCK:   -0.56 KCAL/MOL
REMARK 927      BINDING AFFINITY PREDICTED BY RF-SCORE:    0.00 PKD
ROOT
HETATM    1  C   UNL     1     -10.503  15.568  65.836  1.00  0.00    -0.342 C  
HETATM    2  O   UNL     1     -11.380  14.495  65.503  1.00  0.00    -0.321 OA 
ENDROOT
BRANCH   2   3
HETATM    3  C   UNL     1     -10.732  13.472  64.758  1.00  0.00    -0.401 C  
BRANCH   3   4
HETATM    4  C   UNL     1     -10.819  12.081  65.410  1.00  0.00    -0.291 C  
HETATM    5  O   UNL     1     -11.812  11.370  65.280  1.00  0.00     0.003 OA 
HETATM    6  N   UNL     1      -9.675  11.703  66.123  1.00  0.00    -0.222 N  
HETATM    7  H   UNL     1      -8.883  12.337  66.234  1.00  0.00     0.000 HD 
BRANCH   6   8
HETATM    8  C   UNL     1      -9.665  10.393  66.689  1.00  0.00    -0.190 A  
HETATM    9  C   UNL     1      -9.110   9.298  65.980  1.00  0.00    -0.188 A  
HETATM   10  C   UNL     1      -8.829   8.064  66.635  1.00  0.00    -0.166 A  
HETATM   11  I   UNL     1      -8.692   9.632  63.895  1.00  0.00    -0.207 I  
HETATM   12  C   UNL     1     -10.158  10.195  67.998  1.00  0.00    -0.157 A  
HETATM   13  C   UNL     1      -9.135   7.989  68.020  1.00  0.00    -0.129 A  
HETATM   14  I   UNL     1      -8.029   6.642  69.299  1.00  0.00    -0.113 I  
HETATM   15  I   UNL     1     -11.392  11.757  68.840  1.00  0.00    -0.416 I  
HETATM   16  C   UNL     1      -9.935   8.974  68.661  1.00  0.00    -0.187 A  
BRANCH  10  17
HETATM   17  C   UNL     1      -8.104   6.972  65.886  1.00  0.00    -0.119 C  
HETATM   18  O   UNL     1      -6.943   7.208  65.548  1.00  0.00    -0.054 OA 
HETATM   19  C   UNL     1     -10.010   5.254  65.952  1.00  0.00    -0.073 C  
HETATM   20  N   UNL     1      -8.712   5.755  65.518  1.00  0.00    -0.151 N  
BRANCH  20  21
HETATM   21  C   UNL     1      -7.980   4.846  64.594  1.00  0.00    -0.099 C  
BRANCH  21  22
HETATM   22  C   UNL     1      -8.101   3.353  64.997  1.00  0.00    -0.090 C  
HETATM   23  H   UNL     1      -8.038   1.583  64.101  1.00  0.00     0.000 HD 
HETATM   24  O   UNL     1      -7.964   2.498  63.853  1.00  0.00    -0.078 OA 
BRANCH  22  25
HETATM   25  C   UNL     1      -7.048   2.929  66.032  1.00  0.00    -0.061 C  
HETATM   26  H   UNL     1      -6.728   3.154  67.968  1.00  0.00     0.000 HD 
HETATM   27  O   UNL     1      -7.379   3.417  67.328  1.00  0.00    -0.058 OA 
ENDBRANCH  22  25
ENDBRANCH  21  22
ENDBRANCH  20  21
ENDBRANCH  10  17
BRANCH  16  28
HETATM   28  C   UNL     1     -10.569   8.718  69.993  1.00  0.00    -0.223 C  
HETATM   29  H   UNL     1      -8.951   9.605  70.993  1.00  0.00     0.000 HD 
HETATM   30  O   UNL     1     -11.643   8.151  70.099  1.00  0.00    -0.090 OA 
HETATM   31  N   UNL     1      -9.825   9.093  71.111  1.00  0.00    -0.295 N  
BRANCH  31  32
HETATM   32  C   UNL     1     -10.297   8.752  72.447  1.00  0.00    -0.154 C  
BRANCH  32  33
HETATM   33  C   UNL     1      -9.578   7.532  73.030  1.00  0.00    -0.215 C  
HETATM   34  O   UNL     1      -9.281   7.783  74.411  1.00  0.00    -0.410 OA 
HETATM   35  H   UNL     1      -8.834   7.026  74.773  1.00  0.00     0.000 HD 
BRANCH  33  36
HETATM   36  C   UNL     1     -10.432   6.261  72.881  1.00  0.00    -0.218 C  
HETATM   37  O   UNL     1     -10.907   5.795  74.142  1.00  0.00    -0.355 OA 
HETATM   38  H   UNL     1     -11.434   5.009  74.050  1.00  0.00     0.000 HD 
ENDBRANCH  33  36
ENDBRANCH  32  33
ENDBRANCH  31  32
ENDBRANCH  16  28
ENDBRANCH   6   8
ENDBRANCH   3   4
ENDBRANCH   2   3
TORSDOF 11
ENDMDL
MODEL       83
REMARK 921   NORMALIZED FREE ENERGY PREDICTED BY IDOCK:   -3.35 KCAL/MOL
REMARK 922        TOTAL FREE ENERGY PREDICTED BY IDOCK:   -6.63 KCAL/MOL
REMARK 923 INTER-LIGAND FREE ENERGY PREDICTED BY IDOCK:   -5.18 KCAL/MOL
REMARK 924 INTRA-LIGAND FREE ENERGY PREDICTED BY IDOCK:   -1.44 KCAL/MOL
REMARK 927      BINDING AFFINITY PREDICTED BY RF-SCORE:    0.00 PKD
ROOT
HETATM    1  C   UNL     1     -10.620   7.120  73.549  1.00  0.00    -0.374 C  
HETATM    2  O   UNL     1     -11.319   7.695  72.449  1.00  0.00    -0.284 OA 
ENDROOT
BRANCH   2   3
HETATM    3  C   UNL     1     -11.205   6.920  71.264  1.00  0.00    -0.268 C  
BRANCH   3   4
HETATM    4  C   UNL     1     -10.300   7.553  70.194  1.00  0.00    -0.216 C  
HETATM    5  O   UNL     1      -9.132   7.849  70.431  1.00  0.00    -0.152 OA 
HETATM    6  N   UNL     1     -10.912   7.729  68.947  1.00  0.00    -0.425 N  
HETATM    7  H   UNL     1     -11.895   7.500  68.800  1.00  0.00     0.000 HD 
BRANCH   6   8
HETATM    8  C   UNL     1     -10.102   8.244  67.892  1.00  0.00    -0.202 A  
HETATM    9  C   UNL     1     -10.029   9.638  67.642  1.00  0.00    -0.174 A  
HETATM   10  C   UNL     1      -9.017  10.184  66.800  1.00  0.00    -0.147 A  
HETATM   11  I   UNL     1     -11.501  10.856  68.635  1.00  0.00    -0.278 I  
HETATM   12  C   UNL     1      -9.312   7.360  67.123  1.00  0.00    -0.142 A  
HETATM   13  C   UNL     1      -8.097   9.267  66.227  1.00  0.00    -0.107 A  
HETATM   14  I   UNL     1      -6.103   9.919  65.709  1.00  0.00    -0.100 I  
HETATM   15  I   UNL     1      -9.797   5.256  67.224  1.00  0.00    -0.251 I  
HETATM   16  C   UNL     1      -8.330   7.864  66.250  1.00  0.00    -0.126 A  
BRANCH  10  17
HETATM   17  C   UNL     1      -8.881  11.682  66.675  1.00  0.00    -0.187 C  
HETATM   18  O   UNL     1      -9.413  12.206  65.695  1.00  0.00    -0.209 OA 
HETATM   19  C   UNL     1      -7.570  12.042  68.851  1.00  0.00    -0.016 C  
HETATM   20  N   UNL     1      -8.137  12.467  67.577  1.00  0.00    -0.164 N  
BRANCH  20  21
HETATM   21  C   UNL     1      -7.884  13.894  67.238  1.00  0.00    -0.114 C  
BRANCH  21  22
HETATM   22  C   UNL     1      -6.928  14.591  68.241  1.00  0.00    -0.111 C  
HETATM   23  H   UNL     1      -5.077  15.308  68.243  1.00  0.00     0.000 HD 
HETATM   24  O   UNL     1      -5.662  14.881  67.628  1.00  0.00    -0.290 OA 
BRANCH  22  25
HETATM   25  C   UNL     1      -7.498  15.906  68.792  1.00  0.00    -0.170 C  
HETATM   26  H   UNL     1      -6.916  17.359  69.997  1.00  0.00     0.000 HD 
HETATM   27  O   UNL     1      -6.564  16.546  69.656  1.00  0.00    -0.218 OA 
ENDBRANCH  22  25
ENDBRANCH  21  22
ENDBRANCH  20  21
ENDBRANCH  10  17
BRANCH  16  28
HETATM   28  C   UNL     1      -7.586   6.935  65.343  1.00  0.00    -0.093 C  
HETATM   29  H   UNL     1      -8.867   7.385  63.742  1.00  0.00     0.000 HD 
HETATM   30  O   UNL     1      -6.630   6.283  65.728  1.00  0.00    -0.045 OA 
HETATM   31  N   UNL     1      -8.095   6.795  64.052  1.00  0.00    -0.067 N  
BRANCH  31  32
HETATM   32  C   UNL     1      -7.523   5.807  63.147  1.00  0.00    -0.070 C  
BRANCH  32  33
HETATM   33  C   UNL     1      -8.240   4.455  63.226  1.00  0.00    -0.094 C  
HETATM   34  O   UNL     1      -7.787   3.757  64.395  1.00  0.00    -0.083 OA 
HETATM   35  H   UNL     1      -8.232   2.918  64.444  1.00  0.00     0.000 HD 
BRANCH  33  36
HETATM   36  C   UNL     1      -9.767   4.638  63.259  1.00  0.00     0.186 C  
HETATM   37  O   UNL     1     -10.445   3.388  63.366  1.00  0.00    -0.196 OA 
HETATM   38  H   UNL     1     -11.388   3.501  63.387  1.00  0.00     0.000 HD 
ENDBRANCH  33  36
ENDBRANCH  32  33
ENDBRANCH  31  32
ENDBRANCH  16  28
ENDBRANCH   6   8
ENDBRANCH   3   4
ENDBRANCH   2   3
TORSDOF 11
ENDMDL
MODEL       84
REMARK 921   NORMALIZED FREE ENERGY PREDICTED BY IDOCK:   -3.31 KCAL/MOL
REMARK 922        TOTAL FREE ENERGY PREDICTED BY IDOCK:   -6.56 KCAL/MOL
REMARK 923 INTER-LIGAND FREE ENERGY PREDICTED BY IDOCK:   -5.98 KCAL/MOL
REMARK 924 INTRA-LIGAND FREE ENERGY PREDICTED BY IDOCK:   -0.57 KCAL/MOL
REMARK 927      BINDING AFFINITY PREDICTED BY RF-SCORE:    0.00 PKD
ROOT
HETATM    1  C   UNL     1     -14.321   7.726  71.624  1.00  0.00    -0.481 C  
HETATM    2  O   UNL     1     -13.060   7.202  71.218  1.00  0.00    -0.384 OA 
ENDROOT
BRANCH   2   3
HETATM    3  C   UNL     1     -11.967   7.878  71.826  1.00  0.00    -0.298 C  
BRANCH   3   4
HETATM    4  C   UNL     1     -10.978   8.487  70.818  1.00  0.00    -0.247 C  
HETATM    5  O   UNL     1      -9.874   8.899  71.167  1.00  0.00    -0.224 OA 
HETATM    6  N   UNL     1     -11.434   8.502  69.495  1.00  0.00    -0.291 N  
HETATM    7  H   UNL     1     -12.371   8.179  69.251  1.00  0.00     0.000 HD 
BRANCH   6   8
HETATM    8  C   UNL     1     -10.532   8.987  68.501  1.00  0.00    -0.196 A  
HETATM    9  C   UNL     1      -9.570   8.130  67.910  1.00  0.00    -0.155 A  
HETATM   10  C   UNL     1      -8.870   8.511  66.728  1.00  0.00    -0.158 A  
HETATM   11  I   UNL     1      -9.270   6.231  68.878  1.00  0.00    -0.131 I  
HETATM   12  C   UNL     1     -10.639  10.323  68.054  1.00  0.00    -0.231 A  
HETATM   13  C   UNL     1      -9.182   9.784  66.182  1.00  0.00    -0.176 A  
HETATM   14  I   UNL     1      -8.936  10.141  64.065  1.00  0.00    -0.326 I  
HETATM   15  I   UNL     1     -11.776  11.690  69.282  1.00  0.00    -0.404 I  
HETATM   16  C   UNL     1      -9.930  10.747  66.914  1.00  0.00    -0.240 A  
BRANCH  10  17
HETATM   17  C   UNL     1      -7.963   7.517  66.045  1.00  0.00    -0.113 C  
HETATM   18  O   UNL     1      -8.474   6.804  65.180  1.00  0.00    -0.120 OA 
HETATM   19  C   UNL     1      -5.814   8.180  67.282  1.00  0.00    -0.042 C  
HETATM   20  N   UNL     1      -6.610   7.339  66.396  1.00  0.00    -0.051 N  
BRANCH  20  21
HETATM   21  C   UNL     1      -5.871   6.184  65.817  1.00  0.00    -0.025 C  
BRANCH  21  22
HETATM   22  C   UNL     1      -6.358   4.819  66.369  1.00  0.00    -0.036 C  
HETATM   23  H   UNL     1      -6.929   3.064  65.639  1.00  0.00     0.000 HD 
HETATM   24  O   UNL     1      -6.630   3.900  65.300  1.00  0.00    -0.041 OA 
BRANCH  22  25
HETATM   25  C   UNL     1      -5.340   4.160  67.311  1.00  0.00    -0.012 C  
HETATM   26  H   UNL     1      -4.628   4.454  69.129  1.00  0.00     0.000 HD 
HETATM   27  O   UNL     1      -5.257   4.862  68.547  1.00  0.00    -0.003 OA 
ENDBRANCH  22  25
ENDBRANCH  21  22
ENDBRANCH  20  21
ENDBRANCH  10  17
BRANCH  16  28
HETATM   28  C   UNL     1      -9.941  12.191  66.520  1.00  0.00    -0.213 C  
HETATM   29  H   UNL     1      -7.967  12.444  67.185  1.00  0.00     0.000 HD 
HETATM   30  O   UNL     1     -10.925  12.720  66.029  1.00  0.00    -0.271 OA 
HETATM   31  N   UNL     1      -8.790  12.919  66.817  1.00  0.00    -0.187 N  
BRANCH  31  32
HETATM   32  C   UNL     1      -8.765  14.360  66.601  1.00  0.00    -0.099 C  
BRANCH  32  33
HETATM   33  C   UNL     1      -9.076  15.150  67.876  1.00  0.00    -0.179 C  
HETATM   34  O   UNL     1      -8.122  14.794  68.888  1.00  0.00    -0.151 OA 
HETATM   35  H   UNL     1      -8.315  15.284  69.679  1.00  0.00     0.000 HD 
BRANCH  33  36
HETATM   36  C   UNL     1      -9.047  16.665  67.611  1.00  0.00    -0.207 C  
HETATM   37  O   UNL     1      -9.845  17.380  68.553  1.00  0.00    -0.287 OA 
HETATM   38  H   UNL     1      -9.828  18.316  68.389  1.00  0.00     0.000 HD 
ENDBRANCH  33  36
ENDBRANCH  32  33
ENDBRANCH  31  32
ENDBRANCH  16  28
ENDBRANCH   6   8
ENDBRANCH   3   4
ENDBRANCH   2   3
TORSDOF 11
ENDMDL
MODEL       85
REMARK 921   NORMALIZED FREE ENERGY PREDICTED BY IDOCK:   -3.30 KCAL/MOL
REMARK 922        TOTAL FREE ENERGY PREDICTED BY IDOCK:   -6.55 KCAL/MOL
REMARK 923 INTER-LIGAND FREE ENERGY PREDICTED BY IDOCK:   -5.49 KCAL/MOL
REMARK 924 INTRA-LIGAND FREE ENERGY PREDICTED BY IDOCK:   -1.07 KCAL/MOL
REMARK 927      BINDING AFFINITY PREDICTED BY RF-SCORE:    0.00 PKD
ROOT
HETATM    1  C   UNL     1      -7.758   4.418  62.409  1.00  0.00    -0.063 C  
HETATM    2  O   UNL     1      -6.735   4.847  63.304  1.00  0.00    -0.032 OA 
ENDROOT
BRANCH   2   3
HETATM    3  C   UNL     1      -6.624   6.262  63.368  1.00  0.00    -0.040 C  
BRANCH   3   4
HETATM    4  C   UNL     1      -7.280   6.880  64.615  1.00  0.00    -0.076 C  
HETATM    5  O   UNL     1      -6.623   7.169  65.612  1.00  0.00    -0.049 OA 
HETATM    6  N   UNL     1      -8.657   7.100  64.497  1.00  0.00    -0.331 N  
HETATM    7  H   UNL     1      -9.172   6.816  63.663  1.00  0.00     0.000 HD 
BRANCH   6   8
HETATM    8  C   UNL     1      -9.309   7.739  65.593  1.00  0.00     0.244 A  
HETATM    9  C   UNL     1      -9.682   7.006  66.747  1.00  0.00    -0.184 A  
HETATM   10  C   UNL     1     -10.061   7.668  67.951  1.00  0.00    -0.231 A  
HETATM   11  I   UNL     1      -9.602   4.862  66.574  1.00  0.00    -0.263 I  
HETATM   12  C   UNL     1      -9.532   9.135  65.556  1.00  0.00    -0.206 A  
HETATM   13  C   UNL     1     -10.048   9.088  67.932  1.00  0.00    -0.197 A  
HETATM   14  I   UNL     1      -9.723  10.190  69.763  1.00  0.00     0.019 I  
HETATM   15  I   UNL     1      -9.378  10.111  63.634  1.00  0.00    -0.121 I  
HETATM   16  C   UNL     1      -9.946   9.817  66.715  1.00  0.00    -0.278 A  
BRANCH  10  17
HETATM   17  C   UNL     1     -10.309   6.859  69.201  1.00  0.00    -0.195 C  
HETATM   18  O   UNL     1     -11.483   6.593  69.464  1.00  0.00    -0.320 OA 
HETATM   19  C   UNL     1      -7.846   6.564  69.856  1.00  0.00    -0.115 C  
HETATM   20  N   UNL     1      -9.282   6.463  70.080  1.00  0.00    -0.157 N  
BRANCH  20  21
HETATM   21  C   UNL     1      -9.659   5.864  71.390  1.00  0.00    -0.164 C  
BRANCH  21  22
HETATM   22  C   UNL     1      -9.087   4.435  71.585  1.00  0.00    -0.130 C  
HETATM   23  H   UNL     1      -8.715   3.199  73.093  1.00  0.00     0.000 HD 
HETATM   24  O   UNL     1      -9.065   4.075  72.974  1.00  0.00    -0.109 OA 
BRANCH  22  25
HETATM   25  C   UNL     1      -9.890   3.364  70.832  1.00  0.00    -0.037 C  
HETATM   26  H   UNL     1      -9.550   1.961  69.485  1.00  0.00     0.000 HD 
HETATM   27  O   UNL     1      -9.053   2.623  69.950  1.00  0.00    -0.089 OA 
ENDBRANCH  22  25
ENDBRANCH  21  22
ENDBRANCH  20  21
ENDBRANCH  10  17
BRANCH  16  28
HETATM   28  C   UNL     1     -10.306  11.268  66.642  1.00  0.00    -0.237 C  
HETATM   29  H   UNL     1      -8.421  11.829  67.374  1.00  0.00     0.000 HD 
HETATM   30  O   UNL     1     -11.403  11.643  66.263  1.00  0.00    -0.314 OA 
HETATM   31  N   UNL     1      -9.345  12.165  67.106  1.00  0.00    -0.188 N  
BRANCH  31  32
HETATM   32  C   UNL     1      -9.663  13.584  67.207  1.00  0.00    -0.236 C  
BRANCH  32  33
HETATM   33  C   UNL     1     -10.016  14.006  68.636  1.00  0.00    -0.203 C  
HETATM   34  O   UNL     1      -8.891  14.687  69.211  1.00  0.00    -0.372 OA 
HETATM   35  H   UNL     1      -9.110  14.949  70.098  1.00  0.00     0.000 HD 
BRANCH  33  36
HETATM   36  C   UNL     1     -11.264  14.904  68.657  1.00  0.00    -0.275 C  
HETATM   37  O   UNL     1     -12.429  14.198  68.236  1.00  0.00    -0.538 OA 
HETATM   38  H   UNL     1     -13.200  14.754  68.249  1.00  0.00     0.000 HD 
ENDBRANCH  33  36
ENDBRANCH  32  33
ENDBRANCH  31  32
ENDBRANCH  16  28
ENDBRANCH   6   8
ENDBRANCH   3   4
ENDBRANCH   2   3
TORSDOF 11
ENDMDL
MODEL       86
REMARK 921   NORMALIZED FREE ENERGY PREDICTED BY IDOCK:   -3.22 KCAL/MOL
REMARK 922        TOTAL FREE ENERGY PREDICTED BY IDOCK:   -6.42 KCAL/MOL
REMARK 923 INTER-LIGAND FREE ENERGY PREDICTED BY IDOCK:   -5.91 KCAL/MOL
REMARK 924 INTRA-LIGAND FREE ENERGY PREDICTED BY IDOCK:   -0.51 KCAL/MOL
REMARK 927      BINDING AFFINITY PREDICTED BY RF-SCORE:    0.00 PKD
ROOT
HETATM    1  C   UNL     1     -13.981   8.880  72.390  1.00  0.00    -0.448 C  
HETATM    2  O   UNL     1     -13.337   7.761  71.786  1.00  0.00    -0.332 OA 
ENDROOT
BRANCH   2   3
HETATM    3  C   UNL     1     -11.937   7.741  72.029  1.00  0.00    -0.308 C  
BRANCH   3   4
HETATM    4  C   UNL     1     -11.137   8.687  71.118  1.00  0.00    -0.266 C  
HETATM    5  O   UNL     1      -9.985   9.019  71.386  1.00  0.00    -0.276 OA 
HETATM    6  N   UNL     1     -11.820   9.101  69.968  1.00  0.00    -0.439 N  
HETATM    7  H   UNL     1     -12.789   8.828  69.798  1.00  0.00     0.000 HD 
BRANCH   6   8
HETATM    8  C   UNL     1     -11.105   9.920  69.045  1.00  0.00    -0.146 A  
HETATM    9  C   UNL     1     -11.172  11.334  69.123  1.00  0.00    -0.273 A  
HETATM   10  C   UNL     1     -10.249  12.155  68.411  1.00  0.00    -0.212 A  
HETATM   11  I   UNL     1     -12.708  12.142  70.396  1.00  0.00     0.397 I  
HETATM   12  C   UNL     1     -10.268   9.317  68.079  1.00  0.00    -0.209 A  
HETATM   13  C   UNL     1      -9.272  11.489  67.625  1.00  0.00    -0.171 A  
HETATM   14  I   UNL     1      -7.369  12.437  67.235  1.00  0.00     0.031 I  
HETATM   15  I   UNL     1     -10.552   7.208  67.701  1.00  0.00    -0.278 I  
HETATM   16  C   UNL     1      -9.373  10.102  67.328  1.00  0.00    -0.173 A  
BRANCH  10  17
HETATM   17  C   UNL     1     -10.257  13.648  68.631  1.00  0.00    -0.197 C  
HETATM   18  O   UNL     1      -9.553  14.077  69.548  1.00  0.00     0.368 OA 
HETATM   19  C   UNL     1     -11.838  14.225  66.694  1.00  0.00    -0.421 C  
HETATM   20  N   UNL     1     -11.064  14.534  67.890  1.00  0.00    -0.269 N  
BRANCH  20  21
HETATM   21  C   UNL     1     -11.162  15.951  68.336  1.00  0.00    -0.368 C  
BRANCH  21  22
HETATM   22  C   UNL     1     -10.436  16.933  67.381  1.00  0.00    -0.310 C  
HETATM   23  H   UNL     1      -9.283  18.542  67.533  1.00  0.00     0.000 HD 
HETATM   24  O   UNL     1      -9.727  17.940  68.119  1.00  0.00    -0.292 OA 
BRANCH  22  25
HETATM   25  C   UNL     1      -9.432  16.231  66.455  1.00  0.00    -0.294 C  
HETATM   26  H   UNL     1      -7.822  16.709  65.415  1.00  0.00     0.000 HD 
HETATM   27  O   UNL     1      -8.443  17.143  65.988  1.00  0.00    -0.482 OA 
ENDBRANCH  22  25
ENDBRANCH  21  22
ENDBRANCH  20  21
ENDBRANCH  10  17
BRANCH  16  28
HETATM   28  C   UNL     1      -8.584   9.482  66.217  1.00  0.00    -0.130 C  
HETATM   29  H   UNL     1      -7.245   8.613  67.581  1.00  0.00     0.000 HD 
HETATM   30  O   UNL     1      -8.879   9.645  65.045  1.00  0.00    -0.161 OA 
HETATM   31  N   UNL     1      -7.444   8.772  66.593  1.00  0.00    -0.085 N  
BRANCH  31  32
HETATM   32  C   UNL     1      -6.538   8.258  65.574  1.00  0.00    -0.049 C  
BRANCH  32  33
HETATM   33  C   UNL     1      -5.523   7.261  66.142  1.00  0.00    -0.027 C  
HETATM   34  O   UNL     1      -5.538   7.348  67.575  1.00  0.00    -0.030 OA 
HETATM   35  H   UNL     1      -4.908   6.730  67.927  1.00  0.00     0.000 HD 
BRANCH  33  36
HETATM   36  C   UNL     1      -5.837   5.827  65.682  1.00  0.00    -0.021 C  
HETATM   37  O   UNL     1      -6.301   5.018  66.760  1.00  0.00    -0.037 OA 
HETATM   38  H   UNL     1      -6.495   4.132  66.476  1.00  0.00     0.000 HD 
ENDBRANCH  33  36
ENDBRANCH  32  33
ENDBRANCH  31  32
ENDBRANCH  16  28
ENDBRANCH   6   8
ENDBRANCH   3   4
ENDBRANCH   2   3
TORSDOF 11
ENDMDL
MODEL       87
REMARK 921   NORMALIZED FREE ENERGY PREDICTED BY IDOCK:   -3.20 KCAL/MOL
REMARK 922        TOTAL FREE ENERGY PREDICTED BY IDOCK:   -6.39 KCAL/MOL
REMARK 923 INTER-LIGAND FREE ENERGY PREDICTED BY IDOCK:   -6.13 KCAL/MOL
REMARK 924 INTRA-LIGAND FREE ENERGY PREDICTED BY IDOCK:   -0.26 KCAL/MOL
REMARK 927      BINDING AFFINITY PREDICTED BY RF-SCORE:    0.00 PKD
ROOT
HETATM    1  C   UNL     1     -13.046  14.566  71.404  1.00  0.00    -0.353 C  
HETATM    2  O   UNL     1     -12.557  13.352  70.841  1.00  0.00    -0.352 OA 
ENDROOT
BRANCH   2   3
HETATM    3  C   UNL     1     -12.233  13.480  69.463  1.00  0.00    -0.236 C  
BRANCH   3   4
HETATM    4  C   UNL     1     -11.528  12.246  68.875  1.00  0.00    -0.304 C  
HETATM    5  O   UNL     1     -11.883  11.747  67.810  1.00  0.00    -0.541 OA 
HETATM    6  N   UNL     1     -10.452  11.776  69.636  1.00  0.00    -0.298 N  
HETATM    7  H   UNL     1     -10.208  12.199  70.532  1.00  0.00     0.000 HD 
BRANCH   6   8
HETATM    8  C   UNL     1      -9.710  10.678  69.106  1.00  0.00    -0.189 A  
HETATM    9  C   UNL     1     -10.034   9.344  69.454  1.00  0.00    -0.183 A  
HETATM   10  C   UNL     1      -9.506   8.241  68.720  1.00  0.00    -0.148 A  
HETATM   11  I   UNL     1     -11.384   9.098  71.112  1.00  0.00    -0.477 I  
HETATM   12  C   UNL     1      -8.677  10.921  68.171  1.00  0.00    -0.133 A  
HETATM   13  C   UNL     1      -8.644   8.548  67.635  1.00  0.00    -0.133 A  
HETATM   14  I   UNL     1      -8.484   7.188  65.963  1.00  0.00    -0.137 I  
HETATM   15  I   UNL     1      -7.924  12.942  68.030  1.00  0.00    -0.189 I  
HETATM   16  C   UNL     1      -8.103   9.852  67.458  1.00  0.00    -0.110 A  
BRANCH  10  17
HETATM   17  C   UNL     1      -9.988   6.844  69.026  1.00  0.00    -0.158 C  
HETATM   18  O   UNL     1     -11.057   6.503  68.518  1.00  0.00    -0.296 OA 
HETATM   19  C   UNL     1      -7.978   6.147  70.461  1.00  0.00    -0.111 C  
HETATM   20  N   UNL     1      -9.309   5.967  69.894  1.00  0.00    -0.148 N  
BRANCH  20  21
HETATM   21  C   UNL     1      -9.982   4.702  70.299  1.00  0.00    -0.239 C  
BRANCH  21  22
HETATM   22  C   UNL     1      -9.493   3.474  69.487  1.00  0.00    -0.165 C  
HETATM   23  H   UNL     1      -9.424   2.908  67.586  1.00  0.00     0.000 HD 
HETATM   24  O   UNL     1      -9.724   3.660  68.083  1.00  0.00    -0.137 OA 
BRANCH  22  25
HETATM   25  C   UNL     1      -7.998   3.185  69.686  1.00  0.00    -0.048 C  
HETATM   26  H   UNL     1      -6.560   2.212  68.745  1.00  0.00     0.000 HD 
HETATM   27  O   UNL     1      -7.484   2.391  68.622  1.00  0.00    -0.047 OA 
ENDBRANCH  22  25
ENDBRANCH  21  22
ENDBRANCH  20  21
ENDBRANCH  10  17
BRANCH  16  28
HETATM   28  C   UNL     1      -6.925  10.093  66.568  1.00  0.00    -0.102 C  
HETATM   29  H   UNL     1      -8.169  10.339  64.895  1.00  0.00     0.000 HD 
HETATM   30  O   UNL     1      -5.780  10.065  66.989  1.00  0.00    -0.046 OA 
HETATM   31  N   UNL     1      -7.202  10.274  65.213  1.00  0.00    -0.141 N  
BRANCH  31  32
HETATM   32  C   UNL     1      -6.110  10.372  64.253  1.00  0.00    -0.081 C  
BRANCH  32  33
HETATM   33  C   UNL     1      -6.491   9.825  62.874  1.00  0.00    -0.110 C  
HETATM   34  O   UNL     1      -5.761   8.612  62.637  1.00  0.00    -0.081 OA 
HETATM   35  H   UNL     1      -5.998   8.273  61.781  1.00  0.00     0.000 HD 
BRANCH  33  36
HETATM   36  C   UNL     1      -8.006   9.575  62.775  1.00  0.00    -0.126 C  
HETATM   37  O   UNL     1      -8.313   8.183  62.805  1.00  0.00    -0.309 OA 
HETATM   38  H   UNL     1      -9.249   8.029  62.744  1.00  0.00     0.000 HD 
ENDBRANCH  33  36
ENDBRANCH  32  33
ENDBRANCH  31  32
ENDBRANCH  16  28
ENDBRANCH   6   8
ENDBRANCH   3   4
ENDBRANCH   2   3
TORSDOF 11
ENDMDL
MODEL       88
REMARK 921   NORMALIZED FREE ENERGY PREDICTED BY IDOCK:   -3.20 KCAL/MOL
REMARK 922        TOTAL FREE ENERGY PREDICTED BY IDOCK:   -6.38 KCAL/MOL
REMARK 923 INTER-LIGAND FREE ENERGY PREDICTED BY IDOCK:   -6.28 KCAL/MOL
REMARK 924 INTRA-LIGAND FREE ENERGY PREDICTED BY IDOCK:   -0.09 KCAL/MOL
REMARK 927      BINDING AFFINITY PREDICTED BY RF-SCORE:    0.00 PKD
ROOT
HETATM    1  C   UNL     1      -6.262  19.037  65.986  1.00  0.00    -0.191 C  
HETATM    2  O   UNL     1      -5.801  18.425  67.187  1.00  0.00    -0.148 OA 
ENDROOT
BRANCH   2   3
HETATM    3  C   UNL     1      -5.388  17.079  66.990  1.00  0.00    -0.155 C  
BRANCH   3   4
HETATM    4  C   UNL     1      -6.213  16.054  67.787  1.00  0.00    -0.143 C  
HETATM    5  O   UNL     1      -6.124  15.965  69.009  1.00  0.00    -0.115 OA 
HETATM    6  N   UNL     1      -7.075  15.273  67.008  1.00  0.00    -0.131 N  
HETATM    7  H   UNL     1      -7.095  15.356  65.991  1.00  0.00     0.000 HD 
BRANCH   6   8
HETATM    8  C   UNL     1      -7.922  14.355  67.697  1.00  0.00    -0.179 A  
HETATM    9  C   UNL     1      -9.204  14.749  68.155  1.00  0.00    -0.195 A  
HETATM   10  C   UNL     1     -10.165  13.785  68.576  1.00  0.00    -0.235 A  
HETATM   11  I   UNL     1      -9.608  16.864  68.135  1.00  0.00    -0.286 I  
HETATM   12  C   UNL     1      -7.504  13.016  67.872  1.00  0.00    -0.137 A  
HETATM   13  C   UNL     1      -9.773  12.421  68.516  1.00  0.00    -0.136 A  
HETATM   14  I   UNL     1     -11.264  10.879  68.254  1.00  0.00    -0.335 I  
HETATM   15  I   UNL     1      -5.406  12.587  67.584  1.00  0.00    -0.043 I  
HETATM   16  C   UNL     1      -8.415  12.043  68.325  1.00  0.00    -0.167 A  
BRANCH  10  17
HETATM   17  C   UNL     1     -11.567  14.229  68.917  1.00  0.00    -0.305 C  
HETATM   18  O   UNL     1     -12.425  14.073  68.046  1.00  0.00    -0.110 OA 
HETATM   19  C   UNL     1     -11.060  14.987  71.316  1.00  0.00    -0.133 C  
HETATM   20  N   UNL     1     -11.903  14.854  70.134  1.00  0.00    -0.288 N  
BRANCH  20  21
HETATM   21  C   UNL     1     -13.260  15.450  70.277  1.00  0.00     0.032 C  
BRANCH  21  22
HETATM   22  C   UNL     1     -14.097  14.781  71.397  1.00  0.00    -0.428 C  
HETATM   23  H   UNL     1     -14.116  13.055  72.378  1.00  0.00     0.000 HD 
HETATM   24  O   UNL     1     -13.603  13.465  71.692  1.00  0.00    -0.336 OA 
BRANCH  22  25
HETATM   25  C   UNL     1     -14.097  15.588  72.704  1.00  0.00    -0.450 C  
HETATM   26  H   UNL     1     -13.248  15.487  74.484  1.00  0.00     0.000 HD 
HETATM   27  O   UNL     1     -13.247  14.988  73.676  1.00  0.00    -0.482 OA 
ENDBRANCH  22  25
ENDBRANCH  21  22
ENDBRANCH  20  21
ENDBRANCH  10  17
BRANCH  16  28
HETATM   28  C   UNL     1      -7.940  10.658  68.634  1.00  0.00    -0.128 C  
HETATM   29  H   UNL     1      -7.800  11.104  70.680  1.00  0.00     0.000 HD 
HETATM   30  O   UNL     1      -7.780   9.820  67.762  1.00  0.00    -0.090 OA 
HETATM   31  N   UNL     1      -7.615  10.401  69.965  1.00  0.00    -0.116 N  
BRANCH  31  32
HETATM   32  C   UNL     1      -7.009   9.128  70.333  1.00  0.00    -0.071 C  
BRANCH  32  33
HETATM   33  C   UNL     1      -7.927   8.275  71.214  1.00  0.00    -0.111 C  
HETATM   34  O   UNL     1      -8.929   9.122  71.798  1.00  0.00    -0.345 OA 
HETATM   35  H   UNL     1      -9.498   8.593  72.345  1.00  0.00     0.000 HD 
BRANCH  33  36
HETATM   36  C   UNL     1      -8.579   7.142  70.404  1.00  0.00    -0.142 C  
HETATM   37  O   UNL     1     -10.001   7.170  70.508  1.00  0.00    -0.187 OA 
HETATM   38  H   UNL     1     -10.404   6.470  70.007  1.00  0.00     0.000 HD 
ENDBRANCH  33  36
ENDBRANCH  32  33
ENDBRANCH  31  32
ENDBRANCH  16  28
ENDBRANCH   6   8
ENDBRANCH   3   4
ENDBRANCH   2   3
TORSDOF 11
ENDMDL
MODEL       89
REMARK 921   NORMALIZED FREE ENERGY PREDICTED BY IDOCK:   -3.18 KCAL/MOL
REMARK 922        TOTAL FREE ENERGY PREDICTED BY IDOCK:   -6.35 KCAL/MOL
REMARK 923 INTER-LIGAND FREE ENERGY PREDICTED BY IDOCK:   -5.66 KCAL/MOL
REMARK 924 INTRA-LIGAND FREE ENERGY PREDICTED BY IDOCK:   -0.69 KCAL/MOL
REMARK 927      BINDING AFFINITY PREDICTED BY RF-SCORE:    0.00 PKD
ROOT
HETATM    1  C   UNL     1      -5.257   8.579  62.523  1.00  0.00    -0.070 C  
HETATM    2  O   UNL     1      -5.231   9.928  62.982  1.00  0.00    -0.083 OA 
ENDROOT
BRANCH   2   3
HETATM    3  C   UNL     1      -6.532  10.491  63.093  1.00  0.00    -0.036 C  
BRANCH   3   4
HETATM    4  C   UNL     1      -7.390   9.855  64.200  1.00  0.00    -0.133 C  
HETATM    5  O   UNL     1      -8.375   9.169  63.938  1.00  0.00    -0.164 OA 
HETATM    6  N   UNL     1      -6.936  10.104  65.500  1.00  0.00    -0.125 N  
HETATM    7  H   UNL     1      -6.131  10.707  65.677  1.00  0.00     0.000 HD 
BRANCH   6   8
HETATM    8  C   UNL     1      -7.647   9.480  66.568  1.00  0.00    -0.094 A  
HETATM    9  C   UNL     1      -8.745  10.127  67.188  1.00  0.00    -0.129 A  
HETATM   10  C   UNL     1      -9.636   9.411  68.041  1.00  0.00    -0.156 A  
HETATM   11  I   UNL     1      -8.995  12.216  66.733  1.00  0.00    -0.121 I  
HETATM   12  C   UNL     1      -7.292   8.173  66.973  1.00  0.00    -0.088 A  
HETATM   13  C   UNL     1      -9.366   8.031  68.237  1.00  0.00    -0.140 A  
HETATM   14  I   UNL     1     -10.977   6.671  68.707  1.00  0.00    -0.220 I  
HETATM   15  I   UNL     1      -5.365   7.429  66.338  1.00  0.00    -0.025 I  
HETATM   16  C   UNL     1      -8.127   7.451  67.846  1.00  0.00    -0.119 A  
BRANCH  10  17
HETATM   17  C   UNL     1     -10.875  10.095  68.565  1.00  0.00    -0.237 C  
HETATM   18  O   UNL     1     -11.660  10.539  67.725  1.00  0.00    -0.462 OA 
HETATM   19  C   UNL     1     -10.390   9.716  71.056  1.00  0.00    -0.222 C  
HETATM   20  N   UNL     1     -11.126  10.292  69.937  1.00  0.00    -0.283 N  
BRANCH  20  21
HETATM   21  C   UNL     1     -12.261  11.169  70.335  1.00  0.00    -0.369 C  
BRANCH  21  22
HETATM   22  C   UNL     1     -11.859  12.663  70.437  1.00  0.00    -0.154 C  
HETATM   23  H   UNL     1     -11.706  14.226  69.222  1.00  0.00     0.000 HD 
HETATM   24  O   UNL     1     -11.953  13.310  69.159  1.00  0.00    -0.309 OA 
BRANCH  22  25
HETATM   25  C   UNL     1     -12.731  13.448  71.429  1.00  0.00    -0.322 C  
HETATM   26  H   UNL     1     -13.641  15.200  71.505  1.00  0.00     0.000 HD 
HETATM   27  O   UNL     1     -13.102  14.715  70.892  1.00  0.00    -0.355 OA 
ENDBRANCH  22  25
ENDBRANCH  21  22
ENDBRANCH  20  21
ENDBRANCH  10  17
BRANCH  16  28
HETATM   28  C   UNL     1      -7.686   6.123  68.376  1.00  0.00    -0.103 C  
HETATM   29  H   UNL     1      -8.057   5.202  66.527  1.00  0.00     0.000 HD 
HETATM   30  O   UNL     1      -7.321   5.976  69.530  1.00  0.00    -0.072 OA 
HETATM   31  N   UNL     1      -7.792   5.044  67.499  1.00  0.00    -0.095 N  
BRANCH  31  32
HETATM   32  C   UNL     1      -7.523   3.692  67.971  1.00  0.00    -0.062 C  
BRANCH  32  33
HETATM   33  C   UNL     1      -8.418   2.647  67.299  1.00  0.00    -0.097 C  
HETATM   34  O   UNL     1      -9.616   2.494  68.074  1.00  0.00    -0.282 OA 
HETATM   35  H   UNL     1     -10.172   1.845  67.657  1.00  0.00     0.000 HD 
BRANCH  33  36
HETATM   36  C   UNL     1      -8.755   3.051  65.854  1.00  0.00    -0.131 C  
HETATM   37  O   UNL     1     -10.102   3.502  65.733  1.00  0.00    -0.408 OA 
HETATM   38  H   UNL     1     -10.310   3.752  64.840  1.00  0.00     0.000 HD 
ENDBRANCH  33  36
ENDBRANCH  32  33
ENDBRANCH  31  32
ENDBRANCH  16  28
ENDBRANCH   6   8
ENDBRANCH   3   4
ENDBRANCH   2   3
TORSDOF 11
ENDMDL
MODEL       90
REMARK 921   NORMALIZED FREE ENERGY PREDICTED BY IDOCK:   -3.14 KCAL/MOL
REMARK 922        TOTAL FREE ENERGY PREDICTED BY IDOCK:   -6.28 KCAL/MOL
REMARK 923 INTER-LIGAND FREE ENERGY PREDICTED BY IDOCK:   -6.28 KCAL/MOL
REMARK 924 INTRA-LIGAND FREE ENERGY PREDICTED BY IDOCK:    0.01 KCAL/MOL
REMARK 927      BINDING AFFINITY PREDICTED BY RF-SCORE:    0.00 PKD
ROOT
HETATM    1  C   UNL     1      -7.739   7.683  74.148  1.00  0.00    -0.155 C  
HETATM    2  O   UNL     1      -8.284   6.393  73.886  1.00  0.00    -0.108 OA 
ENDROOT
BRANCH   2   3
HETATM    3  C   UNL     1      -7.706   5.779  72.742  1.00  0.00    -0.097 C  
BRANCH   3   4
HETATM    4  C   UNL     1      -8.050   6.484  71.419  1.00  0.00    -0.112 C  
HETATM    5  O   UNL     1      -7.223   7.166  70.819  1.00  0.00    -0.068 OA 
HETATM    6  N   UNL     1      -9.354   6.258  70.964  1.00  0.00    -0.160 N  
HETATM    7  H   UNL     1     -10.021   5.711  71.509  1.00  0.00     0.000 HD 
BRANCH   6   8
HETATM    8  C   UNL     1      -9.710   6.825  69.704  1.00  0.00    -0.155 A  
HETATM    9  C   UNL     1     -10.304   8.109  69.625  1.00  0.00    -0.221 A  
HETATM   10  C   UNL     1     -10.395   8.804  68.384  1.00  0.00    -0.242 A  
HETATM   11  I   UNL     1     -11.013   8.941  71.479  1.00  0.00    -0.455 I  
HETATM   12  C   UNL     1      -9.410   6.125  68.513  1.00  0.00    -0.117 A  
HETATM   13  C   UNL     1      -9.867   8.147  67.241  1.00  0.00    -0.197 A  
HETATM   14  I   UNL     1      -9.132   9.306  65.572  1.00  0.00    -0.244 I  
HETATM   15  I   UNL     1      -8.944   4.022  68.692  1.00  0.00    -0.213 I  
HETATM   16  C   UNL     1      -9.527   6.766  67.266  1.00  0.00    -0.156 A  
BRANCH  10  17
HETATM   17  C   UNL     1     -10.900  10.227  68.362  1.00  0.00    -0.245 C  
HETATM   18  O   UNL     1     -12.116  10.381  68.234  1.00  0.00    -0.187 OA 
HETATM   19  C   UNL     1      -8.621  11.354  68.708  1.00  0.00    -0.083 C  
HETATM   20  N   UNL     1     -10.049  11.348  68.417  1.00  0.00    -0.195 N  
BRANCH  20  21
HETATM   21  C   UNL     1     -10.630  12.695  68.165  1.00  0.00    -0.228 C  
BRANCH  21  22
HETATM   22  C   UNL     1     -10.650  13.070  66.660  1.00  0.00    -0.266 C  
HETATM   23  H   UNL     1     -10.223  12.200  64.928  1.00  0.00     0.000 HD 
HETATM   24  O   UNL     1     -10.211  11.970  65.850  1.00  0.00    -0.220 OA 
BRANCH  22  25
HETATM   25  C   UNL     1     -12.044  13.490  66.170  1.00  0.00    -0.436 C  
HETATM   26  H   UNL     1     -13.522  12.706  65.120  1.00  0.00     0.000 HD 
HETATM   27  O   UNL     1     -12.660  12.446  65.423  1.00  0.00    -0.637 OA 
ENDBRANCH  22  25
ENDBRANCH  21  22
ENDBRANCH  20  21
ENDBRANCH  10  17
BRANCH  16  28
HETATM   28  C   UNL     1      -9.336   5.987  66.003  1.00  0.00    -0.076 C  
HETATM   29  H   UNL     1     -11.190   5.034  66.245  1.00  0.00     0.000 HD 
HETATM   30  O   UNL     1      -8.329   6.095  65.323  1.00  0.00    -0.145 OA 
HETATM   31  N   UNL     1     -10.339   5.072  65.685  1.00  0.00    -0.098 N  
BRANCH  31  32
HETATM   32  C   UNL     1     -10.170   4.169  64.554  1.00  0.00    -0.157 C  
BRANCH  32  33
HETATM   33  C   UNL     1      -9.518   2.842  64.954  1.00  0.00    -0.123 C  
HETATM   34  O   UNL     1     -10.267   1.763  64.376  1.00  0.00    -0.336 OA 
HETATM   35  H   UNL     1      -9.863   0.940  64.625  1.00  0.00     0.000 HD 
BRANCH  33  36
HETATM   36  C   UNL     1      -8.049   2.786  64.502  1.00  0.00    -0.082 C  
HETATM   37  O   UNL     1      -7.793   3.691  63.430  1.00  0.00    -0.070 OA 
HETATM   38  H   UNL     1      -6.885   3.656  63.150  1.00  0.00     0.000 HD 
ENDBRANCH  33  36
ENDBRANCH  32  33
ENDBRANCH  31  32
ENDBRANCH  16  28
ENDBRANCH   6   8
ENDBRANCH   3   4
ENDBRANCH   2   3
TORSDOF 11
ENDMDL
MODEL       91
REMARK 921   NORMALIZED FREE ENERGY PREDICTED BY IDOCK:   -3.13 KCAL/MOL
REMARK 922        TOTAL FREE ENERGY PREDICTED BY IDOCK:   -6.27 KCAL/MOL
REMARK 923 INTER-LIGAND FREE ENERGY PREDICTED BY IDOCK:   -5.66 KCAL/MOL
REMARK 924 INTRA-LIGAND FREE ENERGY PREDICTED BY IDOCK:   -0.61 KCAL/MOL
REMARK 927      BINDING AFFINITY PREDICTED BY RF-SCORE:    0.00 PKD
ROOT
HETATM    1  C   UNL     1      -9.857   5.342  72.588  1.00  0.00    -0.160 C  
HETATM    2  O   UNL     1     -10.879   6.191  72.071  1.00  0.00    -0.227 OA 
ENDROOT
BRANCH   2   3
HETATM    3  C   UNL     1     -10.482   7.555  72.024  1.00  0.00    -0.208 C  
BRANCH   3   4
HETATM    4  C   UNL     1      -9.775   7.950  70.716  1.00  0.00    -0.172 C  
HETATM    5  O   UNL     1      -8.571   8.193  70.683  1.00  0.00    -0.124 OA 
HETATM    6  N   UNL     1     -10.608   7.977  69.592  1.00  0.00    -0.228 N  
HETATM    7  H   UNL     1     -11.610   7.799  69.668  1.00  0.00     0.000 HD 
BRANCH   6   8
HETATM    8  C   UNL     1      -9.996   8.263  68.336  1.00  0.00    -0.190 A  
HETATM    9  C   UNL     1     -10.054   9.565  67.778  1.00  0.00    -0.198 A  
HETATM   10  C   UNL     1      -9.213   9.938  66.688  1.00  0.00    -0.185 A  
HETATM   11  I   UNL     1     -11.442  10.930  68.696  1.00  0.00    -0.278 I  
HETATM   12  C   UNL     1      -9.270   7.253  67.666  1.00  0.00    -0.126 A  
HETATM   13  C   UNL     1      -8.328   8.944  66.193  1.00  0.00    -0.122 A  
HETATM   14  I   UNL     1      -6.478   9.524  65.238  1.00  0.00    -0.094 I  
HETATM   15  I   UNL     1      -9.595   5.213  68.302  1.00  0.00    -0.202 I  
HETATM   16  C   UNL     1      -8.462   7.576  66.560  1.00  0.00    -0.131 A  
BRANCH  10  17
HETATM   17  C   UNL     1      -9.196  11.371  66.217  1.00  0.00    -0.208 C  
HETATM   18  O   UNL     1      -8.485  12.154  66.849  1.00  0.00    -0.185 OA 
HETATM   19  C   UNL     1     -10.766  11.042  64.213  1.00  0.00    -0.278 C  
HETATM   20  N   UNL     1      -9.988  11.842  65.151  1.00  0.00    -0.250 N  
BRANCH  20  21
HETATM   21  C   UNL     1     -10.062  13.310  64.914  1.00  0.00    -0.226 C  
BRANCH  21  22
HETATM   22  C   UNL     1     -11.386  13.937  65.424  1.00  0.00    -0.309 C  
HETATM   23  H   UNL     1     -12.241  14.333  67.171  1.00  0.00     0.000 HD 
HETATM   24  O   UNL     1     -11.429  13.949  66.859  1.00  0.00    -0.321 OA 
BRANCH  22  25
HETATM   25  C   UNL     1     -11.591  15.377  64.933  1.00  0.00    -0.248 C  
HETATM   26  H   UNL     1     -10.486  16.980  64.603  1.00  0.00     0.000 HD 
HETATM   27  O   UNL     1     -10.358  16.090  64.907  1.00  0.00    -0.543 OA 
ENDBRANCH  22  25
ENDBRANCH  21  22
ENDBRANCH  20  21
ENDBRANCH  10  17
BRANCH  16  28
HETATM   28  C   UNL     1      -7.798   6.489  65.774  1.00  0.00    -0.104 C  
HETATM   29  H   UNL     1      -9.374   6.455  64.388  1.00  0.00     0.000 HD 
HETATM   30  O   UNL     1      -6.731   6.006  66.113  1.00  0.00    -0.056 OA 
HETATM   31  N   UNL     1      -8.506   6.004  64.675  1.00  0.00    -0.063 N  
BRANCH  31  32
HETATM   32  C   UNL     1      -8.004   4.851  63.938  1.00  0.00    -0.098 C  
BRANCH  32  33
HETATM   33  C   UNL     1      -6.635   5.111  63.304  1.00  0.00    -0.026 C  
HETATM   34  O   UNL     1      -6.219   3.932  62.598  1.00  0.00    -0.017 OA 
HETATM   35  H   UNL     1      -5.368   4.093  62.204  1.00  0.00     0.000 HD 
BRANCH  33  36
HETATM   36  C   UNL     1      -6.682   6.322  62.358  1.00  0.00    -0.037 C  
HETATM   37  O   UNL     1      -5.797   7.357  62.782  1.00  0.00    -0.048 OA 
HETATM   38  H   UNL     1      -5.826   8.106  62.197  1.00  0.00     0.000 HD 
ENDBRANCH  33  36
ENDBRANCH  32  33
ENDBRANCH  31  32
ENDBRANCH  16  28
ENDBRANCH   6   8
ENDBRANCH   3   4
ENDBRANCH   2   3
TORSDOF 11
ENDMDL
MODEL       92
REMARK 921   NORMALIZED FREE ENERGY PREDICTED BY IDOCK:   -2.99 KCAL/MOL
REMARK 922        TOTAL FREE ENERGY PREDICTED BY IDOCK:   -6.03 KCAL/MOL
REMARK 923 INTER-LIGAND FREE ENERGY PREDICTED BY IDOCK:   -5.68 KCAL/MOL
REMARK 924 INTRA-LIGAND FREE ENERGY PREDICTED BY IDOCK:   -0.35 KCAL/MOL
REMARK 927      BINDING AFFINITY PREDICTED BY RF-SCORE:    0.00 PKD
ROOT
HETATM    1  C   UNL     1      -8.198   9.609  62.470  1.00  0.00    -0.139 C  
HETATM    2  O   UNL     1      -9.083   9.625  63.587  1.00  0.00    -0.242 OA 
ENDROOT
BRANCH   2   3
HETATM    3  C   UNL     1      -8.639   8.789  64.647  1.00  0.00    -0.113 C  
BRANCH   3   4
HETATM    4  C   UNL     1      -8.837   9.401  66.044  1.00  0.00    -0.156 C  
HETATM    5  O   UNL     1      -7.912   9.487  66.847  1.00  0.00    -0.108 OA 
HETATM    6  N   UNL     1     -10.134   9.865  66.295  1.00  0.00    -0.246 N  
HETATM    7  H   UNL     1     -10.883   9.746  65.612  1.00  0.00     0.000 HD 
BRANCH   6   8
HETATM    8  C   UNL     1     -10.363  10.512  67.546  1.00  0.00    -0.223 A  
HETATM    9  C   UNL     1     -10.151  11.905  67.695  1.00  0.00    -0.191 A  
HETATM   10  C   UNL     1     -10.646  12.608  68.832  1.00  0.00    -0.157 A  
HETATM   11  I   UNL     1      -9.083  12.878  66.099  1.00  0.00     0.444 I  
HETATM   12  C   UNL     1     -10.867   9.766  68.635  1.00  0.00    -0.188 A  
HETATM   13  C   UNL     1     -11.353  11.845  69.799  1.00  0.00    -0.147 A  
HETATM   14  I   UNL     1     -12.855  12.790  71.033  1.00  0.00     0.110 I  
HETATM   15  I   UNL     1     -10.735   7.612  68.506  1.00  0.00     0.149 I  
HETATM   16  C   UNL     1     -11.328  10.423  69.791  1.00  0.00    -0.353 A  
BRANCH  10  17
HETATM   17  C   UNL     1     -10.530  14.112  68.887  1.00  0.00    -0.222 C  
HETATM   18  O   UNL     1      -9.704  14.575  69.676  1.00  0.00     0.115 OA 
HETATM   19  C   UNL     1     -12.266  14.609  67.064  1.00  0.00    -0.073 C  
HETATM   20  N   UNL     1     -11.350  14.977  68.137  1.00  0.00    -0.317 N  
BRANCH  20  21
HETATM   21  C   UNL     1     -11.304  16.436  68.431  1.00  0.00    -0.268 C  
BRANCH  21  22
HETATM   22  C   UNL     1     -10.411  17.222  67.436  1.00  0.00    -0.338 C  
HETATM   23  H   UNL     1     -10.278  19.075  66.737  1.00  0.00     0.000 HD 
HETATM   24  O   UNL     1     -10.825  18.594  67.347  1.00  0.00    -0.439 OA 
BRANCH  22  25
HETATM   25  C   UNL     1      -8.925  17.202  67.825  1.00  0.00    -0.226 C  
HETATM   26  H   UNL     1      -7.568  18.481  68.475  1.00  0.00     0.000 HD 
HETATM   27  O   UNL     1      -8.486  18.493  68.235  1.00  0.00    -0.300 OA 
ENDBRANCH  22  25
ENDBRANCH  21  22
ENDBRANCH  20  21
ENDBRANCH  10  17
BRANCH  16  28
HETATM   28  C   UNL     1     -11.739   9.629  70.991  1.00  0.00    -0.353 C  
HETATM   29  H   UNL     1      -9.748   9.472  71.636  1.00  0.00     0.000 HD 
HETATM   30  O   UNL     1     -12.903   9.335  71.204  1.00  0.00    -0.299 OA 
HETATM   31  N   UNL     1     -10.707   9.175  71.812  1.00  0.00    -0.366 N  
BRANCH  31  32
HETATM   32  C   UNL     1     -11.001   8.275  72.920  1.00  0.00    -0.115 C  
BRANCH  32  33
HETATM   33  C   UNL     1     -10.241   6.950  72.817  1.00  0.00    -0.192 C  
HETATM   34  O   UNL     1      -9.936   6.485  74.140  1.00  0.00    -0.256 OA 
HETATM   35  H   UNL     1      -9.464   5.662  74.077  1.00  0.00     0.000 HD 
BRANCH  33  36
HETATM   36  C   UNL     1     -11.059   5.899  72.047  1.00  0.00    -0.274 C  
HETATM   37  O   UNL     1     -10.506   4.592  72.191  1.00  0.00    -0.197 OA 
HETATM   38  H   UNL     1     -11.012   3.943  71.715  1.00  0.00     0.000 HD 
ENDBRANCH  33  36
ENDBRANCH  32  33
ENDBRANCH  31  32
ENDBRANCH  16  28
ENDBRANCH   6   8
ENDBRANCH   3   4
ENDBRANCH   2   3
TORSDOF 11
ENDMDL
MODEL       93
REMARK 921   NORMALIZED FREE ENERGY PREDICTED BY IDOCK:   -2.93 KCAL/MOL
REMARK 922        TOTAL FREE ENERGY PREDICTED BY IDOCK:   -5.94 KCAL/MOL
REMARK 923 INTER-LIGAND FREE ENERGY PREDICTED BY IDOCK:   -4.47 KCAL/MOL
REMARK 924 INTRA-LIGAND FREE ENERGY PREDICTED BY IDOCK:   -1.47 KCAL/MOL
REMARK 927      BINDING AFFINITY PREDICTED BY RF-SCORE:    0.00 PKD
ROOT
HETATM    1  C   UNL     1      -7.729   2.108  66.310  1.00  0.00    -0.071 C  
HETATM    2  O   UNL     1      -8.091   2.950  65.219  1.00  0.00    -0.085 OA 
ENDROOT
BRANCH   2   3
HETATM    3  C   UNL     1      -7.144   3.986  64.992  1.00  0.00    -0.062 C  
BRANCH   3   4
HETATM    4  C   UNL     1      -7.173   5.095  66.058  1.00  0.00    -0.073 C  
HETATM    5  O   UNL     1      -6.167   5.406  66.691  1.00  0.00    -0.032 OA 
HETATM    6  N   UNL     1      -8.417   5.718  66.213  1.00  0.00    -0.122 N  
HETATM    7  H   UNL     1      -9.236   5.408  65.690  1.00  0.00     0.000 HD 
BRANCH   6   8
HETATM    8  C   UNL     1      -8.489   6.805  67.134  1.00  0.00    -0.120 A  
HETATM    9  C   UNL     1      -8.779   6.582  68.503  1.00  0.00    -0.122 A  
HETATM   10  C   UNL     1      -8.568   7.602  69.477  1.00  0.00    -0.132 A  
HETATM   11  I   UNL     1      -9.507   4.621  69.010  1.00  0.00    -0.227 I  
HETATM   12  C   UNL     1      -8.207   8.117  66.689  1.00  0.00    -0.103 A  
HETATM   13  C   UNL     1      -8.062   8.842  69.006  1.00  0.00    -0.115 A  
HETATM   14  I   UNL     1      -6.900  10.104  70.320  1.00  0.00     0.019 I  
HETATM   15  I   UNL     1      -8.231   8.465  64.556  1.00  0.00    -0.017 I  
HETATM   16  C   UNL     1      -8.034   9.158  67.619  1.00  0.00    -0.100 A  
BRANCH  10  17
HETATM   17  C   UNL     1      -8.748   7.283  70.941  1.00  0.00    -0.148 C  
HETATM   18  O   UNL     1      -7.889   6.569  71.461  1.00  0.00    -0.098 OA 
HETATM   19  C   UNL     1     -10.884   8.663  71.284  1.00  0.00    -0.260 C  
HETATM   20  N   UNL     1      -9.861   7.708  71.692  1.00  0.00    -0.161 N  
BRANCH  20  21
HETATM   21  C   UNL     1     -10.049   7.154  73.061  1.00  0.00    -0.228 C  
BRANCH  21  22
HETATM   22  C   UNL     1     -11.029   5.952  73.094  1.00  0.00    -0.253 C  
HETATM   23  H   UNL     1     -12.293   5.058  71.852  1.00  0.00     0.000 HD 
HETATM   24  O   UNL     1     -11.692   5.794  71.831  1.00  0.00    -0.204 OA 
BRANCH  22  25
HETATM   25  C   UNL     1     -10.332   4.625  73.431  1.00  0.00    -0.185 C  
HETATM   26  H   UNL     1      -8.624   4.032  74.224  1.00  0.00     0.000 HD 
HETATM   27  O   UNL     1      -9.054   4.852  74.016  1.00  0.00    -0.113 OA 
ENDBRANCH  22  25
ENDBRANCH  21  22
ENDBRANCH  20  21
ENDBRANCH  10  17
BRANCH  16  28
HETATM   28  C   UNL     1      -7.865  10.567  67.144  1.00  0.00    -0.112 C  
HETATM   29  H   UNL     1      -9.871  11.011  67.578  1.00  0.00     0.000 HD 
HETATM   30  O   UNL     1      -6.806  10.978  66.701  1.00  0.00    -0.119 OA 
HETATM   31  N   UNL     1      -9.009  11.364  67.161  1.00  0.00    -0.159 N  
BRANCH  31  32
HETATM   32  C   UNL     1      -8.974  12.702  66.583  1.00  0.00    -0.164 C  
BRANCH  32  33
HETATM   33  C   UNL     1      -8.922  13.800  67.650  1.00  0.00    -0.194 C  
HETATM   34  O   UNL     1      -9.112  13.202  68.942  1.00  0.00    -0.384 OA 
HETATM   35  H   UNL     1      -9.080  13.883  69.604  1.00  0.00     0.000 HD 
BRANCH  33  36
HETATM   36  C   UNL     1      -7.588  14.563  67.596  1.00  0.00    -0.182 C  
HETATM   37  O   UNL     1      -6.474  13.692  67.777  1.00  0.00    -0.147 OA 
HETATM   38  H   UNL     1      -5.650  14.164  67.744  1.00  0.00     0.000 HD 
ENDBRANCH  33  36
ENDBRANCH  32  33
ENDBRANCH  31  32
ENDBRANCH  16  28
ENDBRANCH   6   8
ENDBRANCH   3   4
ENDBRANCH   2   3
TORSDOF 11
ENDMDL
MODEL       94
REMARK 921   NORMALIZED FREE ENERGY PREDICTED BY IDOCK:   -2.86 KCAL/MOL
REMARK 922        TOTAL FREE ENERGY PREDICTED BY IDOCK:   -5.82 KCAL/MOL
REMARK 923 INTER-LIGAND FREE ENERGY PREDICTED BY IDOCK:   -5.30 KCAL/MOL
REMARK 924 INTRA-LIGAND FREE ENERGY PREDICTED BY IDOCK:   -0.52 KCAL/MOL
REMARK 927      BINDING AFFINITY PREDICTED BY RF-SCORE:    0.00 PKD
ROOT
HETATM    1  C   UNL     1     -11.512   4.754  73.319  1.00  0.00    -0.273 C  
HETATM    2  O   UNL     1     -10.093   4.854  73.395  1.00  0.00    -0.154 OA 
ENDROOT
BRANCH   2   3
HETATM    3  C   UNL     1      -9.442   4.211  72.307  1.00  0.00    -0.133 C  
BRANCH   3   4
HETATM    4  C   UNL     1      -8.809   5.186  71.300  1.00  0.00    -0.135 C  
HETATM    5  O   UNL     1      -7.623   5.500  71.365  1.00  0.00    -0.097 OA 
HETATM    6  N   UNL     1      -9.685   5.646  70.310  1.00  0.00    -0.170 N  
HETATM    7  H   UNL     1     -10.671   5.386  70.309  1.00  0.00     0.000 HD 
BRANCH   6   8
HETATM    8  C   UNL     1      -9.138   6.496  69.302  1.00  0.00    -0.137 A  
HETATM    9  C   UNL     1      -8.592   5.955  68.111  1.00  0.00    -0.113 A  
HETATM   10  C   UNL     1      -8.315   6.784  66.985  1.00  0.00    -0.114 A  
HETATM   11  I   UNL     1      -8.250   3.830  68.105  1.00  0.00    -0.104 I  
HETATM   12  C   UNL     1      -9.199   7.898  69.463  1.00  0.00    -0.152 A  
HETATM   13  C   UNL     1      -8.610   8.166  67.119  1.00  0.00    -0.124 A  
HETATM   14  I   UNL     1      -9.091   9.342  65.371  1.00  0.00    -0.255 I  
HETATM   15  I   UNL     1      -9.603   8.650  71.449  1.00  0.00    -0.360 I  
HETATM   16  C   UNL     1      -8.893   8.749  68.385  1.00  0.00    -0.138 A  
BRANCH  10  17
HETATM   17  C   UNL     1      -7.872   6.153  65.687  1.00  0.00    -0.104 C  
HETATM   18  O   UNL     1      -8.744   5.598  65.015  1.00  0.00    -0.141 OA 
HETATM   19  C   UNL     1      -5.406   6.842  65.850  1.00  0.00    -0.023 C  
HETATM   20  N   UNL     1      -6.529   6.124  65.262  1.00  0.00    -0.038 N  
BRANCH  20  21
HETATM   21  C   UNL     1      -6.174   5.286  64.083  1.00  0.00    -0.022 C  
BRANCH  21  22
HETATM   22  C   UNL     1      -5.740   3.850  64.475  1.00  0.00    -0.014 C  
HETATM   23  H   UNL     1      -5.030   2.919  66.078  1.00  0.00     0.000 HD 
HETATM   24  O   UNL     1      -5.296   3.800  65.839  1.00  0.00    -0.009 OA 
BRANCH  22  25
HETATM   25  C   UNL     1      -6.868   2.821  64.307  1.00  0.00    -0.036 C  
HETATM   26  H   UNL     1      -8.322   2.442  63.026  1.00  0.00     0.000 HD 
HETATM   27  O   UNL     1      -7.625   3.078  63.129  1.00  0.00    -0.060 OA 
ENDBRANCH  22  25
ENDBRANCH  21  22
ENDBRANCH  20  21
ENDBRANCH  10  17
BRANCH  16  28
HETATM   28  C   UNL     1      -8.830  10.230  68.593  1.00  0.00    -0.137 C  
HETATM   29  H   UNL     1     -10.888  10.423  68.227  1.00  0.00     0.000 HD 
HETATM   30  O   UNL     1      -7.785  10.803  68.852  1.00  0.00    -0.110 OA 
HETATM   31  N   UNL     1     -10.020  10.930  68.398  1.00  0.00    -0.172 N  
BRANCH  31  32
HETATM   32  C   UNL     1     -10.022  12.387  68.438  1.00  0.00    -0.210 C  
BRANCH  32  33
HETATM   33  C   UNL     1     -11.287  12.989  67.818  1.00  0.00    -0.292 C  
HETATM   34  O   UNL     1     -12.087  11.928  67.273  1.00  0.00    -0.582 OA 
HETATM   35  H   UNL     1     -12.872  12.302  66.888  1.00  0.00     0.000 HD 
BRANCH  33  36
HETATM   36  C   UNL     1     -12.086  13.792  68.858  1.00  0.00    -0.313 C  
HETATM   37  O   UNL     1     -12.254  15.151  68.458  1.00  0.00    -0.575 OA 
HETATM   38  H   UNL     1     -12.748  15.647  69.101  1.00  0.00     0.000 HD 
ENDBRANCH  33  36
ENDBRANCH  32  33
ENDBRANCH  31  32
ENDBRANCH  16  28
ENDBRANCH   6   8
ENDBRANCH   3   4
ENDBRANCH   2   3
TORSDOF 11
ENDMDL
MODEL       95
REMARK 921   NORMALIZED FREE ENERGY PREDICTED BY IDOCK:   -2.85 KCAL/MOL
REMARK 922        TOTAL FREE ENERGY PREDICTED BY IDOCK:   -5.81 KCAL/MOL
REMARK 923 INTER-LIGAND FREE ENERGY PREDICTED BY IDOCK:   -5.72 KCAL/MOL
REMARK 924 INTRA-LIGAND FREE ENERGY PREDICTED BY IDOCK:   -0.10 KCAL/MOL
REMARK 927      BINDING AFFINITY PREDICTED BY RF-SCORE:    0.00 PKD
ROOT
HETATM    1  C   UNL     1      -8.394   6.354  69.468  1.00  0.00    -0.126 C  
HETATM    2  O   UNL     1      -9.133   7.455  68.946  1.00  0.00    -0.137 OA 
ENDROOT
BRANCH   2   3
HETATM    3  C   UNL     1      -8.303   8.411  68.299  1.00  0.00    -0.131 C  
BRANCH   3   4
HETATM    4  C   UNL     1      -8.534   9.855  68.777  1.00  0.00    -0.122 C  
HETATM    5  O   UNL     1      -8.279  10.201  69.927  1.00  0.00    -0.177 OA 
HETATM    6  N   UNL     1      -9.023  10.720  67.791  1.00  0.00    -0.136 N  
HETATM    7  H   UNL     1      -9.253  10.385  66.855  1.00  0.00     0.000 HD 
BRANCH   6   8
HETATM    8  C   UNL     1      -9.187  12.091  68.153  1.00  0.00    -0.195 A  
HETATM    9  C   UNL     1      -8.133  13.021  67.978  1.00  0.00    -0.157 A  
HETATM   10  C   UNL     1      -8.368  14.425  68.054  1.00  0.00    -0.157 A  
HETATM   11  I   UNL     1      -6.193  12.188  67.556  1.00  0.00    -0.149 I  
HETATM   12  C   UNL     1     -10.437  12.541  68.634  1.00  0.00    -0.200 A  
HETATM   13  C   UNL     1      -9.702  14.837  68.317  1.00  0.00    -0.218 A  
HETATM   14  I   UNL     1     -10.395  16.762  67.618  1.00  0.00    -0.293 I  
HETATM   15  I   UNL     1     -11.837  11.039  69.311  1.00  0.00    -0.279 I  
HETATM   16  C   UNL     1     -10.692  13.919  68.762  1.00  0.00    -0.278 A  
BRANCH  10  17
HETATM   17  C   UNL     1      -7.255  15.387  67.718  1.00  0.00    -0.163 C  
HETATM   18  O   UNL     1      -7.078  15.634  66.524  1.00  0.00    -0.034 OA 
HETATM   19  C   UNL     1      -6.549  15.879  70.136  1.00  0.00     0.096 C  
HETATM   20  N   UNL     1      -6.399  15.946  68.688  1.00  0.00    -0.110 N  
BRANCH  20  21
HETATM   21  C   UNL     1      -5.201  16.702  68.229  1.00  0.00    -0.112 C  
BRANCH  21  22
HETATM   22  C   UNL     1      -5.441  18.233  68.176  1.00  0.00    -0.165 C  
HETATM   23  H   UNL     1      -6.436  19.522  67.042  1.00  0.00     0.000 HD 
HETATM   24  O   UNL     1      -6.290  18.584  67.074  1.00  0.00    -0.176 OA 
BRANCH  22  25
HETATM   25  C   UNL     1      -6.084  18.780  69.460  1.00  0.00    -0.268 C  
HETATM   26  H   UNL     1      -7.133  20.361  70.009  1.00  0.00     0.000 HD 
HETATM   27  O   UNL     1      -6.736  20.023  69.216  1.00  0.00    -0.326 OA 
ENDBRANCH  22  25
ENDBRANCH  21  22
ENDBRANCH  20  21
ENDBRANCH  10  17
BRANCH  16  28
HETATM   28  C   UNL     1     -11.965  14.390  69.393  1.00  0.00    -0.328 C  
HETATM   29  H   UNL     1     -11.114  14.294  71.309  1.00  0.00     0.000 HD 
HETATM   30  O   UNL     1     -12.962  14.633  68.734  1.00  0.00     0.690 OA 
HETATM   31  N   UNL     1     -11.974  14.459  70.785  1.00  0.00    -0.316 N  
BRANCH  31  32
HETATM   32  C   UNL     1     -13.210  14.768  71.492  1.00  0.00    -0.356 C  
BRANCH  32  33
HETATM   33  C   UNL     1     -13.158  14.367  72.969  1.00  0.00    -0.481 C  
HETATM   34  O   UNL     1     -13.077  12.937  73.059  1.00  0.00    -0.173 OA 
HETATM   35  H   UNL     1     -13.045  12.688  73.976  1.00  0.00     0.000 HD 
BRANCH  33  36
HETATM   36  C   UNL     1     -11.963  15.024  73.681  1.00  0.00    -0.335 C  
HETATM   37  O   UNL     1     -11.879  16.418  73.391  1.00  0.00    -0.406 OA 
HETATM   38  H   UNL     1     -11.141  16.824  73.831  1.00  0.00     0.000 HD 
ENDBRANCH  33  36
ENDBRANCH  32  33
ENDBRANCH  31  32
ENDBRANCH  16  28
ENDBRANCH   6   8
ENDBRANCH   3   4
ENDBRANCH   2   3
TORSDOF 11
ENDMDL
MODEL       96
REMARK 921   NORMALIZED FREE ENERGY PREDICTED BY IDOCK:   -2.84 KCAL/MOL
REMARK 922        TOTAL FREE ENERGY PREDICTED BY IDOCK:   -5.79 KCAL/MOL
REMARK 923 INTER-LIGAND FREE ENERGY PREDICTED BY IDOCK:   -5.05 KCAL/MOL
REMARK 924 INTRA-LIGAND FREE ENERGY PREDICTED BY IDOCK:   -0.75 KCAL/MOL
REMARK 927      BINDING AFFINITY PREDICTED BY RF-SCORE:    0.00 PKD
ROOT
HETATM    1  C   UNL     1      -8.739   5.255  72.005  1.00  0.00    -0.130 C  
HETATM    2  O   UNL     1      -8.789   6.678  72.048  1.00  0.00    -0.135 OA 
ENDROOT
BRANCH   2   3
HETATM    3  C   UNL     1      -7.537   7.278  71.743  1.00  0.00    -0.086 C  
BRANCH   3   4
HETATM    4  C   UNL     1      -7.418   7.758  70.287  1.00  0.00    -0.079 C  
HETATM    5  O   UNL     1      -6.393   8.287  69.864  1.00  0.00    -0.032 OA 
HETATM    6  N   UNL     1      -8.552   7.516  69.503  1.00  0.00    -0.133 N  
HETATM    7  H   UNL     1      -9.397   7.104  69.901  1.00  0.00     0.000 HD 
BRANCH   6   8
HETATM    8  C   UNL     1      -8.477   7.872  68.123  1.00  0.00    -0.124 A  
HETATM    9  C   UNL     1      -8.786   9.187  67.692  1.00  0.00    -0.120 A  
HETATM   10  C   UNL     1      -8.439   9.634  66.383  1.00  0.00    -0.128 A  
HETATM   11  I   UNL     1      -9.762  10.453  69.133  1.00  0.00    -0.175 I  
HETATM   12  C   UNL     1      -8.029   6.920  67.180  1.00  0.00    -0.113 A  
HETATM   13  C   UNL     1      -7.777   8.700  65.542  1.00  0.00    -0.092 A  
HETATM   14  I   UNL     1      -6.453   9.399  63.984  1.00  0.00    -0.110 I  
HETATM   15  I   UNL     1      -8.019   4.847  67.794  1.00  0.00    -0.093 I  
HETATM   16  C   UNL     1      -7.715   7.317  65.867  1.00  0.00    -0.097 A  
BRANCH  10  17
HETATM   17  C   UNL     1      -8.650  11.080  66.010  1.00  0.00    -0.172 C  
HETATM   18  O   UNL     1      -7.881  11.901  66.514  1.00  0.00    -0.064 OA 
HETATM   19  C   UNL     1     -10.603  10.686  64.393  1.00  0.00    -0.048 C  
HETATM   20  N   UNL     1      -9.701  11.517  65.180  1.00  0.00    -0.239 N  
BRANCH  20  21
HETATM   21  C   UNL     1      -9.950  12.980  65.057  1.00  0.00    -0.139 C  
BRANCH  21  22
HETATM   22  C   UNL     1     -11.174  13.454  65.883  1.00  0.00    -0.300 C  
HETATM   23  H   UNL     1     -11.569  14.830  67.258  1.00  0.00     0.000 HD 
HETATM   24  O   UNL     1     -10.819  14.541  66.752  1.00  0.00    -0.294 OA 
BRANCH  22  25
HETATM   25  C   UNL     1     -12.345  13.916  65.003  1.00  0.00    -0.430 C  
HETATM   26  H   UNL     1     -14.008  13.150  64.264  1.00  0.00     0.000 HD 
HETATM   27  O   UNL     1     -13.285  12.864  64.808  1.00  0.00    -0.764 OA 
ENDBRANCH  22  25
ENDBRANCH  21  22
ENDBRANCH  20  21
ENDBRANCH  10  17
BRANCH  16  28
HETATM   28  C   UNL     1      -7.367   6.289  64.836  1.00  0.00    -0.075 C  
HETATM   29  H   UNL     1      -9.383   5.745  64.619  1.00  0.00     0.000 HD 
HETATM   30  O   UNL     1      -6.216   6.083  64.491  1.00  0.00    -0.028 OA 
HETATM   31  N   UNL     1      -8.425   5.522  64.349  1.00  0.00    -0.117 N  
BRANCH  31  32
HETATM   32  C   UNL     1      -8.162   4.404  63.452  1.00  0.00    -0.095 C  
BRANCH  32  33
HETATM   33  C   UNL     1      -9.422   3.925  62.727  1.00  0.00    -0.119 C  
HETATM   34  O   UNL     1      -9.330   2.507  62.523  1.00  0.00    -0.090 OA 
HETATM   35  H   UNL     1     -10.113   2.209  62.073  1.00  0.00     0.000 HD 
BRANCH  33  36
HETATM   36  C   UNL     1     -10.690   4.277  63.524  1.00  0.00     0.170 C  
HETATM   37  O   UNL     1     -11.067   3.223  64.407  1.00  0.00    -0.595 OA 
HETATM   38  H   UNL     1     -11.850   3.442  64.900  1.00  0.00     0.000 HD 
ENDBRANCH  33  36
ENDBRANCH  32  33
ENDBRANCH  31  32
ENDBRANCH  16  28
ENDBRANCH   6   8
ENDBRANCH   3   4
ENDBRANCH   2   3
TORSDOF 11
ENDMDL
MODEL       97
REMARK 921   NORMALIZED FREE ENERGY PREDICTED BY IDOCK:   -2.84 KCAL/MOL
REMARK 922        TOTAL FREE ENERGY PREDICTED BY IDOCK:   -5.78 KCAL/MOL
REMARK 923 INTER-LIGAND FREE ENERGY PREDICTED BY IDOCK:   -4.70 KCAL/MOL
REMARK 924 INTRA-LIGAND FREE ENERGY PREDICTED BY IDOCK:   -1.08 KCAL/MOL
REMARK 927      BINDING AFFINITY PREDICTED BY RF-SCORE:    0.00 PKD
ROOT
HETATM    1  C   UNL     1     -10.664   3.714  73.795  1.00  0.00    -0.224 C  
HETATM    2  O   UNL     1     -10.788   5.100  73.492  1.00  0.00    -0.258 OA 
ENDROOT
BRANCH   2   3
HETATM    3  C   UNL     1     -11.783   5.357  72.510  1.00  0.00    -0.107 C  
BRANCH   3   4
HETATM    4  C   UNL     1     -11.225   5.938  71.199  1.00  0.00    -0.211 C  
HETATM    5  O   UNL     1     -11.961   6.246  70.266  1.00  0.00    -0.273 OA 
HETATM    6  N   UNL     1      -9.835   6.104  71.185  1.00  0.00    -0.179 N  
HETATM    7  H   UNL     1      -9.255   5.805  71.969  1.00  0.00     0.000 HD 
BRANCH   6   8
HETATM    8  C   UNL     1      -9.264   6.707  70.025  1.00  0.00    -0.158 A  
HETATM    9  C   UNL     1      -9.211   8.117  69.889  1.00  0.00    -0.151 A  
HETATM   10  C   UNL     1      -8.395   8.732  68.894  1.00  0.00    -0.127 A  
HETATM   11  I   UNL     1     -10.392   9.250  71.288  1.00  0.00    -0.156 I  
HETATM   12  C   UNL     1      -8.688   5.892  69.025  1.00  0.00    -0.114 A  
HETATM   13  C   UNL     1      -7.650   7.865  68.052  1.00  0.00    -0.113 A  
HETATM   14  I   UNL     1      -5.802   8.547  67.163  1.00  0.00    -0.044 I  
HETATM   15  I   UNL     1      -9.197   3.791  69.046  1.00  0.00    -0.214 I  
HETATM   16  C   UNL     1      -7.910   6.467  68.003  1.00  0.00    -0.105 A  
BRANCH  10  17
HETATM   17  C   UNL     1      -8.249  10.234  68.874  1.00  0.00    -0.130 C  
HETATM   18  O   UNL     1      -7.484  10.727  69.705  1.00  0.00    -0.141 OA 
HETATM   19  C   UNL     1      -9.810  10.655  66.881  1.00  0.00    -0.188 C  
HETATM   20  N   UNL     1      -8.981  11.068  68.007  1.00  0.00    -0.140 N  
BRANCH  20  21
HETATM   21  C   UNL     1      -8.926  12.541  68.222  1.00  0.00    -0.178 C  
BRANCH  21  22
HETATM   22  C   UNL     1      -7.989  13.261  67.217  1.00  0.00    -0.125 C  
HETATM   23  H   UNL     1      -7.743  15.095  66.500  1.00  0.00     0.000 HD 
HETATM   24  O   UNL     1      -8.317  14.654  67.116  1.00  0.00    -0.200 OA 
BRANCH  22  25
HETATM   25  C   UNL     1      -6.506  13.151  67.601  1.00  0.00    -0.163 C  
HETATM   26  H   UNL     1      -4.902  12.183  66.975  1.00  0.00     0.000 HD 
HETATM   27  O   UNL     1      -5.819  12.251  66.737  1.00  0.00    -0.283 OA 
ENDBRANCH  22  25
ENDBRANCH  21  22
ENDBRANCH  20  21
ENDBRANCH  10  17
BRANCH  16  28
HETATM   28  C   UNL     1      -7.411   5.620  66.874  1.00  0.00    -0.088 C  
HETATM   29  H   UNL     1      -8.975   6.262  65.629  1.00  0.00     0.000 HD 
HETATM   30  O   UNL     1      -6.426   4.910  66.985  1.00  0.00    -0.042 OA 
HETATM   31  N   UNL     1      -8.182   5.626  65.712  1.00  0.00    -0.117 N  
BRANCH  31  32
HETATM   32  C   UNL     1      -7.853   4.724  64.616  1.00  0.00    -0.088 C  
BRANCH  32  33
HETATM   33  C   UNL     1      -8.918   3.643  64.406  1.00  0.00    -0.121 C  
HETATM   34  O   UNL     1      -8.928   3.263  63.022  1.00  0.00    -0.092 OA 
HETATM   35  H   UNL     1      -9.590   2.593  62.892  1.00  0.00     0.000 HD 
BRANCH  33  36
HETATM   36  C   UNL     1      -8.654   2.422  65.302  1.00  0.00    -0.111 C  
HETATM   37  O   UNL     1      -7.283   2.337  65.688  1.00  0.00    -0.061 OA 
HETATM   38  H   UNL     1      -7.120   1.582  66.242  1.00  0.00     0.000 HD 
ENDBRANCH  33  36
ENDBRANCH  32  33
ENDBRANCH  31  32
ENDBRANCH  16  28
ENDBRANCH   6   8
ENDBRANCH   3   4
ENDBRANCH   2   3
TORSDOF 11
ENDMDL
MODEL       98
REMARK 921   NORMALIZED FREE ENERGY PREDICTED BY IDOCK:   -2.83 KCAL/MOL
REMARK 922        TOTAL FREE ENERGY PREDICTED BY IDOCK:   -5.77 KCAL/MOL
REMARK 923 INTER-LIGAND FREE ENERGY PREDICTED BY IDOCK:   -4.50 KCAL/MOL
REMARK 924 INTRA-LIGAND FREE ENERGY PREDICTED BY IDOCK:   -1.27 KCAL/MOL
REMARK 927      BINDING AFFINITY PREDICTED BY RF-SCORE:    0.00 PKD
ROOT
HETATM    1  C   UNL     1      -7.702   3.730  74.527  1.00  0.00    -0.070 C  
HETATM    2  O   UNL     1      -8.323   4.948  74.122  1.00  0.00    -0.103 OA 
ENDROOT
BRANCH   2   3
HETATM    3  C   UNL     1      -9.528   4.732  73.400  1.00  0.00    -0.122 C  
BRANCH   3   4
HETATM    4  C   UNL     1      -9.607   5.517  72.079  1.00  0.00    -0.151 C  
HETATM    5  O   UNL     1     -10.635   6.092  71.733  1.00  0.00    -0.211 OA 
HETATM    6  N   UNL     1      -8.417   5.534  71.343  1.00  0.00    -0.126 N  
HETATM    7  H   UNL     1      -7.593   5.016  71.650  1.00  0.00     0.000 HD 
BRANCH   6   8
HETATM    8  C   UNL     1      -8.405   6.308  70.144  1.00  0.00    -0.129 A  
HETATM    9  C   UNL     1      -8.775   5.734  68.903  1.00  0.00    -0.111 A  
HETATM   10  C   UNL     1      -9.049   6.549  67.766  1.00  0.00    -0.112 A  
HETATM   11  I   UNL     1      -8.932   3.587  68.861  1.00  0.00    -0.231 I  
HETATM   12  C   UNL     1      -8.079   7.682  70.204  1.00  0.00    -0.118 A  
HETATM   13  C   UNL     1      -8.929   7.953  67.941  1.00  0.00    -0.129 A  
HETATM   14  I   UNL     1     -10.093   9.298  66.713  1.00  0.00    -0.283 I  
HETATM   15  I   UNL     1      -7.091   8.390  71.991  1.00  0.00    -0.047 I  
HETATM   16  C   UNL     1      -8.298   8.511  69.087  1.00  0.00    -0.120 A  
BRANCH  10  17
HETATM   17  C   UNL     1      -9.582   5.914  66.505  1.00  0.00    -0.156 C  
HETATM   18  O   UNL     1     -10.796   5.706  66.459  1.00  0.00    -0.284 OA 
HETATM   19  C   UNL     1      -7.340   5.801  65.261  1.00  0.00    -0.075 C  
HETATM   20  N   UNL     1      -8.757   5.507  65.438  1.00  0.00    -0.154 N  
BRANCH  20  21
HETATM   21  C   UNL     1      -9.357   4.694  64.344  1.00  0.00    -0.050 C  
BRANCH  21  22
HETATM   22  C   UNL     1      -8.813   3.242  64.307  1.00  0.00    -0.098 C  
HETATM   23  H   UNL     1      -8.991   1.583  65.382  1.00  0.00     0.000 HD 
HETATM   24  O   UNL     1      -9.324   2.473  65.405  1.00  0.00    -0.131 OA 
BRANCH  22  25
HETATM   25  C   UNL     1      -9.171   2.505  63.007  1.00  0.00    -0.091 C  
HETATM   26  H   UNL     1     -10.759   1.648  62.204  1.00  0.00     0.000 HD 
HETATM   27  O   UNL     1     -10.538   2.104  63.007  1.00  0.00    -0.133 OA 
ENDBRANCH  22  25
ENDBRANCH  21  22
ENDBRANCH  20  21
ENDBRANCH  10  17
BRANCH  16  28
HETATM   28  C   UNL     1      -7.833   9.933  69.107  1.00  0.00    -0.105 C  
HETATM   29  H   UNL     1      -6.104   9.440  68.024  1.00  0.00     0.000 HD 
HETATM   30  O   UNL     1      -8.467  10.813  69.664  1.00  0.00     0.004 OA 
HETATM   31  N   UNL     1      -6.593  10.184  68.521  1.00  0.00    -0.053 N  
BRANCH  31  32
HETATM   32  C   UNL     1      -5.995  11.509  68.621  1.00  0.00    -0.046 C  
BRANCH  32  33
HETATM   33  C   UNL     1      -6.288  12.378  67.394  1.00  0.00    -0.157 C  
HETATM   34  O   UNL     1      -6.723  11.532  66.319  1.00  0.00    -0.354 OA 
HETATM   35  H   UNL     1      -6.905  12.071  65.557  1.00  0.00     0.000 HD 
BRANCH  33  36
HETATM   36  C   UNL     1      -7.351  13.444  67.709  1.00  0.00    -0.157 C  
HETATM   37  O   UNL     1      -8.270  13.608  66.631  1.00  0.00    -0.397 OA 
HETATM   38  H   UNL     1      -8.926  14.267  66.826  1.00  0.00     0.000 HD 
ENDBRANCH  33  36
ENDBRANCH  32  33
ENDBRANCH  31  32
ENDBRANCH  16  28
ENDBRANCH   6   8
ENDBRANCH   3   4
ENDBRANCH   2   3
TORSDOF 11
ENDMDL
MODEL       99
REMARK 921   NORMALIZED FREE ENERGY PREDICTED BY IDOCK:   -2.75 KCAL/MOL
REMARK 922        TOTAL FREE ENERGY PREDICTED BY IDOCK:   -5.64 KCAL/MOL
REMARK 923 INTER-LIGAND FREE ENERGY PREDICTED BY IDOCK:   -4.81 KCAL/MOL
REMARK 924 INTRA-LIGAND FREE ENERGY PREDICTED BY IDOCK:   -0.82 KCAL/MOL
REMARK 927      BINDING AFFINITY PREDICTED BY RF-SCORE:    0.00 PKD
ROOT
HETATM    1  C   UNL     1     -13.019  11.958  72.325  1.00  0.00     0.096 C  
HETATM    2  O   UNL     1     -13.609  11.062  71.387  1.00  0.00    -0.018 OA 
ENDROOT
BRANCH   2   3
HETATM    3  C   UNL     1     -12.760   9.967  71.069  1.00  0.00    -0.362 C  
BRANCH   3   4
HETATM    4  C   UNL     1     -11.493  10.370  70.295  1.00  0.00    -0.325 C  
HETATM    5  O   UNL     1     -10.372  10.239  70.781  1.00  0.00    -0.002 OA 
HETATM    6  N   UNL     1     -11.733  10.862  69.007  1.00  0.00    -0.356 N  
HETATM    7  H   UNL     1     -12.682  10.985  68.652  1.00  0.00     0.000 HD 
BRANCH   6   8
HETATM    8  C   UNL     1     -10.594  11.183  68.210  1.00  0.00    -0.190 A  
HETATM    9  C   UNL     1     -10.267  12.531  67.917  1.00  0.00    -0.219 A  
HETATM   10  C   UNL     1      -8.993  12.880  67.381  1.00  0.00    -0.199 A  
HETATM   11  I   UNL     1     -11.784  13.992  68.361  1.00  0.00    -0.367 I  
HETATM   12  C   UNL     1      -9.742  10.149  67.760  1.00  0.00    -0.153 A  
HETATM   13  C   UNL     1      -8.079  11.817  67.157  1.00  0.00    -0.169 A  
HETATM   14  I   UNL     1      -5.951  12.192  67.216  1.00  0.00    -0.007 I  
HETATM   15  I   UNL     1     -10.514   8.131  67.830  1.00  0.00    -0.112 I  
HETATM   16  C   UNL     1      -8.494  10.457  67.189  1.00  0.00    -0.126 A  
BRANCH  10  17
HETATM   17  C   UNL     1      -8.627  14.336  67.219  1.00  0.00    -0.215 C  
HETATM   18  O   UNL     1      -8.862  14.846  66.122  1.00  0.00    -0.176 OA 
HETATM   19  C   UNL     1      -7.770  14.694  69.611  1.00  0.00     0.062 C  
HETATM   20  N   UNL     1      -7.990  15.088  68.225  1.00  0.00    -0.123 N  
BRANCH  20  21
HETATM   21  C   UNL     1      -7.476  16.443  67.883  1.00  0.00    -0.140 C  
BRANCH  21  22
HETATM   22  C   UNL     1      -8.348  17.583  68.469  1.00  0.00    -0.274 C  
HETATM   23  H   UNL     1      -8.081  19.425  69.159  1.00  0.00     0.000 HD 
HETATM   24  O   UNL     1      -7.546  18.727  68.800  1.00  0.00    -0.311 OA 
BRANCH  22  25
HETATM   25  C   UNL     1      -9.452  18.044  67.506  1.00  0.00    -0.262 C  
HETATM   26  H   UNL     1     -11.409  18.305  67.545  1.00  0.00     0.000 HD 
HETATM   27  O   UNL     1     -10.727  18.020  68.140  1.00  0.00    -0.355 OA 
ENDBRANCH  22  25
ENDBRANCH  21  22
ENDBRANCH  20  21
ENDBRANCH  10  17
BRANCH  16  28
HETATM   28  C   UNL     1      -7.653   9.371  66.595  1.00  0.00    -0.094 C  
HETATM   29  H   UNL     1      -7.105   8.679  68.499  1.00  0.00     0.000 HD 
HETATM   30  O   UNL     1      -7.532   9.233  65.389  1.00  0.00    -0.095 OA 
HETATM   31  N   UNL     1      -6.951   8.572  67.497  1.00  0.00    -0.077 N  
BRANCH  31  32
HETATM   32  C   UNL     1      -5.998   7.585  67.006  1.00  0.00    -0.046 C  
BRANCH  32  33
HETATM   33  C   UNL     1      -6.628   6.201  66.826  1.00  0.00    -0.059 C  
HETATM   34  O   UNL     1      -5.590   5.251  66.543  1.00  0.00    -0.016 OA 
HETATM   35  H   UNL     1      -5.981   4.392  66.431  1.00  0.00     0.000 HD 
BRANCH  33  36
HETATM   36  C   UNL     1      -7.419   5.784  68.077  1.00  0.00    -0.077 C  
HETATM   37  O   UNL     1      -6.596   5.775  69.242  1.00  0.00    -0.049 OA 
HETATM   38  H   UNL     1      -7.085   5.517  70.016  1.00  0.00     0.000 HD 
ENDBRANCH  33  36
ENDBRANCH  32  33
ENDBRANCH  31  32
ENDBRANCH  16  28
ENDBRANCH   6   8
ENDBRANCH   3   4
ENDBRANCH   2   3
TORSDOF 11
ENDMDL
MODEL      100
REMARK 921   NORMALIZED FREE ENERGY PREDICTED BY IDOCK:   -2.72 KCAL/MOL
REMARK 922        TOTAL FREE ENERGY PREDICTED BY IDOCK:   -5.60 KCAL/MOL
REMARK 923 INTER-LIGAND FREE ENERGY PREDICTED BY IDOCK:   -5.06 KCAL/MOL
REMARK 924 INTRA-LIGAND FREE ENERGY PREDICTED BY IDOCK:   -0.54 KCAL/MOL
REMARK 927      BINDING AFFINITY PREDICTED BY RF-SCORE:    0.00 PKD
ROOT
HETATM    1  C   UNL     1     -12.659  12.065  63.475  1.00  0.00    -0.507 C  
HETATM    2  O   UNL     1     -13.467  12.100  64.647  1.00  0.00    -0.513 OA 
ENDROOT
BRANCH   2   3
HETATM    3  C   UNL     1     -13.494  13.386  65.253  1.00  0.00     0.917 C  
BRANCH   3   4
HETATM    4  C   UNL     1     -12.222  13.723  66.049  1.00  0.00    -0.457 C  
HETATM    5  O   UNL     1     -12.244  13.866  67.269  1.00  0.00    -0.394 OA 
HETATM    6  N   UNL     1     -11.061  13.821  65.273  1.00  0.00    -0.304 N  
HETATM    7  H   UNL     1     -11.090  13.727  64.258  1.00  0.00     0.000 HD 
BRANCH   6   8
HETATM    8  C   UNL     1      -9.835  14.058  65.964  1.00  0.00    -0.297 A  
HETATM    9  C   UNL     1      -9.373  15.377  66.196  1.00  0.00    -0.332 A  
HETATM   10  C   UNL     1      -8.322  15.638  67.123  1.00  0.00    -0.237 A  
HETATM   11  I   UNL     1     -10.374  16.938  65.102  1.00  0.00     1.059 I  
HETATM   12  C   UNL     1      -9.102  12.965  66.479  1.00  0.00    -0.132 A  
HETATM   13  C   UNL     1      -7.765  14.516  67.792  1.00  0.00    -0.156 A  
HETATM   14  I   UNL     1      -6.875  14.756  69.747  1.00  0.00    -0.001 I  
HETATM   15  I   UNL     1      -9.584  11.001  65.716  1.00  0.00    -0.309 I  
HETATM   16  C   UNL     1      -8.031  13.185  67.365  1.00  0.00    -0.174 A  
BRANCH  10  17
HETATM   17  C   UNL     1      -7.956  17.064  67.453  1.00  0.00    -0.178 C  
HETATM   18  O   UNL     1      -6.905  17.491  66.974  1.00  0.00    -0.156 OA 
HETATM   19  C   UNL     1     -10.046  17.590  68.847  1.00  0.00    -0.346 C  
HETATM   20  N   UNL     1      -8.720  17.877  68.313  1.00  0.00    -0.269 N  
BRANCH  20  21
HETATM   21  C   UNL     1      -8.155  19.185  68.745  1.00  0.00    -0.349 C  
BRANCH  21  22
HETATM   22  C   UNL     1      -7.980  20.182  67.570  1.00  0.00    -0.317 C  
HETATM   23  H   UNL     1      -9.025  21.636  66.715  1.00  0.00     0.000 HD 
HETATM   24  O   UNL     1      -9.133  21.025  67.435  1.00  0.00    -0.234 OA 
BRANCH  22  25
HETATM   25  C   UNL     1      -6.750  21.087  67.736  1.00  0.00    -0.295 C  
HETATM   26  H   UNL     1      -5.229  21.272  68.982  1.00  0.00     0.000 HD 
HETATM   27  O   UNL     1      -5.989  20.713  68.880  1.00  0.00    -0.335 OA 
ENDBRANCH  22  25
ENDBRANCH  21  22
ENDBRANCH  20  21
ENDBRANCH  10  17
BRANCH  16  28
HETATM   28  C   UNL     1      -7.175  12.039  67.805  1.00  0.00    -0.108 C  
HETATM   29  H   UNL     1      -8.650  11.382  69.146  1.00  0.00     0.000 HD 
HETATM   30  O   UNL     1      -6.056  11.857  67.354  1.00  0.00    -0.088 OA 
HETATM   31  N   UNL     1      -7.695  11.235  68.818  1.00  0.00    -0.134 N  
BRANCH  31  32
HETATM   32  C   UNL     1      -6.874  10.186  69.409  1.00  0.00    -0.070 C  
BRANCH  32  33
HETATM   33  C   UNL     1      -7.490   8.794  69.236  1.00  0.00    -0.078 C  
HETATM   34  O   UNL     1      -8.861   8.938  68.839  1.00  0.00    -0.135 OA 
HETATM   35  H   UNL     1      -9.243   8.074  68.732  1.00  0.00     0.000 HD 
BRANCH  33  36
HETATM   36  C   UNL     1      -6.709   7.966  68.201  1.00  0.00    -0.064 C  
HETATM   37  O   UNL     1      -6.827   8.516  66.890  1.00  0.00    -0.067 OA 
HETATM   38  H   UNL     1      -6.344   8.005  66.250  1.00  0.00     0.000 HD 
ENDBRANCH  33  36
ENDBRANCH  32  33
ENDBRANCH  31  32
ENDBRANCH  16  28
ENDBRANCH   6   8
ENDBRANCH   3   4
ENDBRANCH   2   3
TORSDOF 11
ENDMDL
MODEL      101
REMARK 921   NORMALIZED FREE ENERGY PREDICTED BY IDOCK:   -2.72 KCAL/MOL
REMARK 922        TOTAL FREE ENERGY PREDICTED BY IDOCK:   -5.59 KCAL/MOL
REMARK 923 INTER-LIGAND FREE ENERGY PREDICTED BY IDOCK:   -4.88 KCAL/MOL
REMARK 924 INTRA-LIGAND FREE ENERGY PREDICTED BY IDOCK:   -0.71 KCAL/MOL
REMARK 927      BINDING AFFINITY PREDICTED BY RF-SCORE:    0.00 PKD
ROOT
HETATM    1  C   UNL     1      -7.548   7.215  74.183  1.00  0.00    -0.108 C  
HETATM    2  O   UNL     1      -8.043   5.990  73.650  1.00  0.00    -0.106 OA 
ENDROOT
BRANCH   2   3
HETATM    3  C   UNL     1      -7.200   5.455  72.637  1.00  0.00    -0.090 C  
BRANCH   3   4
HETATM    4  C   UNL     1      -7.172   6.294  71.348  1.00  0.00    -0.079 C  
HETATM    5  O   UNL     1      -6.182   6.945  71.025  1.00  0.00    -0.035 OA 
HETATM    6  N   UNL     1      -8.342   6.222  70.584  1.00  0.00    -0.131 N  
HETATM    7  H   UNL     1      -9.155   5.695  70.904  1.00  0.00     0.000 HD 
BRANCH   6   8
HETATM    8  C   UNL     1      -8.350   6.919  69.339  1.00  0.00    -0.132 A  
HETATM    9  C   UNL     1      -8.781   8.267  69.262  1.00  0.00    -0.139 A  
HETATM   10  C   UNL     1      -8.523   9.058  68.104  1.00  0.00    -0.129 A  
HETATM   11  I   UNL     1      -9.799   9.038  70.995  1.00  0.00    -0.340 I  
HETATM   12  C   UNL     1      -7.863   6.278  68.178  1.00  0.00    -0.104 A  
HETATM   13  C   UNL     1      -7.822   8.429  67.042  1.00  0.00    -0.096 A  
HETATM   14  I   UNL     1      -6.620   9.612  65.690  1.00  0.00    -0.094 I  
HETATM   15  I   UNL     1      -7.661   4.127  68.244  1.00  0.00    -0.069 I  
HETATM   16  C   UNL     1      -7.635   7.019  67.003  1.00  0.00    -0.102 A  
BRANCH  10  17
HETATM   17  C   UNL     1      -8.866  10.528  68.114  1.00  0.00    -0.134 C  
HETATM   18  O   UNL     1      -8.232  11.239  68.896  1.00  0.00    -0.141 OA 
HETATM   19  C   UNL     1     -10.639  10.431  66.263  1.00  0.00    -0.109 C  
HETATM   20  N   UNL     1      -9.895  11.086  67.331  1.00  0.00    -0.172 N  
BRANCH  20  21
HETATM   21  C   UNL     1     -10.295  12.498  67.582  1.00  0.00    -0.218 C  
BRANCH  21  22
HETATM   22  C   UNL     1     -11.686  12.619  68.257  1.00  0.00    -0.342 C  
HETATM   23  H   UNL     1     -13.180  11.412  68.761  1.00  0.00     0.000 HD 
HETATM   24  O   UNL     1     -12.327  11.338  68.347  1.00  0.00    -0.545 OA 
BRANCH  22  25
HETATM   25  C   UNL     1     -11.612  13.210  69.673  1.00  0.00    -0.253 C  
HETATM   26  H   UNL     1     -11.746  12.564  71.534  1.00  0.00     0.000 HD 
HETATM   27  O   UNL     1     -11.791  12.199  70.659  1.00  0.00    -0.241 OA 
ENDBRANCH  22  25
ENDBRANCH  21  22
ENDBRANCH  20  21
ENDBRANCH  10  17
BRANCH  16  28
HETATM   28  C   UNL     1      -7.245   6.319  65.739  1.00  0.00    -0.074 C  
HETATM   29  H   UNL     1      -9.215   6.406  65.019  1.00  0.00     0.000 HD 
HETATM   30  O   UNL     1      -6.103   5.946  65.533  1.00  0.00    -0.027 OA 
HETATM   31  N   UNL     1      -8.278   6.045  64.843  1.00  0.00    -0.136 N  
BRANCH  31  32
HETATM   32  C   UNL     1      -8.017   5.241  63.656  1.00  0.00    -0.101 C  
BRANCH  32  33
HETATM   33  C   UNL     1      -9.268   4.510  63.157  1.00  0.00    -0.093 C  
HETATM   34  O   UNL     1      -8.862   3.391  62.354  1.00  0.00    -0.084 OA 
HETATM   35  H   UNL     1      -9.638   2.938  62.043  1.00  0.00     0.000 HD 
BRANCH  33  36
HETATM   36  C   UNL     1     -10.146   4.046  64.331  1.00  0.00    -0.190 C  
HETATM   37  O   UNL     1      -9.558   2.949  65.027  1.00  0.00    -0.261 OA 
HETATM   38  H   UNL     1     -10.100   2.662  65.753  1.00  0.00     0.000 HD 
ENDBRANCH  33  36
ENDBRANCH  32  33
ENDBRANCH  31  32
ENDBRANCH  16  28
ENDBRANCH   6   8
ENDBRANCH   3   4
ENDBRANCH   2   3
TORSDOF 11
ENDMDL
MODEL      102
REMARK 921   NORMALIZED FREE ENERGY PREDICTED BY IDOCK:   -2.71 KCAL/MOL
REMARK 922        TOTAL FREE ENERGY PREDICTED BY IDOCK:   -5.58 KCAL/MOL
REMARK 923 INTER-LIGAND FREE ENERGY PREDICTED BY IDOCK:   -4.68 KCAL/MOL
REMARK 924 INTRA-LIGAND FREE ENERGY PREDICTED BY IDOCK:   -0.89 KCAL/MOL
REMARK 927      BINDING AFFINITY PREDICTED BY RF-SCORE:    0.00 PKD
ROOT
HETATM    1  C   UNL     1     -12.232  13.345  64.396  1.00  0.00    -0.389 C  
HETATM    2  O   UNL     1     -10.944  13.177  64.983  1.00  0.00    -0.286 OA 
ENDROOT
BRANCH   2   3
HETATM    3  C   UNL     1     -10.123  12.279  64.248  1.00  0.00    -0.284 C  
BRANCH   3   4
HETATM    4  C   UNL     1     -10.024  10.877  64.873  1.00  0.00    -0.303 C  
HETATM    5  O   UNL     1     -11.009  10.152  64.989  1.00  0.00     0.517 OA 
HETATM    6  N   UNL     1      -8.732  10.505  65.262  1.00  0.00    -0.183 N  
HETATM    7  H   UNL     1      -7.945  11.150  65.178  1.00  0.00     0.000 HD 
BRANCH   6   8
HETATM    8  C   UNL     1      -8.563   9.187  65.781  1.00  0.00    -0.153 A  
HETATM    9  C   UNL     1      -8.826   8.902  67.144  1.00  0.00    -0.123 A  
HETATM   10  C   UNL     1      -8.946   7.558  67.606  1.00  0.00    -0.127 A  
HETATM   11  I   UNL     1      -9.068  10.603  68.440  1.00  0.00    -0.174 I  
HETATM   12  C   UNL     1      -8.188   8.138  64.912  1.00  0.00    -0.147 A  
HETATM   13  C   UNL     1      -8.785   6.531  66.638  1.00  0.00    -0.128 A  
HETATM   14  I   UNL     1      -9.757   4.622  66.917  1.00  0.00    -0.236 I  
HETATM   15  I   UNL     1      -7.362   8.689  62.992  1.00  0.00    -0.109 I  
HETATM   16  C   UNL     1      -8.254   6.801  65.346  1.00  0.00    -0.134 A  
BRANCH  10  17
HETATM   17  C   UNL     1      -9.370   7.295  69.030  1.00  0.00    -0.148 C  
HETATM   18  O   UNL     1     -10.573   7.401  69.278  1.00  0.00    -0.218 OA 
HETATM   19  C   UNL     1      -7.041   6.701  69.928  1.00  0.00    -0.068 C  
HETATM   20  N   UNL     1      -8.461   7.002  70.065  1.00  0.00    -0.138 N  
BRANCH  20  21
HETATM   21  C   UNL     1      -8.961   6.980  71.467  1.00  0.00    -0.139 C  
BRANCH  21  22
HETATM   22  C   UNL     1      -9.294   5.550  71.965  1.00  0.00    -0.147 C  
HETATM   23  H   UNL     1     -10.748   4.651  72.974  1.00  0.00     0.000 HD 
HETATM   24  O   UNL     1     -10.544   5.528  72.669  1.00  0.00    -0.203 OA 
BRANCH  22  25
HETATM   25  C   UNL     1      -9.378   4.526  70.822  1.00  0.00    -0.151 C  
HETATM   26  H   UNL     1      -8.432   2.887  70.258  1.00  0.00     0.000 HD 
HETATM   27  O   UNL     1      -8.380   3.519  70.964  1.00  0.00    -0.065 OA 
ENDBRANCH  22  25
ENDBRANCH  21  22
ENDBRANCH  20  21
ENDBRANCH  10  17
BRANCH  16  28
HETATM   28  C   UNL     1      -7.734   5.703  64.472  1.00  0.00    -0.096 C  
HETATM   29  H   UNL     1      -9.270   6.013  63.076  1.00  0.00     0.000 HD 
HETATM   30  O   UNL     1      -6.752   5.045  64.775  1.00  0.00    -0.045 OA 
HETATM   31  N   UNL     1      -8.480   5.420  63.329  1.00  0.00    -0.102 N  
BRANCH  31  32
HETATM   32  C   UNL     1      -8.131   4.275  62.497  1.00  0.00    -0.068 C  
BRANCH  32  33
HETATM   33  C   UNL     1      -8.904   3.011  62.885  1.00  0.00    -0.088 C  
HETATM   34  O   UNL     1      -8.409   2.532  64.144  1.00  0.00    -0.082 OA 
HETATM   35  H   UNL     1      -8.888   1.747  64.385  1.00  0.00     0.000 HD 
BRANCH  33  36
HETATM   36  C   UNL     1     -10.415   3.286  62.964  1.00  0.00    -0.198 C  
HETATM   37  O   UNL     1     -11.020   2.594  64.054  1.00  0.00    -0.468 OA 
HETATM   38  H   UNL     1     -11.954   2.764  64.103  1.00  0.00     0.000 HD 
ENDBRANCH  33  36
ENDBRANCH  32  33
ENDBRANCH  31  32
ENDBRANCH  16  28
ENDBRANCH   6   8
ENDBRANCH   3   4
ENDBRANCH   2   3
TORSDOF 11
ENDMDL
MODEL      103
REMARK 921   NORMALIZED FREE ENERGY PREDICTED BY IDOCK:   -2.65 KCAL/MOL
REMARK 922        TOTAL FREE ENERGY PREDICTED BY IDOCK:   -5.47 KCAL/MOL
REMARK 923 INTER-LIGAND FREE ENERGY PREDICTED BY IDOCK:   -4.66 KCAL/MOL
REMARK 924 INTRA-LIGAND FREE ENERGY PREDICTED BY IDOCK:   -0.82 KCAL/MOL
REMARK 927      BINDING AFFINITY PREDICTED BY RF-SCORE:    0.00 PKD
ROOT
HETATM    1  C   UNL     1     -12.701  14.963  64.258  1.00  0.00     0.250 C  
HETATM    2  O   UNL     1     -13.115  13.833  65.022  1.00  0.00    -0.751 OA 
ENDROOT
BRANCH   2   3
HETATM    3  C   UNL     1     -12.527  12.622  64.567  1.00  0.00    -0.448 C  
BRANCH   3   4
HETATM    4  C   UNL     1     -11.190  12.286  65.250  1.00  0.00    -0.328 C  
HETATM    5  O   UNL     1     -10.222  11.884  64.610  1.00  0.00    -0.260 OA 
HETATM    6  N   UNL     1     -11.175  12.505  66.633  1.00  0.00    -0.290 N  
HETATM    7  H   UNL     1     -12.011  12.810  67.132  1.00  0.00     0.000 HD 
BRANCH   6   8
HETATM    8  C   UNL     1      -9.941  12.283  67.313  1.00  0.00    -0.204 A  
HETATM    9  C   UNL     1      -9.515  10.972  67.641  1.00  0.00    -0.164 A  
HETATM   10  C   UNL     1      -8.174  10.713  68.049  1.00  0.00    -0.113 A  
HETATM   11  I   UNL     1     -10.994   9.419  67.447  1.00  0.00     0.650 I  
HETATM   12  C   UNL     1      -9.101  13.380  67.610  1.00  0.00    -0.203 A  
HETATM   13  C   UNL     1      -7.297  11.827  68.112  1.00  0.00    -0.094 A  
HETATM   14  I   UNL     1      -5.172  11.547  67.837  1.00  0.00    -0.060 I  
HETATM   15  I   UNL     1      -9.978  15.354  67.518  1.00  0.00    -0.230 I  
HETATM   16  C   UNL     1      -7.783  13.163  68.055  1.00  0.00    -0.146 A  
BRANCH  10  17
HETATM   17  C   UNL     1      -7.718   9.288  68.248  1.00  0.00    -0.087 C  
HETATM   18  O   UNL     1      -7.244   8.715  67.264  1.00  0.00    -0.078 OA 
HETATM   19  C   UNL     1      -8.270   9.147  70.750  1.00  0.00    -0.190 C  
HETATM   20  N   UNL     1      -7.869   8.592  69.463  1.00  0.00    -0.095 N  
BRANCH  20  21
HETATM   21  C   UNL     1      -7.591   7.129  69.485  1.00  0.00    -0.101 C  
BRANCH  21  22
HETATM   22  C   UNL     1      -6.075   6.804  69.464  1.00  0.00    -0.029 C  
HETATM   23  H   UNL     1      -4.487   7.147  70.604  1.00  0.00     0.000 HD 
HETATM   24  O   UNL     1      -5.416   7.346  70.618  1.00  0.00    -0.023 OA 
BRANCH  22  25
HETATM   25  C   UNL     1      -5.789   5.296  69.421  1.00  0.00    -0.020 C  
HETATM   26  H   UNL     1      -6.614   3.633  70.098  1.00  0.00     0.000 HD 
HETATM   27  O   UNL     1      -6.790   4.566  70.124  1.00  0.00    -0.035 OA 
ENDBRANCH  22  25
ENDBRANCH  21  22
ENDBRANCH  20  21
ENDBRANCH  10  17
BRANCH  16  28
HETATM   28  C   UNL     1      -6.940  14.319  68.492  1.00  0.00    -0.102 C  
HETATM   29  H   UNL     1      -6.738  14.991  66.514  1.00  0.00     0.000 HD 
HETATM   30  O   UNL     1      -6.647  14.500  69.662  1.00  0.00    -0.133 OA 
HETATM   31  N   UNL     1      -6.441  15.137  67.479  1.00  0.00    -0.153 N  
BRANCH  31  32
HETATM   32  C   UNL     1      -5.496  16.199  67.799  1.00  0.00    -0.137 C  
BRANCH  32  33
HETATM   33  C   UNL     1      -6.121  17.593  67.686  1.00  0.00    -0.153 C  
HETATM   34  O   UNL     1      -5.274  18.538  68.357  1.00  0.00    -0.170 OA 
HETATM   35  H   UNL     1      -5.661  19.403  68.287  1.00  0.00     0.000 HD 
BRANCH  33  36
HETATM   36  C   UNL     1      -6.322  17.994  66.214  1.00  0.00    -0.218 C  
HETATM   37  O   UNL     1      -7.693  17.914  65.829  1.00  0.00    -0.538 OA 
HETATM   38  H   UNL     1      -7.817  18.161  64.920  1.00  0.00     0.000 HD 
ENDBRANCH  33  36
ENDBRANCH  32  33
ENDBRANCH  31  32
ENDBRANCH  16  28
ENDBRANCH   6   8
ENDBRANCH   3   4
ENDBRANCH   2   3
TORSDOF 11
ENDMDL
MODEL      104
REMARK 921   NORMALIZED FREE ENERGY PREDICTED BY IDOCK:   -2.61 KCAL/MOL
REMARK 922        TOTAL FREE ENERGY PREDICTED BY IDOCK:   -5.40 KCAL/MOL
REMARK 923 INTER-LIGAND FREE ENERGY PREDICTED BY IDOCK:   -4.58 KCAL/MOL
REMARK 924 INTRA-LIGAND FREE ENERGY PREDICTED BY IDOCK:   -0.83 KCAL/MOL
REMARK 927      BINDING AFFINITY PREDICTED BY RF-SCORE:    0.00 PKD
ROOT
HETATM    1  C   UNL     1     -10.620  12.705  64.062  1.00  0.00    -0.427 C  
HETATM    2  O   UNL     1      -9.970  11.942  65.074  1.00  0.00    -0.253 OA 
ENDROOT
BRANCH   2   3
HETATM    3  C   UNL     1      -9.482  10.697  64.591  1.00  0.00    -0.258 C  
BRANCH   3   4
HETATM    4  C   UNL     1      -9.448   9.588  65.657  1.00  0.00    -0.261 C  
HETATM    5  O   UNL     1     -10.479   9.078  66.088  1.00  0.00    -0.118 OA 
HETATM    6  N   UNL     1      -8.162   9.208  66.056  1.00  0.00    -0.113 N  
HETATM    7  H   UNL     1      -7.332   9.680  65.697  1.00  0.00     0.000 HD 
BRANCH   6   8
HETATM    8  C   UNL     1      -8.062   8.132  66.988  1.00  0.00    -0.108 A  
HETATM    9  C   UNL     1      -8.265   8.349  68.375  1.00  0.00    -0.124 A  
HETATM   10  C   UNL     1      -8.457   7.256  69.270  1.00  0.00    -0.133 A  
HETATM   11  I   UNL     1      -8.300  10.402  69.019  1.00  0.00    -0.131 I  
HETATM   12  C   UNL     1      -7.820   6.822  66.518  1.00  0.00    -0.104 A  
HETATM   13  C   UNL     1      -8.432   5.953  68.707  1.00  0.00    -0.111 A  
HETATM   14  I   UNL     1      -9.527   4.347  69.650  1.00  0.00    -0.268 I  
HETATM   15  I   UNL     1      -7.070   6.616  64.502  1.00  0.00    -0.076 I  
HETATM   16  C   UNL     1      -7.960   5.722  67.385  1.00  0.00    -0.102 A  
BRANCH  10  17
HETATM   17  C   UNL     1      -8.815   7.529  70.711  1.00  0.00    -0.148 C  
HETATM   18  O   UNL     1      -9.992   7.811  70.945  1.00  0.00    -0.183 OA 
HETATM   19  C   UNL     1      -6.482   7.086  71.684  1.00  0.00    -0.048 C  
HETATM   20  N   UNL     1      -7.868   7.532  71.754  1.00  0.00    -0.085 N  
BRANCH  20  21
HETATM   21  C   UNL     1      -8.286   8.029  73.094  1.00  0.00    -0.195 C  
BRANCH  21  22
HETATM   22  C   UNL     1      -8.871   6.911  73.995  1.00  0.00    -0.170 C  
HETATM   23  H   UNL     1     -10.656   6.341  74.650  1.00  0.00     0.000 HD 
HETATM   24  O   UNL     1     -10.298   7.026  74.098  1.00  0.00    -0.346 OA 
BRANCH  22  25
HETATM   25  C   UNL     1      -8.548   5.500  73.479  1.00  0.00    -0.114 C  
HETATM   26  H   UNL     1      -9.534   3.857  73.004  1.00  0.00     0.000 HD 
HETATM   27  O   UNL     1      -9.734   4.728  73.323  1.00  0.00    -0.134 OA 
ENDBRANCH  22  25
ENDBRANCH  21  22
ENDBRANCH  20  21
ENDBRANCH  10  17
BRANCH  16  28
HETATM   28  C   UNL     1      -7.577   4.351  66.923  1.00  0.00    -0.085 C  
HETATM   29  H   UNL     1      -9.412   4.113  65.932  1.00  0.00     0.000 HD 
HETATM   30  O   UNL     1      -6.507   3.845  67.216  1.00  0.00    -0.036 OA 
HETATM   31  N   UNL     1      -8.545   3.651  66.202  1.00  0.00    -0.111 N  
BRANCH  31  32
HETATM   32  C   UNL     1      -8.315   2.259  65.836  1.00  0.00    -0.094 C  
BRANCH  32  33
HETATM   33  C   UNL     1      -8.221   2.059  64.320  1.00  0.00    -0.078 C  
HETATM   34  O   UNL     1      -9.223   2.866  63.683  1.00  0.00    -0.095 OA 
HETATM   35  H   UNL     1      -9.165   2.742  62.742  1.00  0.00     0.000 HD 
BRANCH  33  36
HETATM   36  C   UNL     1      -6.820   2.421  63.799  1.00  0.00    -0.036 C  
HETATM   37  O   UNL     1      -6.886   3.179  62.593  1.00  0.00    -0.029 OA 
HETATM   38  H   UNL     1      -6.020   3.403  62.270  1.00  0.00     0.000 HD 
ENDBRANCH  33  36
ENDBRANCH  32  33
ENDBRANCH  31  32
ENDBRANCH  16  28
ENDBRANCH   6   8
ENDBRANCH   3   4
ENDBRANCH   2   3
TORSDOF 11
ENDMDL
MODEL      105
REMARK 921   NORMALIZED FREE ENERGY PREDICTED BY IDOCK:   -2.56 KCAL/MOL
REMARK 922        TOTAL FREE ENERGY PREDICTED BY IDOCK:   -5.34 KCAL/MOL
REMARK 923 INTER-LIGAND FREE ENERGY PREDICTED BY IDOCK:   -5.19 KCAL/MOL
REMARK 924 INTRA-LIGAND FREE ENERGY PREDICTED BY IDOCK:   -0.15 KCAL/MOL
REMARK 927      BINDING AFFINITY PREDICTED BY RF-SCORE:    0.00 PKD
ROOT
HETATM    1  C   UNL     1      -8.884   3.319  62.662  1.00  0.00    -0.088 C  
HETATM    2  O   UNL     1      -8.323   3.661  63.927  1.00  0.00    -0.089 OA 
ENDROOT
BRANCH   2   3
HETATM    3  C   UNL     1      -9.205   3.385  65.007  1.00  0.00    -0.147 C  
BRANCH   3   4
HETATM    4  C   UNL     1      -9.458   4.594  65.924  1.00  0.00    -0.172 C  
HETATM    5  O   UNL     1     -10.585   5.055  66.087  1.00  0.00    -0.301 OA 
HETATM    6  N   UNL     1      -8.314   5.087  66.562  1.00  0.00    -0.108 N  
HETATM    7  H   UNL     1      -7.390   4.696  66.375  1.00  0.00     0.000 HD 
BRANCH   6   8
HETATM    8  C   UNL     1      -8.495   6.161  67.483  1.00  0.00    -0.108 A  
HETATM    9  C   UNL     1      -8.107   7.483  67.148  1.00  0.00    -0.118 A  
HETATM   10  C   UNL     1      -8.542   8.598  67.923  1.00  0.00    -0.137 A  
HETATM   11  I   UNL     1      -6.873   7.692  65.397  1.00  0.00    -0.045 I  
HETATM   12  C   UNL     1      -9.127   5.918  68.724  1.00  0.00    -0.116 A  
HETATM   13  C   UNL     1      -9.372   8.317  69.040  1.00  0.00    -0.147 A  
HETATM   14  I   UNL     1     -10.775   9.802  69.744  1.00  0.00    -0.349 I  
HETATM   15  I   UNL     1      -9.273   3.861  69.374  1.00  0.00    -0.244 I  
HETATM   16  C   UNL     1      -9.533   6.993  69.536  1.00  0.00    -0.147 A  
BRANCH  10  17
HETATM   17  C   UNL     1      -8.231   9.998  67.452  1.00  0.00    -0.118 C  
HETATM   18  O   UNL     1      -7.324  10.591  68.039  1.00  0.00    -0.087 OA 
HETATM   19  C   UNL     1      -9.958  10.061  65.555  1.00  0.00    -0.296 C  
HETATM   20  N   UNL     1      -8.962  10.651  66.441  1.00  0.00    -0.158 N  
BRANCH  20  21
HETATM   21  C   UNL     1      -8.718  12.102  66.210  1.00  0.00     0.018 C  
BRANCH  21  22
HETATM   22  C   UNL     1      -9.739  13.008  66.945  1.00  0.00    -0.238 C  
HETATM   23  H   UNL     1     -11.417  12.784  67.981  1.00  0.00     0.000 HD 
HETATM   24  O   UNL     1     -10.792  12.228  67.531  1.00  0.00    -0.221 OA 
BRANCH  22  25
HETATM   25  C   UNL     1      -9.097  13.848  68.059  1.00  0.00    -0.192 C  
HETATM   26  H   UNL     1      -7.404  13.878  69.075  1.00  0.00     0.000 HD 
HETATM   27  O   UNL     1      -7.801  13.358  68.386  1.00  0.00    -0.131 OA 
ENDBRANCH  22  25
ENDBRANCH  21  22
ENDBRANCH  20  21
ENDBRANCH  10  17
BRANCH  16  28
HETATM   28  C   UNL     1     -10.081   6.734  70.904  1.00  0.00    -0.190 C  
HETATM   29  H   UNL     1     -11.801   5.836  70.103  1.00  0.00     0.000 HD 
HETATM   30  O   UNL     1      -9.488   7.074  71.913  1.00  0.00    -0.142 OA 
HETATM   31  N   UNL     1     -11.347   6.152  70.960  1.00  0.00    -0.303 N  
BRANCH  31  32
HETATM   32  C   UNL     1     -12.020   5.995  72.243  1.00  0.00    -0.204 C  
BRANCH  32  33
HETATM   33  C   UNL     1     -13.103   7.053  72.470  1.00  0.00     0.526 C  
HETATM   34  O   UNL     1     -12.478   8.275  72.891  1.00  0.00    -0.627 OA 
HETATM   35  H   UNL     1     -13.151   8.932  73.033  1.00  0.00     0.000 HD 
BRANCH  33  36
HETATM   36  C   UNL     1     -13.934   7.280  71.196  1.00  0.00    -0.100 C  
HETATM   37  O   UNL     1     -13.877   8.638  70.764  1.00  0.00    -0.414 OA 
HETATM   38  H   UNL     1     -14.390   8.778  69.977  1.00  0.00     0.000 HD 
ENDBRANCH  33  36
ENDBRANCH  32  33
ENDBRANCH  31  32
ENDBRANCH  16  28
ENDBRANCH   6   8
ENDBRANCH   3   4
ENDBRANCH   2   3
TORSDOF 11
ENDMDL
MODEL      106
REMARK 921   NORMALIZED FREE ENERGY PREDICTED BY IDOCK:   -2.54 KCAL/MOL
REMARK 922        TOTAL FREE ENERGY PREDICTED BY IDOCK:   -5.30 KCAL/MOL
REMARK 923 INTER-LIGAND FREE ENERGY PREDICTED BY IDOCK:   -6.36 KCAL/MOL
REMARK 924 INTRA-LIGAND FREE ENERGY PREDICTED BY IDOCK:    1.06 KCAL/MOL
REMARK 927      BINDING AFFINITY PREDICTED BY RF-SCORE:    0.00 PKD
ROOT
HETATM    1  C   UNL     1      -7.446   5.000  66.892  1.00  0.00    -0.087 C  
HETATM    2  O   UNL     1      -7.168   5.221  65.513  1.00  0.00    -0.066 OA 
ENDROOT
BRANCH   2   3
HETATM    3  C   UNL     1      -7.355   6.577  65.129  1.00  0.00    -0.078 C  
BRANCH   3   4
HETATM    4  C   UNL     1      -7.738   7.504  66.295  1.00  0.00    -0.089 C  
HETATM    5  O   UNL     1      -6.902   7.903  67.102  1.00  0.00    -0.069 OA 
HETATM    6  N   UNL     1      -9.090   7.862  66.332  1.00  0.00    -0.171 N  
HETATM    7  H   UNL     1      -9.759   7.482  65.661  1.00  0.00     0.000 HD 
BRANCH   6   8
HETATM    8  C   UNL     1      -9.493   8.779  67.347  1.00  0.00    -0.146 A  
HETATM    9  C   UNL     1      -9.460  10.178  67.120  1.00  0.00    -0.158 A  
HETATM   10  C   UNL     1     -10.124  11.084  67.998  1.00  0.00    -0.198 A  
HETATM   11  I   UNL     1      -8.389  10.828  65.369  1.00  0.00     0.101 I  
HETATM   12  C   UNL     1      -9.993   8.288  68.574  1.00  0.00    -0.190 A  
HETATM   13  C   UNL     1     -10.811  10.516  69.103  1.00  0.00    -0.237 A  
HETATM   14  I   UNL     1     -12.508  11.542  69.962  1.00  0.00     0.035 I  
HETATM   15  I   UNL     1      -9.597   6.215  69.045  1.00  0.00    -0.175 I  
HETATM   16  C   UNL     1     -10.618   9.159  69.485  1.00  0.00    -0.233 A  
BRANCH  10  17
HETATM   17  C   UNL     1     -10.190  12.550  67.645  1.00  0.00    -0.219 C  
HETATM   18  O   UNL     1      -9.402  13.296  68.228  1.00  0.00    -0.212 OA 
HETATM   19  C   UNL     1     -12.034  12.344  65.873  1.00  0.00    -0.367 C  
HETATM   20  N   UNL     1     -11.135  13.085  66.748  1.00  0.00    -0.279 N  
BRANCH  20  21
HETATM   21  C   UNL     1     -11.257  14.565  66.642  1.00  0.00    -0.346 C  
BRANCH  21  22
HETATM   22  C   UNL     1     -10.150  15.199  65.759  1.00  0.00    -0.346 C  
HETATM   23  H   UNL     1     -10.042  16.290  64.105  1.00  0.00     0.000 HD 
HETATM   24  O   UNL     1     -10.720  15.902  64.646  1.00  0.00    -0.553 OA 
BRANCH  22  25
HETATM   25  C   UNL     1      -9.261  16.183  66.534  1.00  0.00    -0.272 C  
HETATM   26  H   UNL     1      -8.730  18.081  66.410  1.00  0.00     0.000 HD 
HETATM   27  O   UNL     1      -9.280  17.473  65.932  1.00  0.00    -0.508 OA 
ENDBRANCH  22  25
ENDBRANCH  21  22
ENDBRANCH  20  21
ENDBRANCH  10  17
BRANCH  16  28
HETATM   28  C   UNL     1     -11.028   8.663  70.836  1.00  0.00    -0.253 C  
HETATM   29  H   UNL     1      -9.048   8.151  71.308  1.00  0.00     0.000 HD 
HETATM   30  O   UNL     1     -12.190   8.678  71.205  1.00  0.00    -0.294 OA 
HETATM   31  N   UNL     1     -10.018   8.110  71.621  1.00  0.00    -0.180 N  
BRANCH  31  32
HETATM   32  C   UNL     1     -10.348   7.472  72.889  1.00  0.00    -0.296 C  
BRANCH  32  33
HETATM   33  C   UNL     1     -10.460   5.949  72.769  1.00  0.00    -0.209 C  
HETATM   34  O   UNL     1      -9.512   5.342  73.660  1.00  0.00    -0.136 OA 
HETATM   35  H   UNL     1      -9.581   4.397  73.585  1.00  0.00     0.000 HD 
BRANCH  33  36
HETATM   36  C   UNL     1     -11.887   5.471  73.086  1.00  0.00     0.141 C  
HETATM   37  O   UNL     1     -12.833   5.974  72.144  1.00  0.00    -0.264 OA 
HETATM   38  H   UNL     1     -13.714   5.678  72.340  1.00  0.00     0.000 HD 
ENDBRANCH  33  36
ENDBRANCH  32  33
ENDBRANCH  31  32
ENDBRANCH  16  28
ENDBRANCH   6   8
ENDBRANCH   3   4
ENDBRANCH   2   3
TORSDOF 11
ENDMDL
MODEL      107
REMARK 921   NORMALIZED FREE ENERGY PREDICTED BY IDOCK:   -2.51 KCAL/MOL
REMARK 922        TOTAL FREE ENERGY PREDICTED BY IDOCK:   -5.25 KCAL/MOL
REMARK 923 INTER-LIGAND FREE ENERGY PREDICTED BY IDOCK:   -4.57 KCAL/MOL
REMARK 924 INTRA-LIGAND FREE ENERGY PREDICTED BY IDOCK:   -0.68 KCAL/MOL
REMARK 927      BINDING AFFINITY PREDICTED BY RF-SCORE:    0.00 PKD
ROOT
HETATM    1  C   UNL     1     -10.027   3.949  74.565  1.00  0.00    -0.166 C  
HETATM    2  O   UNL     1     -10.490   5.149  73.953  1.00  0.00    -0.227 OA 
ENDROOT
BRANCH   2   3
HETATM    3  C   UNL     1     -11.389   4.903  72.880  1.00  0.00    -0.216 C  
BRANCH   3   4
HETATM    4  C   UNL     1     -10.965   5.558  71.554  1.00  0.00    -0.150 C  
HETATM    5  O   UNL     1     -11.756   6.207  70.874  1.00  0.00    -0.282 OA 
HETATM    6  N   UNL     1      -9.619   5.371  71.219  1.00  0.00    -0.153 N  
HETATM    7  H   UNL     1      -9.002   4.797  71.795  1.00  0.00     0.000 HD 
BRANCH   6   8
HETATM    8  C   UNL     1      -9.147   6.017  70.037  1.00  0.00    -0.146 A  
HETATM    9  C   UNL     1      -9.010   5.302  68.822  1.00  0.00    -0.110 A  
HETATM   10  C   UNL     1      -8.826   5.983  67.583  1.00  0.00    -0.106 A  
HETATM   11  I   UNL     1      -9.136   3.158  68.963  1.00  0.00    -0.214 I  
HETATM   12  C   UNL     1      -8.871   7.403  70.063  1.00  0.00    -0.141 A  
HETATM   13  C   UNL     1      -8.783   7.402  67.632  1.00  0.00    -0.125 A  
HETATM   14  I   UNL     1      -9.386   8.561  65.910  1.00  0.00     0.006 I  
HETATM   15  I   UNL     1      -8.649   8.334  72.001  1.00  0.00    -0.243 I  
HETATM   16  C   UNL     1      -8.643   8.101  68.862  1.00  0.00    -0.130 A  
BRANCH  10  17
HETATM   17  C   UNL     1      -8.831   5.199  66.293  1.00  0.00    -0.124 C  
HETATM   18  O   UNL     1      -9.929   4.833  65.872  1.00  0.00    -0.191 OA 
HETATM   19  C   UNL     1      -6.299   5.290  65.882  1.00  0.00    -0.035 C  
HETATM   20  N   UNL     1      -7.655   4.829  65.611  1.00  0.00    -0.085 N  
BRANCH  20  21
HETATM   21  C   UNL     1      -7.762   3.871  64.476  1.00  0.00    -0.081 C  
BRANCH  21  22
HETATM   22  C   UNL     1      -7.569   4.550  63.095  1.00  0.00    -0.058 C  
HETATM   23  H   UNL     1      -7.521   6.395  62.364  1.00  0.00     0.000 HD 
HETATM   24  O   UNL     1      -7.639   5.980  63.210  1.00  0.00    -0.074 OA 
BRANCH  22  25
HETATM   25  C   UNL     1      -6.227   4.195  62.439  1.00  0.00    -0.017 C  
HETATM   26  H   UNL     1      -4.574   3.228  62.924  1.00  0.00     0.000 HD 
HETATM   27  O   UNL     1      -5.404   3.448  63.329  1.00  0.00    -0.008 OA 
ENDBRANCH  22  25
ENDBRANCH  21  22
ENDBRANCH  20  21
ENDBRANCH  10  17
BRANCH  16  28
HETATM   28  C   UNL     1      -8.224   9.537  68.899  1.00  0.00    -0.116 C  
HETATM   29  H   UNL     1      -6.373   9.076  68.022  1.00  0.00     0.000 HD 
HETATM   30  O   UNL     1      -8.940  10.409  69.363  1.00  0.00    -0.194 OA 
HETATM   31  N   UNL     1      -6.934   9.814  68.446  1.00  0.00    -0.068 N  
BRANCH  31  32
HETATM   32  C   UNL     1      -6.389  11.159  68.579  1.00  0.00    -0.046 C  
BRANCH  32  33
HETATM   33  C   UNL     1      -6.372  11.919  67.249  1.00  0.00    -0.143 C  
HETATM   34  O   UNL     1      -5.289  12.860  67.265  1.00  0.00    -0.318 OA 
HETATM   35  H   UNL     1      -5.279  13.332  66.439  1.00  0.00     0.000 HD 
BRANCH  33  36
HETATM   36  C   UNL     1      -6.235  10.953  66.059  1.00  0.00    -0.115 C  
HETATM   37  O   UNL     1      -5.222  11.378  65.150  1.00  0.00    -0.494 OA 
HETATM   38  H   UNL     1      -5.138  10.781  64.415  1.00  0.00     0.000 HD 
ENDBRANCH  33  36
ENDBRANCH  32  33
ENDBRANCH  31  32
ENDBRANCH  16  28
ENDBRANCH   6   8
ENDBRANCH   3   4
ENDBRANCH   2   3
TORSDOF 11
ENDMDL
MODEL      108
REMARK 921   NORMALIZED FREE ENERGY PREDICTED BY IDOCK:   -2.41 KCAL/MOL
REMARK 922        TOTAL FREE ENERGY PREDICTED BY IDOCK:   -5.08 KCAL/MOL
REMARK 923 INTER-LIGAND FREE ENERGY PREDICTED BY IDOCK:   -4.91 KCAL/MOL
REMARK 924 INTRA-LIGAND FREE ENERGY PREDICTED BY IDOCK:   -0.17 KCAL/MOL
REMARK 927      BINDING AFFINITY PREDICTED BY RF-SCORE:    0.00 PKD
ROOT
HETATM    1  C   UNL     1     -13.636   7.235  71.454  1.00  0.00    -0.311 C  
HETATM    2  O   UNL     1     -12.432   7.024  72.187  1.00  0.00    -0.257 OA 
ENDROOT
BRANCH   2   3
HETATM    3  C   UNL     1     -11.696   5.903  71.717  1.00  0.00    -0.096 C  
BRANCH   3   4
HETATM    4  C   UNL     1     -10.983   6.147  70.377  1.00  0.00    -0.337 C  
HETATM    5  O   UNL     1     -11.610   6.333  69.337  1.00  0.00    -0.403 OA 
HETATM    6  N   UNL     1      -9.585   6.165  70.459  1.00  0.00    -0.167 N  
HETATM    7  H   UNL     1      -9.101   5.974  71.336  1.00  0.00     0.000 HD 
BRANCH   6   8
HETATM    8  C   UNL     1      -8.867   6.461  69.262  1.00  0.00    -0.128 A  
HETATM    9  C   UNL     1      -8.329   5.424  68.460  1.00  0.00    -0.097 A  
HETATM   10  C   UNL     1      -7.873   5.679  67.133  1.00  0.00    -0.101 A  
HETATM   11  I   UNL     1      -8.282   3.465  69.350  1.00  0.00    -0.094 I  
HETATM   12  C   UNL     1      -8.745   7.803  68.835  1.00  0.00    -0.135 A  
HETATM   13  C   UNL     1      -7.982   7.015  66.664  1.00  0.00    -0.108 A  
HETATM   14  I   UNL     1      -8.190   7.403  64.548  1.00  0.00     0.229 I  
HETATM   15  I   UNL     1      -9.162   9.346  70.290  1.00  0.00    -0.243 I  
HETATM   16  C   UNL     1      -8.260   8.095  67.547  1.00  0.00    -0.123 A  
BRANCH  10  17
HETATM   17  C   UNL     1      -7.442   4.527  66.259  1.00  0.00    -0.082 C  
HETATM   18  O   UNL     1      -6.230   4.332  66.156  1.00  0.00    -0.030 OA 
HETATM   19  C   UNL     1      -9.801   3.727  65.642  1.00  0.00    -0.100 C  
HETATM   20  N   UNL     1      -8.348   3.731  65.530  1.00  0.00    -0.104 N  
BRANCH  20  21
HETATM   21  C   UNL     1      -7.806   2.769  64.531  1.00  0.00    -0.078 C  
BRANCH  21  22
HETATM   22  C   UNL     1      -7.625   3.400  63.126  1.00  0.00    -0.059 C  
HETATM   23  H   UNL     1      -8.443   4.860  62.059  1.00  0.00     0.000 HD 
HETATM   24  O   UNL     1      -8.555   4.474  62.920  1.00  0.00    -0.098 OA 
BRANCH  22  25
HETATM   25  C   UNL     1      -6.209   3.950  62.898  1.00  0.00    -0.018 C  
HETATM   26  H   UNL     1      -4.350   3.297  63.027  1.00  0.00     0.000 HD 
HETATM   27  O   UNL     1      -5.225   2.957  63.168  1.00  0.00    -0.007 OA 
ENDBRANCH  22  25
ENDBRANCH  21  22
ENDBRANCH  20  21
ENDBRANCH  10  17
BRANCH  16  28
HETATM   28  C   UNL     1      -8.007   9.514  67.146  1.00  0.00    -0.102 C  
HETATM   29  H   UNL     1      -9.999  10.039  67.548  1.00  0.00     0.000 HD 
HETATM   30  O   UNL     1      -6.916   9.891  66.752  1.00  0.00    -0.086 OA 
HETATM   31  N   UNL     1      -9.110  10.367  67.172  1.00  0.00    -0.139 N  
BRANCH  31  32
HETATM   32  C   UNL     1      -8.991  11.727  66.662  1.00  0.00    -0.195 C  
BRANCH  32  33
HETATM   33  C   UNL     1      -9.814  11.951  65.390  1.00  0.00    -0.233 C  
HETATM   34  O   UNL     1     -10.191  10.675  64.851  1.00  0.00    -0.317 OA 
HETATM   35  H   UNL     1     -10.702  10.813  64.061  1.00  0.00     0.000 HD 
BRANCH  33  36
HETATM   36  C   UNL     1     -11.058  12.808  65.677  1.00  0.00    -0.279 C  
HETATM   37  O   UNL     1     -12.073  12.058  66.341  1.00  0.00    -0.610 OA 
HETATM   38  H   UNL     1     -12.842  12.587  66.518  1.00  0.00     0.000 HD 
ENDBRANCH  33  36
ENDBRANCH  32  33
ENDBRANCH  31  32
ENDBRANCH  16  28
ENDBRANCH   6   8
ENDBRANCH   3   4
ENDBRANCH   2   3
TORSDOF 11
ENDMDL
MODEL      109
REMARK 921   NORMALIZED FREE ENERGY PREDICTED BY IDOCK:   -2.40 KCAL/MOL
REMARK 922        TOTAL FREE ENERGY PREDICTED BY IDOCK:   -5.06 KCAL/MOL
REMARK 923 INTER-LIGAND FREE ENERGY PREDICTED BY IDOCK:   -6.85 KCAL/MOL
REMARK 924 INTRA-LIGAND FREE ENERGY PREDICTED BY IDOCK:    1.79 KCAL/MOL
REMARK 927      BINDING AFFINITY PREDICTED BY RF-SCORE:    0.00 PKD
ROOT
HETATM    1  C   UNL     1      -5.879  20.201  70.960  1.00  0.00    -0.309 C  
HETATM    2  O   UNL     1      -5.245  20.233  69.685  1.00  0.00    -0.211 OA 
ENDROOT
BRANCH   2   3
HETATM    3  C   UNL     1      -6.174  20.374  68.618  1.00  0.00    -0.319 C  
BRANCH   3   4
HETATM    4  C   UNL     1      -6.604  19.038  67.990  1.00  0.00    -0.225 C  
HETATM    5  O   UNL     1      -6.110  18.629  66.942  1.00  0.00    -0.158 OA 
HETATM    6  N   UNL     1      -7.569  18.337  68.723  1.00  0.00    -0.298 N  
HETATM    7  H   UNL     1      -7.978  18.726  69.573  1.00  0.00     0.000 HD 
BRANCH   6   8
HETATM    8  C   UNL     1      -7.955  17.055  68.231  1.00  0.00    -0.222 A  
HETATM    9  C   UNL     1      -7.305  15.877  68.677  1.00  0.00    -0.141 A  
HETATM   10  C   UNL     1      -7.861  14.588  68.426  1.00  0.00    -0.135 A  
HETATM   11  I   UNL     1      -5.474  16.162  69.772  1.00  0.00    -0.165 I  
HETATM   12  C   UNL     1      -9.043  16.950  67.334  1.00  0.00    -0.217 A  
HETATM   13  C   UNL     1      -9.086  14.547  67.710  1.00  0.00    -0.190 A  
HETATM   14  I   UNL     1     -10.453  12.899  68.002  1.00  0.00    -0.263 I  
HETATM   15  I   UNL     1      -9.686  18.759  66.342  1.00  0.00    -0.291 I  
HETATM   16  C   UNL     1      -9.592  15.690  67.030  1.00  0.00    -0.233 A  
BRANCH  10  17
HETATM   17  C   UNL     1      -7.219  13.368  69.041  1.00  0.00    -0.018 C  
HETATM   18  O   UNL     1      -7.277  13.271  70.268  1.00  0.00     0.885 OA 
HETATM   19  C   UNL     1      -6.480  12.281  66.837  1.00  0.00     0.072 C  
HETATM   20  N   UNL     1      -6.525  12.400  68.289  1.00  0.00    -0.057 N  
BRANCH  20  21
HETATM   21  C   UNL     1      -5.744  11.360  69.014  1.00  0.00    -0.044 C  
BRANCH  21  22
HETATM   22  C   UNL     1      -6.244   9.921  68.725  1.00  0.00    -0.041 C  
HETATM   23  H   UNL     1      -5.728   8.066  69.208  1.00  0.00     0.000 HD 
HETATM   24  O   UNL     1      -5.422   8.948  69.386  1.00  0.00    -0.034 OA 
BRANCH  22  25
HETATM   25  C   UNL     1      -7.696   9.694  69.171  1.00  0.00    -0.087 C  
HETATM   26  H   UNL     1      -9.382   9.036  68.379  1.00  0.00     0.000 HD 
HETATM   27  O   UNL     1      -8.484   9.177  68.103  1.00  0.00    -0.123 OA 
ENDBRANCH  22  25
ENDBRANCH  21  22
ENDBRANCH  20  21
ENDBRANCH  10  17
BRANCH  16  28
HETATM   28  C   UNL     1     -10.654  15.568  65.984  1.00  0.00    -0.325 C  
HETATM   29  H   UNL     1     -11.577  13.998  67.026  1.00  0.00     0.000 HD 
HETATM   30  O   UNL     1     -10.668  16.277  64.991  1.00  0.00    -0.600 OA 
HETATM   31  N   UNL     1     -11.584  14.546  66.166  1.00  0.00    -0.368 N  
BRANCH  31  32
HETATM   32  C   UNL     1     -12.566  14.261  65.127  1.00  0.00    -0.372 C  
BRANCH  32  33
HETATM   33  C   UNL     1     -11.955  13.535  63.925  1.00  0.00    -0.440 C  
HETATM   34  O   UNL     1     -10.525  13.536  64.060  1.00  0.00    -0.544 OA 
HETATM   35  H   UNL     1     -10.146  13.086  63.314  1.00  0.00     0.000 HD 
BRANCH  33  36
HETATM   36  C   UNL     1     -12.488  12.097  63.815  1.00  0.00    -0.514 C  
HETATM   37  O   UNL     1     -11.665  11.292  62.974  1.00  0.00    -0.863 OA 
HETATM   38  H   UNL     1     -11.994  10.403  62.906  1.00  0.00     0.000 HD 
ENDBRANCH  33  36
ENDBRANCH  32  33
ENDBRANCH  31  32
ENDBRANCH  16  28
ENDBRANCH   6   8
ENDBRANCH   3   4
ENDBRANCH   2   3
TORSDOF 11
ENDMDL
MODEL      110
REMARK 921   NORMALIZED FREE ENERGY PREDICTED BY IDOCK:   -2.36 KCAL/MOL
REMARK 922        TOTAL FREE ENERGY PREDICTED BY IDOCK:   -5.01 KCAL/MOL
REMARK 923 INTER-LIGAND FREE ENERGY PREDICTED BY IDOCK:   -5.24 KCAL/MOL
REMARK 924 INTRA-LIGAND FREE ENERGY PREDICTED BY IDOCK:    0.23 KCAL/MOL
REMARK 927      BINDING AFFINITY PREDICTED BY RF-SCORE:    0.00 PKD
ROOT
HETATM    1  C   UNL     1      -9.072   5.434  73.466  1.00  0.00    -0.128 C  
HETATM    2  O   UNL     1     -10.382   5.554  72.918  1.00  0.00    -0.179 OA 
ENDROOT
BRANCH   2   3
HETATM    3  C   UNL     1     -10.977   6.814  73.199  1.00  0.00    -0.246 C  
BRANCH   3   4
HETATM    4  C   UNL     1     -10.476   7.952  72.293  1.00  0.00    -0.262 C  
HETATM    5  O   UNL     1      -9.700   8.810  72.707  1.00  0.00    -0.159 OA 
HETATM    6  N   UNL     1     -10.955   7.900  70.979  1.00  0.00    -0.240 N  
HETATM    7  H   UNL     1     -11.624   7.189  70.684  1.00  0.00     0.000 HD 
BRANCH   6   8
HETATM    8  C   UNL     1     -10.467   8.886  70.070  1.00  0.00    -0.213 A  
HETATM    9  C   UNL     1      -9.280   8.669  69.328  1.00  0.00    -0.150 A  
HETATM   10  C   UNL     1      -8.942   9.498  68.219  1.00  0.00    -0.124 A  
HETATM   11  I   UNL     1      -8.062   7.008  69.952  1.00  0.00    -0.128 I  
HETATM   12  C   UNL     1     -11.211  10.070  69.860  1.00  0.00    -0.275 A  
HETATM   13  C   UNL     1      -9.847  10.546  67.903  1.00  0.00    -0.160 A  
HETATM   14  I   UNL     1      -9.986  11.278  65.874  1.00  0.00    -0.322 I  
HETATM   15  I   UNL     1     -12.727  10.560  71.320  1.00  0.00    -0.544 I  
HETATM   16  C   UNL     1     -10.880  10.934  68.800  1.00  0.00    -0.251 A  
BRANCH  10  17
HETATM   17  C   UNL     1      -7.749   9.148  67.363  1.00  0.00    -0.092 C  
HETATM   18  O   UNL     1      -6.713   9.782  67.572  1.00  0.00    -0.069 OA 
HETATM   19  C   UNL     1      -8.880   7.265  66.036  1.00  0.00    -0.136 C  
HETATM   20  N   UNL     1      -7.796   8.197  66.325  1.00  0.00    -0.093 N  
BRANCH  20  21
HETATM   21  C   UNL     1      -6.632   8.090  65.404  1.00  0.00    -0.048 C  
BRANCH  21  22
HETATM   22  C   UNL     1      -6.914   8.697  64.005  1.00  0.00    -0.082 C  
HETATM   23  H   UNL     1      -8.441   9.534  63.052  1.00  0.00     0.000 HD 
HETATM   24  O   UNL     1      -8.269   9.163  63.909  1.00  0.00    -0.154 OA 
BRANCH  22  25
HETATM   25  C   UNL     1      -5.986   9.874  63.668  1.00  0.00    -0.120 C  
HETATM   26  H   UNL     1      -4.573  10.923  64.564  1.00  0.00     0.000 HD 
HETATM   27  O   UNL     1      -5.146  10.196  64.772  1.00  0.00    -0.061 OA 
ENDBRANCH  22  25
ENDBRANCH  21  22
ENDBRANCH  20  21
ENDBRANCH  10  17
BRANCH  16  28
HETATM   28  C   UNL     1     -11.583  12.248  68.658  1.00  0.00    -0.323 C  
HETATM   29  H   UNL     1     -10.239  13.171  69.981  1.00  0.00     0.000 HD 
HETATM   30  O   UNL     1     -12.570  12.381  67.955  1.00  0.00     0.193 OA 
HETATM   31  N   UNL     1     -11.092  13.296  69.437  1.00  0.00    -0.150 N  
BRANCH  31  32
HETATM   32  C   UNL     1     -11.800  14.570  69.473  1.00  0.00    -0.329 C  
BRANCH  32  33
HETATM   33  C   UNL     1     -12.893  14.603  70.545  1.00  0.00    -0.317 C  
HETATM   34  O   UNL     1     -13.721  13.439  70.401  1.00  0.00     0.702 OA 
HETATM   35  H   UNL     1     -14.400  13.460  71.066  1.00  0.00     0.000 HD 
BRANCH  33  36
HETATM   36  C   UNL     1     -12.285  14.665  71.956  1.00  0.00    -0.295 C  
HETATM   37  O   UNL     1     -11.010  15.303  71.953  1.00  0.00    -0.486 OA 
HETATM   38  H   UNL     1     -10.634  15.342  72.825  1.00  0.00     0.000 HD 
ENDBRANCH  33  36
ENDBRANCH  32  33
ENDBRANCH  31  32
ENDBRANCH  16  28
ENDBRANCH   6   8
ENDBRANCH   3   4
ENDBRANCH   2   3
TORSDOF 11
ENDMDL
MODEL      111
REMARK 921   NORMALIZED FREE ENERGY PREDICTED BY IDOCK:   -2.36 KCAL/MOL
REMARK 922        TOTAL FREE ENERGY PREDICTED BY IDOCK:   -4.99 KCAL/MOL
REMARK 923 INTER-LIGAND FREE ENERGY PREDICTED BY IDOCK:   -4.36 KCAL/MOL
REMARK 924 INTRA-LIGAND FREE ENERGY PREDICTED BY IDOCK:   -0.64 KCAL/MOL
REMARK 927      BINDING AFFINITY PREDICTED BY RF-SCORE:    0.00 PKD
ROOT
HETATM    1  C   UNL     1      -5.759   6.469  63.202  1.00  0.00    -0.033 C  
HETATM    2  O   UNL     1      -5.231   7.767  62.944  1.00  0.00    -0.047 OA 
ENDROOT
BRANCH   2   3
HETATM    3  C   UNL     1      -6.169   8.801  63.212  1.00  0.00    -0.089 C  
BRANCH   3   4
HETATM    4  C   UNL     1      -7.120   8.487  64.380  1.00  0.00    -0.082 C  
HETATM    5  O   UNL     1      -8.173   7.880  64.207  1.00  0.00    -0.125 OA 
HETATM    6  N   UNL     1      -6.666   8.924  65.630  1.00  0.00    -0.071 N  
HETATM    7  H   UNL     1      -5.799   9.454  65.726  1.00  0.00     0.000 HD 
BRANCH   6   8
HETATM    8  C   UNL     1      -7.468   8.598  66.763  1.00  0.00    -0.086 A  
HETATM    9  C   UNL     1      -8.583   9.397  67.121  1.00  0.00    -0.128 A  
HETATM   10  C   UNL     1      -9.554   8.931  68.056  1.00  0.00    -0.167 A  
HETATM   11  I   UNL     1      -8.730  11.310  66.147  1.00  0.00    -0.057 I  
HETATM   12  C   UNL     1      -7.187   7.427  67.504  1.00  0.00    -0.094 A  
HETATM   13  C   UNL     1      -9.345   7.639  68.607  1.00  0.00    -0.147 A  
HETATM   14  I   UNL     1     -11.031   6.466  69.279  1.00  0.00    -0.378 I  
HETATM   15  I   UNL     1      -5.248   6.516  67.217  1.00  0.00    -0.009 I  
HETATM   16  C   UNL     1      -8.103   6.960  68.465  1.00  0.00    -0.120 A  
BRANCH  10  17
HETATM   17  C   UNL     1     -10.801   9.745  68.302  1.00  0.00    -0.210 C  
HETATM   18  O   UNL     1     -11.505   9.990  67.320  1.00  0.00    -0.076 OA 
HETATM   19  C   UNL     1     -10.515   9.963  70.843  1.00  0.00    -0.122 C  
HETATM   20  N   UNL     1     -11.144  10.269  69.564  1.00  0.00    -0.248 N  
BRANCH  20  21
HETATM   21  C   UNL     1     -12.271  11.238  69.650  1.00  0.00    -0.271 C  
BRANCH  21  22
HETATM   22  C   UNL     1     -11.935  12.475  70.523  1.00  0.00    -0.189 C  
HETATM   23  H   UNL     1     -11.694  14.428  70.264  1.00  0.00     0.000 HD 
HETATM   24  O   UNL     1     -11.899  13.671  69.729  1.00  0.00    -0.294 OA 
BRANCH  22  25
HETATM   25  C   UNL     1     -12.945  12.693  71.660  1.00  0.00    -0.299 C  
HETATM   26  H   UNL     1     -14.086  11.587  72.832  1.00  0.00     0.000 HD 
HETATM   27  O   UNL     1     -13.462  11.452  72.130  1.00  0.00    -0.397 OA 
ENDBRANCH  22  25
ENDBRANCH  21  22
ENDBRANCH  20  21
ENDBRANCH  10  17
BRANCH  16  28
HETATM   28  C   UNL     1      -7.746   5.798  69.337  1.00  0.00    -0.092 C  
HETATM   29  H   UNL     1      -8.220   4.436  67.812  1.00  0.00     0.000 HD 
HETATM   30  O   UNL     1      -7.367   5.945  70.487  1.00  0.00    -0.079 OA 
HETATM   31  N   UNL     1      -7.945   4.531  68.789  1.00  0.00    -0.077 N  
BRANCH  31  32
HETATM   32  C   UNL     1      -7.762   3.344  69.614  1.00  0.00    -0.050 C  
BRANCH  32  33
HETATM   33  C   UNL     1      -9.012   2.996  70.428  1.00  0.00    -0.100 C  
HETATM   34  O   UNL     1      -9.567   1.772  69.925  1.00  0.00    -0.086 OA 
HETATM   35  H   UNL     1     -10.343   1.555  70.429  1.00  0.00     0.000 HD 
BRANCH  33  36
HETATM   36  C   UNL     1      -8.682   2.868  71.924  1.00  0.00    -0.073 C  
HETATM   37  O   UNL     1      -7.650   3.771  72.316  1.00  0.00    -0.059 OA 
HETATM   38  H   UNL     1      -7.446   3.692  73.241  1.00  0.00     0.000 HD 
ENDBRANCH  33  36
ENDBRANCH  32  33
ENDBRANCH  31  32
ENDBRANCH  16  28
ENDBRANCH   6   8
ENDBRANCH   3   4
ENDBRANCH   2   3
TORSDOF 11
ENDMDL
MODEL      112
REMARK 921   NORMALIZED FREE ENERGY PREDICTED BY IDOCK:   -2.33 KCAL/MOL
REMARK 922        TOTAL FREE ENERGY PREDICTED BY IDOCK:   -4.95 KCAL/MOL
REMARK 923 INTER-LIGAND FREE ENERGY PREDICTED BY IDOCK:   -3.70 KCAL/MOL
REMARK 924 INTRA-LIGAND FREE ENERGY PREDICTED BY IDOCK:   -1.26 KCAL/MOL
REMARK 927      BINDING AFFINITY PREDICTED BY RF-SCORE:    0.00 PKD
ROOT
HETATM    1  C   UNL     1      -6.934  12.949  68.372  1.00  0.00    -0.096 C  
HETATM    2  O   UNL     1      -6.033  12.358  67.439  1.00  0.00    -0.134 OA 
ENDROOT
BRANCH   2   3
HETATM    3  C   UNL     1      -6.682  11.461  66.547  1.00  0.00    -0.070 C  
BRANCH   3   4
HETATM    4  C   UNL     1      -6.982  10.083  67.162  1.00  0.00    -0.084 C  
HETATM    5  O   UNL     1      -8.132   9.705  67.364  1.00  0.00    -0.109 OA 
HETATM    6  N   UNL     1      -5.846   9.312  67.437  1.00  0.00    -0.045 N  
HETATM    7  H   UNL     1      -4.906   9.676  67.284  1.00  0.00     0.000 HD 
BRANCH   6   8
HETATM    8  C   UNL     1      -6.062   7.994  67.940  1.00  0.00    -0.047 A  
HETATM    9  C   UNL     1      -6.215   7.761  69.330  1.00  0.00    -0.035 A  
HETATM   10  C   UNL     1      -6.715   6.519  69.818  1.00  0.00    -0.050 A  
HETATM   11  I   UNL     1      -5.687   9.394  70.629  1.00  0.00    -0.074 I  
HETATM   12  C   UNL     1      -6.187   6.914  67.037  1.00  0.00    -0.040 A  
HETATM   13  C   UNL     1      -7.045   5.536  68.848  1.00  0.00    -0.061 A  
HETATM   14  I   UNL     1      -8.556   4.053  69.283  1.00  0.00    -0.151 I  
HETATM   15  I   UNL     1      -5.497   7.231  65.013  1.00  0.00    -0.033 I  
HETATM   16  C   UNL     1      -6.639   5.661  67.490  1.00  0.00    -0.053 A  
BRANCH  10  17
HETATM   17  C   UNL     1      -7.003   6.358  71.291  1.00  0.00    -0.075 C  
HETATM   18  O   UNL     1      -6.137   5.799  71.966  1.00  0.00    -0.033 OA 
HETATM   19  C   UNL     1      -9.275   7.551  71.280  1.00  0.00    -0.149 C  
HETATM   20  N   UNL     1      -8.214   6.757  71.888  1.00  0.00    -0.102 N  
BRANCH  20  21
HETATM   21  C   UNL     1      -8.481   6.352  73.296  1.00  0.00    -0.121 C  
BRANCH  21  22
HETATM   22  C   UNL     1      -9.266   5.019  73.400  1.00  0.00    -0.123 C  
HETATM   23  H   UNL     1      -9.008   3.228  74.216  1.00  0.00     0.000 HD 
HETATM   24  O   UNL     1      -8.527   4.044  74.153  1.00  0.00    -0.093 OA 
BRANCH  22  25
HETATM   25  C   UNL     1     -10.640   5.186  74.066  1.00  0.00    -0.288 C  
HETATM   26  H   UNL     1     -12.523   4.752  73.659  1.00  0.00     0.000 HD 
HETATM   27  O   UNL     1     -11.674   4.649  73.247  1.00  0.00    -0.290 OA 
ENDBRANCH  22  25
ENDBRANCH  21  22
ENDBRANCH  20  21
ENDBRANCH  10  17
BRANCH  16  28
HETATM   28  C   UNL     1      -6.646   4.487  66.563  1.00  0.00    -0.049 C  
HETATM   29  H   UNL     1      -8.387   5.177  65.615  1.00  0.00     0.000 HD 
HETATM   30  O   UNL     1      -5.800   3.610  66.623  1.00  0.00    -0.022 OA 
HETATM   31  N   UNL     1      -7.719   4.409  65.676  1.00  0.00    -0.089 N  
BRANCH  31  32
HETATM   32  C   UNL     1      -7.885   3.229  64.836  1.00  0.00    -0.082 C  
BRANCH  32  33
HETATM   33  C   UNL     1      -9.300   2.648  64.915  1.00  0.00    -0.127 C  
HETATM   34  O   UNL     1      -9.900   3.052  66.155  1.00  0.00    -0.391 OA 
HETATM   35  H   UNL     1     -10.778   2.691  66.204  1.00  0.00     0.000 HD 
BRANCH  33  36
HETATM   36  C   UNL     1     -10.156   3.108  63.722  1.00  0.00    -0.177 C  
HETATM   37  O   UNL     1     -10.491   4.491  63.816  1.00  0.00    -0.402 OA 
HETATM   38  H   UNL     1     -11.020   4.775  63.080  1.00  0.00     0.000 HD 
ENDBRANCH  33  36
ENDBRANCH  32  33
ENDBRANCH  31  32
ENDBRANCH  16  28
ENDBRANCH   6   8
ENDBRANCH   3   4
ENDBRANCH   2   3
TORSDOF 11
ENDMDL
MODEL      113
REMARK 921   NORMALIZED FREE ENERGY PREDICTED BY IDOCK:   -2.29 KCAL/MOL
REMARK 922        TOTAL FREE ENERGY PREDICTED BY IDOCK:   -4.88 KCAL/MOL
REMARK 923 INTER-LIGAND FREE ENERGY PREDICTED BY IDOCK:   -5.58 KCAL/MOL
REMARK 924 INTRA-LIGAND FREE ENERGY PREDICTED BY IDOCK:    0.70 KCAL/MOL
REMARK 927      BINDING AFFINITY PREDICTED BY RF-SCORE:    0.00 PKD
ROOT
HETATM    1  C   UNL     1      -6.630  18.989  67.107  1.00  0.00    -0.196 C  
HETATM    2  O   UNL     1      -5.393  18.466  67.584  1.00  0.00    -0.152 OA 
ENDROOT
BRANCH   2   3
HETATM    3  C   UNL     1      -5.170  17.126  67.165  1.00  0.00    -0.150 C  
BRANCH   3   4
HETATM    4  C   UNL     1      -6.019  16.090  67.922  1.00  0.00    -0.134 C  
HETATM    5  O   UNL     1      -5.953  15.971  69.143  1.00  0.00    -0.118 OA 
HETATM    6  N   UNL     1      -6.873  15.335  67.110  1.00  0.00    -0.063 N  
HETATM    7  H   UNL     1      -6.874  15.442  66.095  1.00  0.00     0.000 HD 
BRANCH   6   8
HETATM    8  C   UNL     1      -7.740  14.409  67.762  1.00  0.00    -0.161 A  
HETATM    9  C   UNL     1      -9.033  14.800  68.192  1.00  0.00    -0.179 A  
HETATM   10  C   UNL     1     -10.008  13.832  68.572  1.00  0.00    -0.217 A  
HETATM   11  I   UNL     1      -9.431  16.915  68.195  1.00  0.00    -0.276 I  
HETATM   12  C   UNL     1      -7.331  13.066  67.926  1.00  0.00    -0.128 A  
HETATM   13  C   UNL     1      -9.617  12.468  68.501  1.00  0.00    -0.110 A  
HETATM   14  I   UNL     1     -11.105  10.934  68.175  1.00  0.00    -0.379 I  
HETATM   15  I   UNL     1      -5.226  12.636  67.687  1.00  0.00    -0.004 I  
HETATM   16  C   UNL     1      -8.256  12.089  68.340  1.00  0.00    -0.151 A  
BRANCH  10  17
HETATM   17  C   UNL     1     -11.416  14.275  68.883  1.00  0.00    -0.286 C  
HETATM   18  O   UNL     1     -12.250  14.140  67.986  1.00  0.00    -0.310 OA 
HETATM   19  C   UNL     1     -10.974  14.982  71.310  1.00  0.00    -0.017 C  
HETATM   20  N   UNL     1     -11.784  14.876  70.103  1.00  0.00    -0.276 N  
BRANCH  20  21
HETATM   21  C   UNL     1     -13.142  15.475  70.220  1.00  0.00     0.011 C  
BRANCH  21  22
HETATM   22  C   UNL     1     -14.030  14.753  71.266  1.00  0.00    -0.371 C  
HETATM   23  H   UNL     1     -13.916  13.144  72.424  1.00  0.00     0.000 HD 
HETATM   24  O   UNL     1     -13.371  13.587  71.784  1.00  0.00    -0.380 OA 
BRANCH  22  25
HETATM   25  C   UNL     1     -14.402  15.651  72.455  1.00  0.00    -0.332 C  
HETATM   26  H   UNL     1     -13.586  16.237  74.155  1.00  0.00     0.000 HD 
HETATM   27  O   UNL     1     -13.356  15.681  73.421  1.00  0.00    -0.518 OA 
ENDBRANCH  22  25
ENDBRANCH  21  22
ENDBRANCH  20  21
ENDBRANCH  10  17
BRANCH  16  28
HETATM   28  C   UNL     1      -7.793  10.698  68.639  1.00  0.00    -0.121 C  
HETATM   29  H   UNL     1      -8.526  10.001  66.800  1.00  0.00     0.000 HD 
HETATM   30  O   UNL     1      -7.238  10.412  69.686  1.00  0.00    -0.115 OA 
HETATM   31  N   UNL     1      -8.102   9.728  67.686  1.00  0.00    -0.113 N  
BRANCH  31  32
HETATM   32  C   UNL     1      -7.818   8.324  67.957  1.00  0.00    -0.118 C  
BRANCH  32  33
HETATM   33  C   UNL     1      -7.455   7.544  66.690  1.00  0.00    -0.092 C  
HETATM   34  O   UNL     1      -6.652   8.380  65.844  1.00  0.00    -0.052 OA 
HETATM   35  H   UNL     1      -6.426   7.896  65.057  1.00  0.00     0.000 HD 
BRANCH  33  36
HETATM   36  C   UNL     1      -6.709   6.244  67.034  1.00  0.00    -0.061 C  
HETATM   37  O   UNL     1      -5.299   6.447  67.101  1.00  0.00    -0.008 OA 
HETATM   38  H   UNL     1      -4.838   5.643  67.314  1.00  0.00     0.000 HD 
ENDBRANCH  33  36
ENDBRANCH  32  33
ENDBRANCH  31  32
ENDBRANCH  16  28
ENDBRANCH   6   8
ENDBRANCH   3   4
ENDBRANCH   2   3
TORSDOF 11
ENDMDL
MODEL      114
REMARK 921   NORMALIZED FREE ENERGY PREDICTED BY IDOCK:   -2.28 KCAL/MOL
REMARK 922        TOTAL FREE ENERGY PREDICTED BY IDOCK:   -4.88 KCAL/MOL
REMARK 923 INTER-LIGAND FREE ENERGY PREDICTED BY IDOCK:   -4.57 KCAL/MOL
REMARK 924 INTRA-LIGAND FREE ENERGY PREDICTED BY IDOCK:   -0.31 KCAL/MOL
REMARK 927      BINDING AFFINITY PREDICTED BY RF-SCORE:    0.00 PKD
ROOT
HETATM    1  C   UNL     1      -5.345   7.400  62.756  1.00  0.00    -0.041 C  
HETATM    2  O   UNL     1      -5.152   8.488  63.655  1.00  0.00    -0.054 OA 
ENDROOT
BRANCH   2   3
HETATM    3  C   UNL     1      -6.290   9.335  63.740  1.00  0.00    -0.091 C  
BRANCH   3   4
HETATM    4  C   UNL     1      -7.276   8.938  64.852  1.00  0.00    -0.091 C  
HETATM    5  O   UNL     1      -8.287   8.283  64.613  1.00  0.00    -0.159 OA 
HETATM    6  N   UNL     1      -6.904   9.360  66.133  1.00  0.00    -0.084 N  
HETATM    7  H   UNL     1      -6.072   9.931  66.285  1.00  0.00     0.000 HD 
BRANCH   6   8
HETATM    8  C   UNL     1      -7.740   8.959  67.218  1.00  0.00    -0.092 A  
HETATM    9  C   UNL     1      -8.855   9.742  67.607  1.00  0.00    -0.125 A  
HETATM   10  C   UNL     1      -9.855   9.220  68.478  1.00  0.00    -0.173 A  
HETATM   11  I   UNL     1      -8.957  11.726  66.776  1.00  0.00    -0.186 I  
HETATM   12  C   UNL     1      -7.490   7.733  67.875  1.00  0.00    -0.104 A  
HETATM   13  C   UNL     1      -9.674   7.887  68.935  1.00  0.00    -0.158 A  
HETATM   14  I   UNL     1     -11.389   6.687  69.473  1.00  0.00    -0.112 I  
HETATM   15  I   UNL     1      -5.554   6.822  67.570  1.00  0.00    -0.018 I  
HETATM   16  C   UNL     1      -8.436   7.205  68.774  1.00  0.00    -0.126 A  
BRANCH  10  17
HETATM   17  C   UNL     1     -11.100  10.027  68.753  1.00  0.00    -0.173 C  
HETATM   18  O   UNL     1     -11.762  10.376  67.774  1.00  0.00    -0.353 OA 
HETATM   19  C   UNL     1     -10.911  10.000  71.312  1.00  0.00    -0.009 C  
HETATM   20  N   UNL     1     -11.485  10.436  70.045  1.00  0.00    -0.285 N  
BRANCH  20  21
HETATM   21  C   UNL     1     -12.602  11.411  70.180  1.00  0.00    -0.101 C  
BRANCH  21  22
HETATM   22  C   UNL     1     -12.429  12.360  71.395  1.00  0.00    -0.100 C  
HETATM   23  H   UNL     1     -12.076  14.288  71.710  1.00  0.00     0.000 HD 
HETATM   24  O   UNL     1     -12.183  13.707  70.965  1.00  0.00    -0.351 OA 
BRANCH  22  25
HETATM   25  C   UNL     1     -13.656  12.375  72.318  1.00  0.00    -0.269 C  
HETATM   26  H   UNL     1     -14.782  13.718  73.229  1.00  0.00     0.000 HD 
HETATM   27  O   UNL     1     -14.023  13.709  72.659  1.00  0.00    -0.733 OA 
ENDBRANCH  22  25
ENDBRANCH  21  22
ENDBRANCH  20  21
ENDBRANCH  10  17
BRANCH  16  28
HETATM   28  C   UNL     1      -8.114   5.977  69.565  1.00  0.00    -0.107 C  
HETATM   29  H   UNL     1      -8.055   7.077  71.352  1.00  0.00     0.000 HD 
HETATM   30  O   UNL     1      -7.982   4.885  69.038  1.00  0.00    -0.075 OA 
HETATM   31  N   UNL     1      -7.894   6.163  70.929  1.00  0.00    -0.105 N  
BRANCH  31  32
HETATM   32  C   UNL     1      -7.435   5.050  71.751  1.00  0.00    -0.095 C  
BRANCH  32  33
HETATM   33  C   UNL     1      -6.697   5.516  73.010  1.00  0.00    -0.073 C  
HETATM   34  O   UNL     1      -5.298   5.237  72.858  1.00  0.00    -0.016 OA 
HETATM   35  H   UNL     1      -4.839   5.526  73.639  1.00  0.00     0.000 HD 
BRANCH  33  36
HETATM   36  C   UNL     1      -6.927   7.016  73.264  1.00  0.00    -0.073 C  
HETATM   37  O   UNL     1      -5.997   7.821  72.542  1.00  0.00    -0.039 OA 
HETATM   38  H   UNL     1      -6.139   8.748  72.699  1.00  0.00     0.000 HD 
ENDBRANCH  33  36
ENDBRANCH  32  33
ENDBRANCH  31  32
ENDBRANCH  16  28
ENDBRANCH   6   8
ENDBRANCH   3   4
ENDBRANCH   2   3
TORSDOF 11
ENDMDL
MODEL      115
REMARK 921   NORMALIZED FREE ENERGY PREDICTED BY IDOCK:   -2.27 KCAL/MOL
REMARK 922        TOTAL FREE ENERGY PREDICTED BY IDOCK:   -4.85 KCAL/MOL
REMARK 923 INTER-LIGAND FREE ENERGY PREDICTED BY IDOCK:   -4.40 KCAL/MOL
REMARK 924 INTRA-LIGAND FREE ENERGY PREDICTED BY IDOCK:   -0.45 KCAL/MOL
REMARK 927      BINDING AFFINITY PREDICTED BY RF-SCORE:    0.00 PKD
ROOT
HETATM    1  C   UNL     1      -7.224   5.112  73.911  1.00  0.00    -0.083 C  
HETATM    2  O   UNL     1      -6.938   6.508  73.875  1.00  0.00    -0.081 OA 
ENDROOT
BRANCH   2   3
HETATM    3  C   UNL     1      -5.791   6.809  73.091  1.00  0.00    -0.046 C  
BRANCH   3   4
HETATM    4  C   UNL     1      -6.116   7.167  71.631  1.00  0.00    -0.037 C  
HETATM    5  O   UNL     1      -5.356   6.874  70.711  1.00  0.00    -0.022 OA 
HETATM    6  N   UNL     1      -7.343   7.816  71.452  1.00  0.00    -0.065 N  
HETATM    7  H   UNL     1      -7.931   8.070  72.246  1.00  0.00     0.000 HD 
BRANCH   6   8
HETATM    8  C   UNL     1      -7.736   8.108  70.112  1.00  0.00    -0.085 A  
HETATM    9  C   UNL     1      -8.464   7.165  69.345  1.00  0.00    -0.134 A  
HETATM   10  C   UNL     1      -9.109   7.543  68.131  1.00  0.00    -0.128 A  
HETATM   11  I   UNL     1      -8.562   5.167  70.142  1.00  0.00    -0.141 I  
HETATM   12  C   UNL     1      -7.450   9.378  69.561  1.00  0.00    -0.083 A  
HETATM   13  C   UNL     1      -8.981   8.900  67.733  1.00  0.00    -0.135 A  
HETATM   14  I   UNL     1     -10.515   9.818  66.518  1.00  0.00     0.011 I  
HETATM   15  I   UNL     1      -5.967  10.584  70.570  1.00  0.00    -0.022 I  
HETATM   16  C   UNL     1      -8.036   9.770  68.344  1.00  0.00    -0.104 A  
BRANCH  10  17
HETATM   17  C   UNL     1      -9.996   6.551  67.418  1.00  0.00    -0.143 C  
HETATM   18  O   UNL     1     -11.074   6.287  67.953  1.00  0.00    -0.332 OA 
HETATM   19  C   UNL     1      -8.459   6.180  65.397  1.00  0.00    -0.138 C  
HETATM   20  N   UNL     1      -9.617   5.890  66.233  1.00  0.00    -0.147 N  
BRANCH  20  21
HETATM   21  C   UNL     1     -10.468   4.773  65.738  1.00  0.00    -0.238 C  
BRANCH  21  22
HETATM   22  C   UNL     1      -9.716   3.417  65.696  1.00  0.00    -0.014 C  
HETATM   23  H   UNL     1      -8.319   2.550  64.584  1.00  0.00     0.000 HD 
HETATM   24  O   UNL     1      -8.779   3.381  64.609  1.00  0.00    -0.100 OA 
BRANCH  22  25
HETATM   25  C   UNL     1      -8.946   3.123  66.993  1.00  0.00    -0.162 C  
HETATM   26  H   UNL     1      -7.079   2.774  67.536  1.00  0.00     0.000 HD 
HETATM   27  O   UNL     1      -7.555   2.956  66.735  1.00  0.00    -0.073 OA 
ENDBRANCH  22  25
ENDBRANCH  21  22
ENDBRANCH  20  21
ENDBRANCH  10  17
BRANCH  16  28
HETATM   28  C   UNL     1      -7.632  11.058  67.698  1.00  0.00    -0.104 C  
HETATM   29  H   UNL     1      -8.969  12.142  68.898  1.00  0.00     0.000 HD 
HETATM   30  O   UNL     1      -6.802  11.101  66.805  1.00  0.00    -0.116 OA 
HETATM   31  N   UNL     1      -8.313  12.199  68.119  1.00  0.00    -0.163 N  
BRANCH  31  32
HETATM   32  C   UNL     1      -8.088  13.472  67.447  1.00  0.00    -0.176 C  
BRANCH  32  33
HETATM   33  C   UNL     1      -9.370  14.048  66.837  1.00  0.00    -0.257 C  
HETATM   34  O   UNL     1      -9.576  13.457  65.545  1.00  0.00    -0.496 OA 
HETATM   35  H   UNL     1     -10.371  13.815  65.166  1.00  0.00     0.000 HD 
BRANCH  33  36
HETATM   36  C   UNL     1     -10.582  13.793  67.749  1.00  0.00    -0.246 C  
HETATM   37  O   UNL     1     -11.750  13.473  66.997  1.00  0.00    -0.341 OA 
HETATM   38  H   UNL     1     -12.499  13.316  67.560  1.00  0.00     0.000 HD 
ENDBRANCH  33  36
ENDBRANCH  32  33
ENDBRANCH  31  32
ENDBRANCH  16  28
ENDBRANCH   6   8
ENDBRANCH   3   4
ENDBRANCH   2   3
TORSDOF 11
ENDMDL
MODEL      116
REMARK 921   NORMALIZED FREE ENERGY PREDICTED BY IDOCK:   -2.20 KCAL/MOL
REMARK 922        TOTAL FREE ENERGY PREDICTED BY IDOCK:   -4.75 KCAL/MOL
REMARK 923 INTER-LIGAND FREE ENERGY PREDICTED BY IDOCK:   -6.07 KCAL/MOL
REMARK 924 INTRA-LIGAND FREE ENERGY PREDICTED BY IDOCK:    1.33 KCAL/MOL
REMARK 927      BINDING AFFINITY PREDICTED BY RF-SCORE:    0.00 PKD
ROOT
HETATM    1  C   UNL     1     -13.478   8.779  72.247  1.00  0.00    -0.420 C  
HETATM    2  O   UNL     1     -13.457   7.535  71.552  1.00  0.00    -0.366 OA 
ENDROOT
BRANCH   2   3
HETATM    3  C   UNL     1     -12.219   6.851  71.696  1.00  0.00    -0.361 C  
BRANCH   3   4
HETATM    4  C   UNL     1     -11.086   7.433  70.833  1.00  0.00    -0.263 C  
HETATM    5  O   UNL     1     -10.025   7.804  71.329  1.00  0.00    -0.175 OA 
HETATM    6  N   UNL     1     -11.363   7.473  69.462  1.00  0.00    -0.455 N  
HETATM    7  H   UNL     1     -12.270   7.185  69.094  1.00  0.00     0.000 HD 
BRANCH   6   8
HETATM    8  C   UNL     1     -10.322   7.933  68.601  1.00  0.00    -0.201 A  
HETATM    9  C   UNL     1      -9.368   7.033  68.066  1.00  0.00    -0.127 A  
HETATM   10  C   UNL     1      -8.514   7.416  66.991  1.00  0.00    -0.118 A  
HETATM   11  I   UNL     1      -9.320   5.069  68.946  1.00  0.00    -0.225 I  
HETATM   12  C   UNL     1     -10.278   9.295  68.226  1.00  0.00    -0.201 A  
HETATM   13  C   UNL     1      -8.667   8.736  66.491  1.00  0.00    -0.120 A  
HETATM   14  I   UNL     1      -8.162   9.180  64.437  1.00  0.00    -0.179 I  
HETATM   15  I   UNL     1     -11.440  10.685  69.405  1.00  0.00    -0.352 I  
HETATM   16  C   UNL     1      -9.418   9.718  67.196  1.00  0.00    -0.189 A  
BRANCH  10  17
HETATM   17  C   UNL     1      -7.614   6.388  66.351  1.00  0.00    -0.090 C  
HETATM   18  O   UNL     1      -6.407   6.490  66.578  1.00  0.00    -0.039 OA 
HETATM   19  C   UNL     1      -9.474   5.032  65.216  1.00  0.00    -0.048 C  
HETATM   20  N   UNL     1      -8.084   5.385  65.480  1.00  0.00    -0.112 N  
BRANCH  20  21
HETATM   21  C   UNL     1      -7.090   4.567  64.733  1.00  0.00    -0.062 C  
BRANCH  21  22
HETATM   22  C   UNL     1      -6.570   5.271  63.453  1.00  0.00    -0.026 C  
HETATM   23  H   UNL     1      -5.245   6.674  62.989  1.00  0.00     0.000 HD 
HETATM   24  O   UNL     1      -5.563   6.242  63.773  1.00  0.00    -0.021 OA 
BRANCH  22  25
HETATM   25  C   UNL     1      -5.974   4.290  62.433  1.00  0.00    -0.017 C  
HETATM   26  H   UNL     1      -5.319   2.427  62.409  1.00  0.00     0.000 HD 
HETATM   27  O   UNL     1      -5.687   3.033  63.040  1.00  0.00    -0.009 OA 
ENDBRANCH  22  25
ENDBRANCH  21  22
ENDBRANCH  20  21
ENDBRANCH  10  17
BRANCH  16  28
HETATM   28  C   UNL     1      -9.277  11.176  66.889  1.00  0.00    -0.169 C  
HETATM   29  H   UNL     1     -11.242  11.555  67.521  1.00  0.00     0.000 HD 
HETATM   30  O   UNL     1      -8.250  11.643  66.425  1.00  0.00    -0.146 OA 
HETATM   31  N   UNL     1     -10.412  11.960  67.090  1.00  0.00    -0.217 N  
BRANCH  31  32
HETATM   32  C   UNL     1     -10.411  13.360  66.683  1.00  0.00    -0.280 C  
BRANCH  32  33
HETATM   33  C   UNL     1      -9.345  14.182  67.414  1.00  0.00    -0.215 C  
HETATM   34  O   UNL     1      -8.353  14.604  66.466  1.00  0.00    -0.407 OA 
HETATM   35  H   UNL     1      -7.692  15.114  66.919  1.00  0.00     0.000 HD 
BRANCH  33  36
HETATM   36  C   UNL     1      -9.969  15.396  68.123  1.00  0.00    -0.221 C  
HETATM   37  O   UNL     1     -10.803  15.000  69.210  1.00  0.00    -0.241 OA 
HETATM   38  H   UNL     1     -11.188  15.750  69.648  1.00  0.00     0.000 HD 
ENDBRANCH  33  36
ENDBRANCH  32  33
ENDBRANCH  31  32
ENDBRANCH  16  28
ENDBRANCH   6   8
ENDBRANCH   3   4
ENDBRANCH   2   3
TORSDOF 11
ENDMDL
MODEL      117
REMARK 921   NORMALIZED FREE ENERGY PREDICTED BY IDOCK:   -2.19 KCAL/MOL
REMARK 922        TOTAL FREE ENERGY PREDICTED BY IDOCK:   -4.72 KCAL/MOL
REMARK 923 INTER-LIGAND FREE ENERGY PREDICTED BY IDOCK:   -4.52 KCAL/MOL
REMARK 924 INTRA-LIGAND FREE ENERGY PREDICTED BY IDOCK:   -0.21 KCAL/MOL
REMARK 927      BINDING AFFINITY PREDICTED BY RF-SCORE:    0.00 PKD
ROOT
HETATM    1  C   UNL     1      -8.624   4.332  63.016  1.00  0.00    -0.103 C  
HETATM    2  O   UNL     1      -8.174   3.605  64.156  1.00  0.00    -0.089 OA 
ENDROOT
BRANCH   2   3
HETATM    3  C   UNL     1      -6.991   4.155  64.721  1.00  0.00    -0.050 C  
BRANCH   3   4
HETATM    4  C   UNL     1      -7.222   5.469  65.486  1.00  0.00    -0.068 C  
HETATM    5  O   UNL     1      -6.290   6.105  65.972  1.00  0.00    -0.036 OA 
HETATM    6  N   UNL     1      -8.560   5.876  65.548  1.00  0.00    -0.154 N  
HETATM    7  H   UNL     1      -9.309   5.302  65.159  1.00  0.00     0.000 HD 
BRANCH   6   8
HETATM    8  C   UNL     1      -8.831   7.126  66.181  1.00  0.00    -0.150 A  
HETATM    9  C   UNL     1      -9.182   7.187  67.552  1.00  0.00    -0.125 A  
HETATM   10  C   UNL     1      -9.168   8.424  68.262  1.00  0.00    -0.136 A  
HETATM   11  I   UNL     1      -9.689   5.315  68.486  1.00  0.00    -0.215 I  
HETATM   12  C   UNL     1      -8.689   8.325  65.446  1.00  0.00    -0.113 A  
HETATM   13  C   UNL     1      -8.793   9.579  67.527  1.00  0.00    -0.125 A  
HETATM   14  I   UNL     1      -7.890  11.260  68.544  1.00  0.00    -0.124 I  
HETATM   15  I   UNL     1      -8.613   8.164  63.292  1.00  0.00     0.726 I  
HETATM   16  C   UNL     1      -8.711   9.567  66.107  1.00  0.00    -0.162 A  
BRANCH  10  17
HETATM   17  C   UNL     1      -9.404   8.430  69.753  1.00  0.00    -0.158 C  
HETATM   18  O   UNL     1      -8.643   7.743  70.436  1.00  0.00    -0.134 OA 
HETATM   19  C   UNL     1     -11.364  10.086  69.735  1.00  0.00    -0.228 C  
HETATM   20  N   UNL     1     -10.468   9.123  70.362  1.00  0.00    -0.207 N  
BRANCH  20  21
HETATM   21  C   UNL     1     -10.739   8.883  71.807  1.00  0.00    -0.362 C  
BRANCH  21  22
HETATM   22  C   UNL     1     -11.908   7.892  72.043  1.00  0.00    -0.318 C  
HETATM   23  H   UNL     1     -12.156   6.069  72.789  1.00  0.00     0.000 HD 
HETATM   24  O   UNL     1     -11.440   6.676  72.645  1.00  0.00    -0.251 OA 
BRANCH  22  25
HETATM   25  C   UNL     1     -13.008   8.472  72.945  1.00  0.00     0.159 C  
HETATM   26  H   UNL     1     -14.337   9.931  72.874  1.00  0.00     0.000 HD 
HETATM   27  O   UNL     1     -13.657   9.573  72.316  1.00  0.00    -0.444 OA 
ENDBRANCH  22  25
ENDBRANCH  21  22
ENDBRANCH  20  21
ENDBRANCH  10  17
BRANCH  16  28
HETATM   28  C   UNL     1      -8.691  10.837  65.316  1.00  0.00    -0.173 C  
HETATM   29  H   UNL     1     -10.713  11.201  65.747  1.00  0.00     0.000 HD 
HETATM   30  O   UNL     1      -7.690  11.221  64.734  1.00  0.00     0.555 OA 
HETATM   31  N   UNL     1      -9.903  11.519  65.214  1.00  0.00    -0.243 N  
BRANCH  31  32
HETATM   32  C   UNL     1     -10.012  12.685  64.347  1.00  0.00    -0.170 C  
BRANCH  32  33
HETATM   33  C   UNL     1     -11.442  13.230  64.275  1.00  0.00    -0.396 C  
HETATM   34  O   UNL     1     -11.579  14.019  63.084  1.00  0.00    -0.088 OA 
HETATM   35  H   UNL     1     -12.466  14.358  63.039  1.00  0.00     0.000 HD 
BRANCH  33  36
HETATM   36  C   UNL     1     -12.473  12.089  64.292  1.00  0.00    -0.286 C  
HETATM   37  O   UNL     1     -12.810  11.663  62.973  1.00  0.00    -0.849 OA 
HETATM   38  H   UNL     1     -13.447  10.958  62.984  1.00  0.00     0.000 HD 
ENDBRANCH  33  36
ENDBRANCH  32  33
ENDBRANCH  31  32
ENDBRANCH  16  28
ENDBRANCH   6   8
ENDBRANCH   3   4
ENDBRANCH   2   3
TORSDOF 11
ENDMDL
MODEL      118
REMARK 921   NORMALIZED FREE ENERGY PREDICTED BY IDOCK:   -2.11 KCAL/MOL
REMARK 922        TOTAL FREE ENERGY PREDICTED BY IDOCK:   -4.59 KCAL/MOL
REMARK 923 INTER-LIGAND FREE ENERGY PREDICTED BY IDOCK:   -4.95 KCAL/MOL
REMARK 924 INTRA-LIGAND FREE ENERGY PREDICTED BY IDOCK:    0.35 KCAL/MOL
REMARK 927      BINDING AFFINITY PREDICTED BY RF-SCORE:    0.00 PKD
ROOT
HETATM    1  C   UNL     1     -10.779  15.760  65.364  1.00  0.00    -0.404 C  
HETATM    2  O   UNL     1     -11.776  14.798  65.031  1.00  0.00    -0.366 OA 
ENDROOT
BRANCH   2   3
HETATM    3  C   UNL     1     -11.307  13.822  64.111  1.00  0.00    -0.256 C  
BRANCH   3   4
HETATM    4  C   UNL     1     -10.951  12.475  64.763  1.00  0.00    -0.303 C  
HETATM    5  O   UNL     1     -11.795  11.599  64.935  1.00  0.00    -0.129 OA 
HETATM    6  N   UNL     1      -9.602  12.336  65.108  1.00  0.00    -0.454 N  
HETATM    7  H   UNL     1      -8.938  13.101  64.978  1.00  0.00     0.000 HD 
BRANCH   6   8
HETATM    8  C   UNL     1      -9.194  11.081  65.650  1.00  0.00    -0.210 A  
HETATM    9  C   UNL     1      -8.656  10.068  64.816  1.00  0.00    -0.177 A  
HETATM   10  C   UNL     1      -7.983   8.940  65.369  1.00  0.00    -0.110 A  
HETATM   11  I   UNL     1      -8.887  10.363  62.697  1.00  0.00    -0.393 I  
HETATM   12  C   UNL     1      -9.269  10.865  67.044  1.00  0.00    -0.152 A  
HETATM   13  C   UNL     1      -7.884   8.883  66.784  1.00  0.00    -0.097 A  
HETATM   14  I   UNL     1      -6.242   7.825  67.711  1.00  0.00    -0.054 I  
HETATM   15  I   UNL     1     -10.500  12.222  68.192  1.00  0.00    -0.267 I  
HETATM   16  C   UNL     1      -8.651   9.740  67.621  1.00  0.00    -0.125 A  
BRANCH  10  17
HETATM   17  C   UNL     1      -7.296   7.959  64.450  1.00  0.00    -0.087 C  
HETATM   18  O   UNL     1      -6.331   8.380  63.811  1.00  0.00    -0.071 OA 
HETATM   19  C   UNL     1      -8.768   5.937  65.025  1.00  0.00    -0.003 C  
HETATM   20  N   UNL     1      -7.746   6.638  64.258  1.00  0.00    -0.105 N  
BRANCH  20  21
HETATM   21  C   UNL     1      -7.133   5.829  63.169  1.00  0.00    -0.046 C  
BRANCH  21  22
HETATM   22  C   UNL     1      -6.682   4.423  63.644  1.00  0.00    -0.043 C  
HETATM   23  H   UNL     1      -6.503   2.603  62.872  1.00  0.00     0.000 HD 
HETATM   24  O   UNL     1      -6.780   3.464  62.580  1.00  0.00    -0.025 OA 
BRANCH  22  25
HETATM   25  C   UNL     1      -5.237   4.406  64.164  1.00  0.00    -0.012 C  
HETATM   26  H   UNL     1      -4.301   4.648  65.886  1.00  0.00     0.000 HD 
HETATM   27  O   UNL     1      -5.194   4.659  65.565  1.00  0.00    -0.008 OA 
ENDBRANCH  22  25
ENDBRANCH  21  22
ENDBRANCH  20  21
ENDBRANCH  10  17
BRANCH  16  28
HETATM   28  C   UNL     1      -8.842   9.443  69.075  1.00  0.00    -0.141 C  
HETATM   29  H   UNL     1      -8.987   7.385  68.693  1.00  0.00     0.000 HD 
HETATM   30  O   UNL     1      -8.872  10.326  69.917  1.00  0.00    -0.126 OA 
HETATM   31  N   UNL     1      -9.062   8.108  69.408  1.00  0.00    -0.148 N  
BRANCH  31  32
HETATM   32  C   UNL     1      -9.400   7.745  70.779  1.00  0.00    -0.161 C  
BRANCH  32  33
HETATM   33  C   UNL     1      -8.554   6.581  71.303  1.00  0.00    -0.127 C  
HETATM   34  O   UNL     1      -8.301   6.782  72.701  1.00  0.00    -0.111 OA 
HETATM   35  H   UNL     1      -7.776   6.060  73.026  1.00  0.00     0.000 HD 
BRANCH  33  36
HETATM   36  C   UNL     1      -9.257   5.233  71.067  1.00  0.00    -0.147 C  
HETATM   37  O   UNL     1      -8.517   4.148  71.624  1.00  0.00    -0.092 OA 
HETATM   38  H   UNL     1      -8.952   3.316  71.479  1.00  0.00     0.000 HD 
ENDBRANCH  33  36
ENDBRANCH  32  33
ENDBRANCH  31  32
ENDBRANCH  16  28
ENDBRANCH   6   8
ENDBRANCH   3   4
ENDBRANCH   2   3
TORSDOF 11
ENDMDL
MODEL      119
REMARK 921   NORMALIZED FREE ENERGY PREDICTED BY IDOCK:   -2.01 KCAL/MOL
REMARK 922        TOTAL FREE ENERGY PREDICTED BY IDOCK:   -4.43 KCAL/MOL
REMARK 923 INTER-LIGAND FREE ENERGY PREDICTED BY IDOCK:   -4.37 KCAL/MOL
REMARK 924 INTRA-LIGAND FREE ENERGY PREDICTED BY IDOCK:   -0.06 KCAL/MOL
REMARK 927      BINDING AFFINITY PREDICTED BY RF-SCORE:    0.00 PKD
ROOT
HETATM    1  C   UNL     1     -12.785   7.055  71.301  1.00  0.00    -0.351 C  
HETATM    2  O   UNL     1     -11.620   7.206  72.107  1.00  0.00    -0.266 OA 
ENDROOT
BRANCH   2   3
HETATM    3  C   UNL     1     -10.418   7.048  71.363  1.00  0.00    -0.208 C  
BRANCH   3   4
HETATM    4  C   UNL     1     -10.064   8.265  70.493  1.00  0.00    -0.195 C  
HETATM    5  O   UNL     1     -10.669   9.329  70.596  1.00  0.00    -0.227 OA 
HETATM    6  N   UNL     1      -8.995   8.057  69.613  1.00  0.00    -0.144 N  
HETATM    7  H   UNL     1      -8.540   7.147  69.534  1.00  0.00     0.000 HD 
BRANCH   6   8
HETATM    8  C   UNL     1      -8.571   9.172  68.830  1.00  0.00    -0.131 A  
HETATM    9  C   UNL     1      -9.212   9.490  67.607  1.00  0.00    -0.124 A  
HETATM   10  C   UNL     1      -9.001  10.748  66.970  1.00  0.00    -0.148 A  
HETATM   11  I   UNL     1     -10.532   7.988  66.810  1.00  0.00     0.340 I  
HETATM   12  C   UNL     1      -7.538  10.009  69.311  1.00  0.00    -0.109 A  
HETATM   13  C   UNL     1      -8.121  11.655  67.617  1.00  0.00    -0.140 A  
HETATM   14  I   UNL     1      -8.359  13.783  67.329  1.00  0.00    -0.048 I  
HETATM   15  I   UNL     1      -6.303   9.240  70.909  1.00  0.00    -0.062 I  
HETATM   16  C   UNL     1      -7.274  11.240  68.682  1.00  0.00    -0.098 A  
BRANCH  10  17
HETATM   17  C   UNL     1      -9.811  11.109  65.748  1.00  0.00    -0.235 C  
HETATM   18  O   UNL     1      -9.302  10.862  64.654  1.00  0.00    -0.208 OA 
HETATM   19  C   UNL     1     -11.867  11.989  67.007  1.00  0.00    -0.176 C  
HETATM   20  N   UNL     1     -11.061  11.755  65.815  1.00  0.00    -0.313 N  
BRANCH  20  21
HETATM   21  C   UNL     1     -11.668  12.263  64.554  1.00  0.00    -0.353 C  
BRANCH  21  22
HETATM   22  C   UNL     1     -12.022  13.771  64.621  1.00  0.00    -0.416 C  
HETATM   23  H   UNL     1     -13.280  14.937  65.621  1.00  0.00     0.000 HD 
HETATM   24  O   UNL     1     -13.063  14.013  65.580  1.00  0.00    -0.713 OA 
BRANCH  22  25
HETATM   25  C   UNL     1     -10.819  14.649  64.999  1.00  0.00    -0.417 C  
HETATM   26  H   UNL     1     -10.498  16.384  65.887  1.00  0.00     0.000 HD 
HETATM   27  O   UNL     1     -11.242  15.841  65.653  1.00  0.00    -0.202 OA 
ENDBRANCH  22  25
ENDBRANCH  21  22
ENDBRANCH  20  21
ENDBRANCH  10  17
BRANCH  16  28
HETATM   28  C   UNL     1      -6.098  12.062  69.109  1.00  0.00    -0.080 C  
HETATM   29  H   UNL     1      -6.987  12.466  70.967  1.00  0.00     0.000 HD 
HETATM   30  O   UNL     1      -5.139  12.246  68.379  1.00  0.00    -0.051 OA 
HETATM   31  N   UNL     1      -6.195  12.672  70.358  1.00  0.00    -0.013 N  
BRANCH  31  32
HETATM   32  C   UNL     1      -5.164  13.605  70.795  1.00  0.00    -0.124 C  
BRANCH  32  33
HETATM   33  C   UNL     1      -5.745  14.830  71.509  1.00  0.00     0.065 C  
HETATM   34  O   UNL     1      -6.853  15.330  70.746  1.00  0.00     0.317 OA 
HETATM   35  H   UNL     1      -7.213  16.090  71.188  1.00  0.00     0.000 HD 
BRANCH  33  36
HETATM   36  C   UNL     1      -6.185  14.480  72.940  1.00  0.00     0.865 C  
HETATM   37  O   UNL     1      -5.326  13.509  73.534  1.00  0.00    -0.404 OA 
HETATM   38  H   UNL     1      -5.599  13.294  74.419  1.00  0.00     0.000 HD 
ENDBRANCH  33  36
ENDBRANCH  32  33
ENDBRANCH  31  32
ENDBRANCH  16  28
ENDBRANCH   6   8
ENDBRANCH   3   4
ENDBRANCH   2   3
TORSDOF 11
ENDMDL
MODEL      120
REMARK 921   NORMALIZED FREE ENERGY PREDICTED BY IDOCK:   -1.84 KCAL/MOL
REMARK 922        TOTAL FREE ENERGY PREDICTED BY IDOCK:   -4.14 KCAL/MOL
REMARK 923 INTER-LIGAND FREE ENERGY PREDICTED BY IDOCK:   -3.59 KCAL/MOL
REMARK 924 INTRA-LIGAND FREE ENERGY PREDICTED BY IDOCK:   -0.55 KCAL/MOL
REMARK 927      BINDING AFFINITY PREDICTED BY RF-SCORE:    0.00 PKD
ROOT
HETATM    1  C   UNL     1      -7.670  14.245  69.516  1.00  0.00     0.204 C  
HETATM    2  O   UNL     1      -6.834  14.669  68.443  1.00  0.00    -0.090 OA 
ENDROOT
BRANCH   2   3
HETATM    3  C   UNL     1      -6.753  13.704  67.402  1.00  0.00    -0.004 C  
BRANCH   3   4
HETATM    4  C   UNL     1      -7.130  12.280  67.845  1.00  0.00    -0.105 C  
HETATM    5  O   UNL     1      -8.289  11.975  68.116  1.00  0.00    -0.151 OA 
HETATM    6  N   UNL     1      -6.057  11.382  67.882  1.00  0.00    -0.049 N  
HETATM    7  H   UNL     1      -5.104  11.683  67.680  1.00  0.00     0.000 HD 
BRANCH   6   8
HETATM    8  C   UNL     1      -6.355  10.026  68.214  1.00  0.00    -0.053 A  
HETATM    9  C   UNL     1      -6.419   9.605  69.565  1.00  0.00    -0.045 A  
HETATM   10  C   UNL     1      -6.995   8.349  69.919  1.00  0.00    -0.043 A  
HETATM   11  I   UNL     1      -5.638  10.980  71.025  1.00  0.00     0.203 I  
HETATM   12  C   UNL     1      -6.653   9.105  67.184  1.00  0.00    -0.061 A  
HETATM   13  C   UNL     1      -7.492   7.550  68.856  1.00  0.00    -0.096 A  
HETATM   14  I   UNL     1      -9.096   6.148  69.218  1.00  0.00    -0.143 I  
HETATM   15  I   UNL     1      -6.099   9.658  65.169  1.00  0.00    -0.097 I  
HETATM   16  C   UNL     1      -7.184   7.840  67.498  1.00  0.00    -0.091 A  
BRANCH  10  17
HETATM   17  C   UNL     1      -7.178   7.998  71.376  1.00  0.00    -0.068 C  
HETATM   18  O   UNL     1      -6.243   7.416  71.927  1.00  0.00    -0.040 OA 
HETATM   19  C   UNL     1      -9.507   9.044  71.640  1.00  0.00    -0.223 C  
HETATM   20  N   UNL     1      -8.369   8.249  72.085  1.00  0.00    -0.160 N  
BRANCH  20  21
HETATM   21  C   UNL     1      -8.523   7.665  73.446  1.00  0.00    -0.172 C  
BRANCH  21  22
HETATM   22  C   UNL     1      -9.067   6.213  73.419  1.00  0.00    -0.131 C  
HETATM   23  H   UNL     1      -8.750   4.512  74.393  1.00  0.00     0.000 HD 
HETATM   24  O   UNL     1      -8.417   5.402  74.410  1.00  0.00    -0.110 OA 
BRANCH  22  25
HETATM   25  C   UNL     1     -10.581   6.139  73.668  1.00  0.00    -0.263 C  
HETATM   26  H   UNL     1     -12.239   6.148  72.596  1.00  0.00     0.000 HD 
HETATM   27  O   UNL     1     -11.304   6.194  72.442  1.00  0.00    -0.269 OA 
ENDBRANCH  22  25
ENDBRANCH  21  22
ENDBRANCH  20  21
ENDBRANCH  10  17
BRANCH  16  28
HETATM   28  C   UNL     1      -7.375   6.819  66.420  1.00  0.00    -0.073 C  
HETATM   29  H   UNL     1      -9.299   7.546  65.999  1.00  0.00     0.000 HD 
HETATM   30  O   UNL     1      -6.519   5.992  66.154  1.00  0.00    -0.043 OA 
HETATM   31  N   UNL     1      -8.618   6.816  65.789  1.00  0.00    -0.150 N  
BRANCH  31  32
HETATM   32  C   UNL     1      -8.945   5.768  64.830  1.00  0.00     0.218 C  
BRANCH  32  33
HETATM   33  C   UNL     1      -9.856   4.691  65.425  1.00  0.00    -0.156 C  
HETATM   34  O   UNL     1     -11.003   5.325  66.011  1.00  0.00    -0.713 OA 
HETATM   35  H   UNL     1     -11.569   4.656  66.381  1.00  0.00     0.000 HD 
BRANCH  33  36
HETATM   36  C   UNL     1     -10.286   3.673  64.355  1.00  0.00    -0.202 C  
HETATM   37  O   UNL     1     -10.541   4.303  63.101  1.00  0.00    -0.416 OA 
HETATM   38  H   UNL     1     -10.806   3.674  62.440  1.00  0.00     0.000 HD 
ENDBRANCH  33  36
ENDBRANCH  32  33
ENDBRANCH  31  32
ENDBRANCH  16  28
ENDBRANCH   6   8
ENDBRANCH   3   4
ENDBRANCH   2   3
TORSDOF 11
ENDMDL
MODEL      121
REMARK 921   NORMALIZED FREE ENERGY PREDICTED BY IDOCK:   -1.83 KCAL/MOL
REMARK 922        TOTAL FREE ENERGY PREDICTED BY IDOCK:   -4.13 KCAL/MOL
REMARK 923 INTER-LIGAND FREE ENERGY PREDICTED BY IDOCK:   -2.92 KCAL/MOL
REMARK 924 INTRA-LIGAND FREE ENERGY PREDICTED BY IDOCK:   -1.21 KCAL/MOL
REMARK 927      BINDING AFFINITY PREDICTED BY RF-SCORE:    0.00 PKD
ROOT
HETATM    1  C   UNL     1     -13.440  13.089  72.448  1.00  0.00    -0.515 C  
HETATM    2  O   UNL     1     -14.007  11.824  72.120  1.00  0.00     0.052 OA 
ENDROOT
BRANCH   2   3
HETATM    3  C   UNL     1     -13.029  10.796  72.025  1.00  0.00    -0.339 C  
BRANCH   3   4
HETATM    4  C   UNL     1     -12.205  10.842  70.727  1.00  0.00    -0.383 C  
HETATM    5  O   UNL     1     -12.718  10.634  69.631  1.00  0.00    -0.212 OA 
HETATM    6  N   UNL     1     -10.855  11.164  70.909  1.00  0.00     0.717 N  
HETATM    7  H   UNL     1     -10.461  11.299  71.840  1.00  0.00     0.000 HD 
BRANCH   6   8
HETATM    8  C   UNL     1     -10.054  11.296  69.735  1.00  0.00     0.590 A  
HETATM    9  C   UNL     1      -9.308  10.199  69.236  1.00  0.00    -0.215 A  
HETATM   10  C   UNL     1      -8.747  10.225  67.926  1.00  0.00    -0.122 A  
HETATM   11  I   UNL     1      -9.116   8.506  70.551  1.00  0.00    -0.234 I  
HETATM   12  C   UNL     1     -10.053  12.517  69.024  1.00  0.00     0.175 A  
HETATM   13  C   UNL     1      -8.970  11.397  67.156  1.00  0.00    -0.162 A  
HETATM   14  I   UNL     1      -8.995  11.285  64.998  1.00  0.00     0.272 I  
HETATM   15  I   UNL     1     -10.813  14.261  70.050  1.00  0.00     0.532 I  
HETATM   16  C   UNL     1      -9.472  12.591  67.744  1.00  0.00    -0.197 A  
BRANCH  10  17
HETATM   17  C   UNL     1      -8.086   8.985  67.374  1.00  0.00    -0.108 C  
HETATM   18  O   UNL     1      -6.854   8.982  67.342  1.00  0.00    -0.075 OA 
HETATM   19  C   UNL     1     -10.244   7.667  66.941  1.00  0.00    -0.294 C  
HETATM   20  N   UNL     1      -8.807   7.893  66.853  1.00  0.00    -0.129 N  
BRANCH  20  21
HETATM   21  C   UNL     1      -8.060   6.824  66.135  1.00  0.00    -0.115 C  
BRANCH  21  22
HETATM   22  C   UNL     1      -8.460   5.398  66.594  1.00  0.00    -0.108 C  
HETATM   23  H   UNL     1      -8.140   3.528  66.010  1.00  0.00     0.000 HD 
HETATM   24  O   UNL     1      -7.895   4.401  65.729  1.00  0.00    -0.093 OA 
BRANCH  22  25
HETATM   25  C   UNL     1      -8.012   5.086  68.029  1.00  0.00    -0.090 C  
HETATM   26  H   UNL     1      -8.856   4.753  69.784  1.00  0.00     0.000 HD 
HETATM   27  O   UNL     1      -9.133   4.946  68.896  1.00  0.00    -0.103 OA 
ENDBRANCH  22  25
ENDBRANCH  21  22
ENDBRANCH  20  21
ENDBRANCH  10  17
BRANCH  16  28
HETATM   28  C   UNL     1      -9.355  13.911  67.050  1.00  0.00    -0.251 C  
HETATM   29  H   UNL     1      -7.416  14.196  67.801  1.00  0.00     0.000 HD 
HETATM   30  O   UNL     1     -10.265  14.373  66.381  1.00  0.00    -0.274 OA 
HETATM   31  N   UNL     1      -8.178  14.624  67.275  1.00  0.00    -0.203 N  
BRANCH  31  32
HETATM   32  C   UNL     1      -8.036  15.979  66.757  1.00  0.00    -0.267 C  
BRANCH  32  33
HETATM   33  C   UNL     1      -8.030  17.033  67.868  1.00  0.00    -0.189 C  
HETATM   34  O   UNL     1      -7.640  16.408  69.100  1.00  0.00    -0.228 OA 
HETATM   35  H   UNL     1      -7.637  17.062  69.790  1.00  0.00     0.000 HD 
BRANCH  33  36
HETATM   36  C   UNL     1      -7.083  18.195  67.525  1.00  0.00    -0.199 C  
HETATM   37  O   UNL     1      -6.120  17.818  66.543  1.00  0.00    -0.151 OA 
HETATM   38  H   UNL     1      -5.535  18.536  66.331  1.00  0.00     0.000 HD 
ENDBRANCH  33  36
ENDBRANCH  32  33
ENDBRANCH  31  32
ENDBRANCH  16  28
ENDBRANCH   6   8
ENDBRANCH   3   4
ENDBRANCH   2   3
TORSDOF 11
ENDMDL
MODEL      122
REMARK 921   NORMALIZED FREE ENERGY PREDICTED BY IDOCK:   -1.82 KCAL/MOL
REMARK 922        TOTAL FREE ENERGY PREDICTED BY IDOCK:   -4.11 KCAL/MOL
REMARK 923 INTER-LIGAND FREE ENERGY PREDICTED BY IDOCK:   -4.12 KCAL/MOL
REMARK 924 INTRA-LIGAND FREE ENERGY PREDICTED BY IDOCK:    0.01 KCAL/MOL
REMARK 927      BINDING AFFINITY PREDICTED BY RF-SCORE:    0.00 PKD
ROOT
HETATM    1  C   UNL     1     -12.786  14.395  64.872  1.00  0.00    -0.178 C  
HETATM    2  O   UNL     1     -11.906  13.362  64.438  1.00  0.00    -0.372 OA 
ENDROOT
BRANCH   2   3
HETATM    3  C   UNL     1     -11.735  12.345  65.417  1.00  0.00    -0.402 C  
BRANCH   3   4
HETATM    4  C   UNL     1     -10.277  12.165  65.874  1.00  0.00    -0.244 C  
HETATM    5  O   UNL     1      -9.334  12.350  65.108  1.00  0.00     0.072 OA 
HETATM    6  N   UNL     1     -10.131  11.806  67.219  1.00  0.00    -0.192 N  
HETATM    7  H   UNL     1     -10.942  11.630  67.814  1.00  0.00     0.000 HD 
BRANCH   6   8
HETATM    8  C   UNL     1      -8.801  11.696  67.722  1.00  0.00    -0.159 A  
HETATM    9  C   UNL     1      -8.126  12.825  68.250  1.00  0.00    -0.154 A  
HETATM   10  C   UNL     1      -6.931  12.680  69.014  1.00  0.00    -0.062 A  
HETATM   11  I   UNL     1      -9.033  14.739  67.862  1.00  0.00    -0.199 I  
HETATM   12  C   UNL     1      -8.168  10.433  67.753  1.00  0.00    -0.110 A  
HETATM   13  C   UNL     1      -6.455  11.357  69.212  1.00  0.00    -0.096 A  
HETATM   14  I   UNL     1      -5.278  10.883  70.962  1.00  0.00    -0.025 I  
HETATM   15  I   UNL     1      -9.028   8.865  66.540  1.00  0.00    -0.245 I  
HETATM   16  C   UNL     1      -6.965  10.260  68.463  1.00  0.00    -0.066 A  
BRANCH  10  17
HETATM   17  C   UNL     1      -6.322  13.888  69.682  1.00  0.00    -0.123 C  
HETATM   18  O   UNL     1      -6.535  14.019  70.889  1.00  0.00    -0.034 OA 
HETATM   19  C   UNL     1      -5.131  14.807  67.603  1.00  0.00     0.101 C  
HETATM   20  N   UNL     1      -5.595  14.872  68.984  1.00  0.00    -0.095 N  
BRANCH  20  21
HETATM   21  C   UNL     1      -5.231  16.128  69.696  1.00  0.00    -0.119 C  
BRANCH  21  22
HETATM   22  C   UNL     1      -5.855  17.390  69.045  1.00  0.00    -0.191 C  
HETATM   23  H   UNL     1      -7.664  18.173  68.806  1.00  0.00     0.000 HD 
HETATM   24  O   UNL     1      -7.282  17.399  69.205  1.00  0.00    -0.244 OA 
BRANCH  22  25
HETATM   25  C   UNL     1      -5.306  18.698  69.636  1.00  0.00    -0.204 C  
HETATM   26  H   UNL     1      -6.014  20.444  70.227  1.00  0.00     0.000 HD 
HETATM   27  O   UNL     1      -6.353  19.636  69.862  1.00  0.00    -0.314 OA 
ENDBRANCH  22  25
ENDBRANCH  21  22
ENDBRANCH  20  21
ENDBRANCH  10  17
BRANCH  16  28
HETATM   28  C   UNL     1      -6.230   8.959  68.386  1.00  0.00    -0.054 C  
HETATM   29  H   UNL     1      -7.737   7.982  69.473  1.00  0.00     0.000 HD 
HETATM   30  O   UNL     1      -5.150   8.858  67.830  1.00  0.00    -0.033 OA 
HETATM   31  N   UNL     1      -6.812   7.883  69.055  1.00  0.00    -0.056 N  
BRANCH  31  32
HETATM   32  C   UNL     1      -6.098   6.616  69.156  1.00  0.00    -0.026 C  
BRANCH  32  33
HETATM   33  C   UNL     1      -6.717   5.675  70.194  1.00  0.00    -0.048 C  
HETATM   34  O   UNL     1      -6.017   5.831  71.438  1.00  0.00    -0.027 OA 
HETATM   35  H   UNL     1      -6.401   5.247  72.082  1.00  0.00     0.000 HD 
BRANCH  33  36
HETATM   36  C   UNL     1      -8.218   5.960  70.377  1.00  0.00    -0.111 C  
HETATM   37  O   UNL     1      -8.961   5.645  69.201  1.00  0.00    -0.112 OA 
HETATM   38  H   UNL     1      -9.888   5.821  69.314  1.00  0.00     0.000 HD 
ENDBRANCH  33  36
ENDBRANCH  32  33
ENDBRANCH  31  32
ENDBRANCH  16  28
ENDBRANCH   6   8
ENDBRANCH   3   4
ENDBRANCH   2   3
TORSDOF 11
ENDMDL
MODEL      123
REMARK 921   NORMALIZED FREE ENERGY PREDICTED BY IDOCK:   -1.76 KCAL/MOL
REMARK 922        TOTAL FREE ENERGY PREDICTED BY IDOCK:   -4.02 KCAL/MOL
REMARK 923 INTER-LIGAND FREE ENERGY PREDICTED BY IDOCK:   -3.53 KCAL/MOL
REMARK 924 INTRA-LIGAND FREE ENERGY PREDICTED BY IDOCK:   -0.49 KCAL/MOL
REMARK 927      BINDING AFFINITY PREDICTED BY RF-SCORE:    0.00 PKD
ROOT
HETATM    1  C   UNL     1      -9.144   2.970  62.440  1.00  0.00    -0.080 C  
HETATM    2  O   UNL     1      -8.661   3.469  63.684  1.00  0.00    -0.090 OA 
ENDROOT
BRANCH   2   3
HETATM    3  C   UNL     1      -9.493   3.107  64.777  1.00  0.00    -0.150 C  
BRANCH   3   4
HETATM    4  C   UNL     1      -9.268   3.961  66.037  1.00  0.00    -0.158 C  
HETATM    5  O   UNL     1     -10.184   4.215  66.815  1.00  0.00    -0.113 OA 
HETATM    6  N   UNL     1      -7.947   4.385  66.221  1.00  0.00    -0.098 N  
HETATM    7  H   UNL     1      -7.221   4.179  65.534  1.00  0.00     0.000 HD 
BRANCH   6   8
HETATM    8  C   UNL     1      -7.659   5.119  67.411  1.00  0.00    -0.088 A  
HETATM    9  C   UNL     1      -7.822   6.526  67.456  1.00  0.00    -0.113 A  
HETATM   10  C   UNL     1      -7.824   7.228  68.697  1.00  0.00    -0.122 A  
HETATM   11  I   UNL     1      -8.100   7.509  65.562  1.00  0.00    -0.123 I  
HETATM   12  C   UNL     1      -7.267   4.427  68.579  1.00  0.00    -0.060 A  
HETATM   13  C   UNL     1      -7.652   6.451  69.873  1.00  0.00    -0.100 A  
HETATM   14  I   UNL     1      -8.475   7.136  71.750  1.00  0.00    -0.123 I  
HETATM   15  I   UNL     1      -6.595   2.387  68.344  1.00  0.00    -0.029 I  
HETATM   16  C   UNL     1      -7.217   5.098  69.816  1.00  0.00    -0.060 A  
BRANCH  10  17
HETATM   17  C   UNL     1      -8.145   8.702  68.718  1.00  0.00    -0.116 C  
HETATM   18  O   UNL     1      -7.189   9.478  68.679  1.00  0.00    -0.072 OA 
HETATM   19  C   UNL     1     -10.698   8.448  68.754  1.00  0.00    -0.051 C  
HETATM   20  N   UNL     1      -9.456   9.205  68.839  1.00  0.00    -0.150 N  
BRANCH  20  21
HETATM   21  C   UNL     1      -9.640  10.663  69.073  1.00  0.00    -0.195 C  
BRANCH  21  22
HETATM   22  C   UNL     1     -10.825  11.257  68.268  1.00  0.00    -0.205 C  
HETATM   23  H   UNL     1     -12.635  11.981  68.644  1.00  0.00     0.000 HD 
HETATM   24  O   UNL     1     -11.909  11.618  69.138  1.00  0.00    -0.292 OA 
BRANCH  22  25
HETATM   25  C   UNL     1     -10.433  12.503  67.461  1.00  0.00    -0.219 C  
HETATM   26  H   UNL     1      -9.870  12.932  65.617  1.00  0.00     0.000 HD 
HETATM   27  O   UNL     1     -10.112  12.161  66.116  1.00  0.00    -0.219 OA 
ENDBRANCH  22  25
ENDBRANCH  21  22
ENDBRANCH  20  21
ENDBRANCH  10  17
BRANCH  16  28
HETATM   28  C   UNL     1      -6.677   4.400  71.025  1.00  0.00    -0.035 C  
HETATM   29  H   UNL     1      -8.497   3.399  71.326  1.00  0.00     0.000 HD 
HETATM   30  O   UNL     1      -5.543   4.593  71.429  1.00  0.00    -0.010 OA 
HETATM   31  N   UNL     1      -7.569   3.577  71.711  1.00  0.00    -0.052 N  
BRANCH  31  32
HETATM   32  C   UNL     1      -7.176   2.972  72.977  1.00  0.00    -0.045 C  
BRANCH  32  33
HETATM   33  C   UNL     1      -8.069   3.413  74.140  1.00  0.00    -0.070 C  
HETATM   34  O   UNL     1      -7.724   4.757  74.508  1.00  0.00    -0.087 OA 
HETATM   35  H   UNL     1      -8.278   5.030  75.230  1.00  0.00     0.000 HD 
BRANCH  33  36
HETATM   36  C   UNL     1      -9.557   3.319  73.764  1.00  0.00    -0.098 C  
HETATM   37  O   UNL     1      -9.754   2.544  72.583  1.00  0.00    -0.105 OA 
HETATM   38  H   UNL     1     -10.674   2.486  72.350  1.00  0.00     0.000 HD 
ENDBRANCH  33  36
ENDBRANCH  32  33
ENDBRANCH  31  32
ENDBRANCH  16  28
ENDBRANCH   6   8
ENDBRANCH   3   4
ENDBRANCH   2   3
TORSDOF 11
ENDMDL
MODEL      124
REMARK 921   NORMALIZED FREE ENERGY PREDICTED BY IDOCK:   -1.76 KCAL/MOL
REMARK 922        TOTAL FREE ENERGY PREDICTED BY IDOCK:   -4.01 KCAL/MOL
REMARK 923 INTER-LIGAND FREE ENERGY PREDICTED BY IDOCK:   -4.24 KCAL/MOL
REMARK 924 INTRA-LIGAND FREE ENERGY PREDICTED BY IDOCK:    0.23 KCAL/MOL
REMARK 927      BINDING AFFINITY PREDICTED BY RF-SCORE:    0.00 PKD
ROOT
HETATM    1  C   UNL     1      -5.402  10.058  71.713  1.00  0.00    -0.024 C  
HETATM    2  O   UNL     1      -5.254  11.004  70.657  1.00  0.00    -0.081 OA 
ENDROOT
BRANCH   2   3
HETATM    3  C   UNL     1      -5.531  12.335  71.074  1.00  0.00    -0.100 C  
BRANCH   3   4
HETATM    4  C   UNL     1      -6.491  13.090  70.139  1.00  0.00     0.160 C  
HETATM    5  O   UNL     1      -7.385  13.808  70.578  1.00  0.00     1.031 OA 
HETATM    6  N   UNL     1      -6.235  12.906  68.775  1.00  0.00    -0.070 N  
HETATM    7  H   UNL     1      -5.501  12.275  68.451  1.00  0.00     0.000 HD 
BRANCH   6   8
HETATM    8  C   UNL     1      -7.044  13.640  67.857  1.00  0.00    -0.149 A  
HETATM    9  C   UNL     1      -7.988  12.980  67.030  1.00  0.00    -0.004 A  
HETATM   10  C   UNL     1      -8.994  13.710  66.332  1.00  0.00     0.009 A  
HETATM   11  I   UNL     1      -7.825  10.836  66.930  1.00  0.00    -0.146 I  
HETATM   12  C   UNL     1      -6.950  15.049  67.815  1.00  0.00    -0.174 A  
HETATM   13  C   UNL     1      -8.999  15.119  66.505  1.00  0.00    -0.291 A  
HETATM   14  I   UNL     1     -10.842  16.227  66.295  1.00  0.00     0.194 I  
HETATM   15  I   UNL     1      -5.214  15.953  68.731  1.00  0.00    -0.113 I  
HETATM   16  C   UNL     1      -7.902  15.801  67.102  1.00  0.00    -0.247 A  
BRANCH  10  17
HETATM   17  C   UNL     1     -10.069  12.964  65.580  1.00  0.00    -0.257 C  
HETATM   18  O   UNL     1      -9.840  12.709  64.396  1.00  0.00    -0.181 OA 
HETATM   19  C   UNL     1     -11.689  12.711  67.553  1.00  0.00    -0.368 C  
HETATM   20  N   UNL     1     -11.309  12.617  66.149  1.00  0.00    -0.312 N  
BRANCH  20  21
HETATM   21  C   UNL     1     -12.377  12.084  65.258  1.00  0.00     0.199 C  
BRANCH  21  22
HETATM   22  C   UNL     1     -13.212  13.203  64.583  1.00  0.00     0.393 C  
HETATM   23  H   UNL     1     -14.283  14.775  65.150  1.00  0.00     0.000 HD 
HETATM   24  O   UNL     1     -13.772  14.090  65.564  1.00  0.00    -0.415 OA 
BRANCH  22  25
HETATM   25  C   UNL     1     -12.391  14.047  63.597  1.00  0.00    -0.037 C  
HETATM   26  H   UNL     1     -12.182  15.954  63.127  1.00  0.00     0.000 HD 
HETATM   27  O   UNL     1     -12.690  15.432  63.737  1.00  0.00    -0.628 OA 
ENDBRANCH  22  25
ENDBRANCH  21  22
ENDBRANCH  20  21
ENDBRANCH  10  17
BRANCH  16  28
HETATM   28  C   UNL     1      -7.727  17.280  66.951  1.00  0.00    -0.215 C  
HETATM   29  H   UNL     1      -8.444  17.619  68.894  1.00  0.00     0.000 HD 
HETATM   30  O   UNL     1      -7.311  17.779  65.919  1.00  0.00    -0.438 OA 
HETATM   31  N   UNL     1      -8.142  18.063  68.027  1.00  0.00    -0.250 N  
BRANCH  31  32
HETATM   32  C   UNL     1      -8.143  19.516  67.913  1.00  0.00    -0.305 C  
BRANCH  32  33
HETATM   33  C   UNL     1      -9.527  20.076  67.568  1.00  0.00    -0.374 C  
HETATM   34  O   UNL     1      -9.842  19.733  66.210  1.00  0.00    -0.396 OA 
HETATM   35  H   UNL     1     -10.700  20.081  65.996  1.00  0.00     0.000 HD 
BRANCH  33  36
HETATM   36  C   UNL     1     -10.600  19.534  68.528  1.00  0.00    -0.026 C  
HETATM   37  O   UNL     1     -10.470  20.092  69.833  1.00  0.00    -0.627 OA 
HETATM   38  H   UNL     1     -11.133  19.757  70.426  1.00  0.00     0.000 HD 
ENDBRANCH  33  36
ENDBRANCH  32  33
ENDBRANCH  31  32
ENDBRANCH  16  28
ENDBRANCH   6   8
ENDBRANCH   3   4
ENDBRANCH   2   3
TORSDOF 11
ENDMDL
MODEL      125
REMARK 921   NORMALIZED FREE ENERGY PREDICTED BY IDOCK:   -1.72 KCAL/MOL
REMARK 922        TOTAL FREE ENERGY PREDICTED BY IDOCK:   -3.95 KCAL/MOL
REMARK 923 INTER-LIGAND FREE ENERGY PREDICTED BY IDOCK:   -4.22 KCAL/MOL
REMARK 924 INTRA-LIGAND FREE ENERGY PREDICTED BY IDOCK:    0.28 KCAL/MOL
REMARK 927      BINDING AFFINITY PREDICTED BY RF-SCORE:    0.00 PKD
ROOT
HETATM    1  C   UNL     1     -10.333  14.999  66.229  1.00  0.00    -0.296 C  
HETATM    2  O   UNL     1     -10.852  14.183  65.182  1.00  0.00    -0.328 OA 
ENDROOT
BRANCH   2   3
HETATM    3  C   UNL     1      -9.922  13.200  64.746  1.00  0.00    -0.125 C  
BRANCH   3   4
HETATM    4  C   UNL     1      -9.910  11.930  65.613  1.00  0.00    -0.241 C  
HETATM    5  O   UNL     1     -10.949  11.430  66.038  1.00  0.00    -0.285 OA 
HETATM    6  N   UNL     1      -8.637  11.396  65.842  1.00  0.00    -0.343 N  
HETATM    7  H   UNL     1      -7.796  11.860  65.498  1.00  0.00     0.000 HD 
BRANCH   6   8
HETATM    8  C   UNL     1      -8.566  10.176  66.578  1.00  0.00    -0.126 A  
HETATM    9  C   UNL     1      -8.374   8.937  65.917  1.00  0.00    -0.127 A  
HETATM   10  C   UNL     1      -8.012   7.764  66.641  1.00  0.00    -0.107 A  
HETATM   11  I   UNL     1      -8.626   8.954  63.780  1.00  0.00     0.191 I  
HETATM   12  C   UNL     1      -8.624  10.208  67.990  1.00  0.00    -0.118 A  
HETATM   13  C   UNL     1      -7.858   7.900  68.046  1.00  0.00    -0.127 A  
HETATM   14  I   UNL     1      -6.527   6.578  69.121  1.00  0.00    -0.043 I  
HETATM   15  I   UNL     1      -9.367  12.017  68.910  1.00  0.00     0.573 I  
HETATM   16  C   UNL     1      -8.312   9.057  68.738  1.00  0.00    -0.122 A  
BRANCH  10  17
HETATM   17  C   UNL     1      -7.674   6.499  65.890  1.00  0.00    -0.090 C  
HETATM   18  O   UNL     1      -6.568   6.455  65.349  1.00  0.00    -0.041 OA 
HETATM   19  C   UNL     1      -9.853   5.250  66.419  1.00  0.00    -0.186 C  
HETATM   20  N   UNL     1      -8.576   5.428  65.738  1.00  0.00    -0.133 N  
BRANCH  20  21
HETATM   21  C   UNL     1      -8.225   4.329  64.796  1.00  0.00    -0.103 C  
BRANCH  21  22
HETATM   22  C   UNL     1      -8.514   4.691  63.316  1.00  0.00    -0.113 C  
HETATM   23  H   UNL     1      -7.530   4.704  61.592  1.00  0.00     0.000 HD 
HETATM   24  O   UNL     1      -7.353   4.482  62.499  1.00  0.00    -0.038 OA 
BRANCH  22  25
HETATM   25  C   UNL     1      -9.667   3.872  62.717  1.00  0.00    -0.138 C  
HETATM   26  H   UNL     1      -9.947   2.055  61.996  1.00  0.00     0.000 HD 
HETATM   27  O   UNL     1      -9.235   2.561  62.366  1.00  0.00    -0.081 OA 
ENDBRANCH  22  25
ENDBRANCH  21  22
ENDBRANCH  20  21
ENDBRANCH  10  17
BRANCH  16  28
HETATM   28  C   UNL     1      -8.500   9.055  70.222  1.00  0.00    -0.168 C  
HETATM   29  H   UNL     1     -10.162   7.782  70.065  1.00  0.00     0.000 HD 
HETATM   30  O   UNL     1      -7.776   9.694  70.967  1.00  0.00    -0.323 OA 
HETATM   31  N   UNL     1      -9.599   8.344  70.703  1.00  0.00    -0.167 N  
BRANCH  31  32
HETATM   32  C   UNL     1      -9.943   8.404  72.118  1.00  0.00    -0.306 C  
BRANCH  32  33
HETATM   33  C   UNL     1     -10.299   7.030  72.694  1.00  0.00    -0.209 C  
HETATM   34  O   UNL     1     -11.465   6.533  72.021  1.00  0.00    -0.270 OA 
HETATM   35  H   UNL     1     -11.687   5.680  72.379  1.00  0.00     0.000 HD 
BRANCH  33  36
HETATM   36  C   UNL     1      -9.126   6.046  72.547  1.00  0.00    -0.135 C  
HETATM   37  O   UNL     1      -7.918   6.715  72.190  1.00  0.00    -0.097 OA 
HETATM   38  H   UNL     1      -7.194   6.107  72.100  1.00  0.00     0.000 HD 
ENDBRANCH  33  36
ENDBRANCH  32  33
ENDBRANCH  31  32
ENDBRANCH  16  28
ENDBRANCH   6   8
ENDBRANCH   3   4
ENDBRANCH   2   3
TORSDOF 11
ENDMDL
MODEL      126
REMARK 921   NORMALIZED FREE ENERGY PREDICTED BY IDOCK:   -1.58 KCAL/MOL
REMARK 922        TOTAL FREE ENERGY PREDICTED BY IDOCK:   -3.71 KCAL/MOL
REMARK 923 INTER-LIGAND FREE ENERGY PREDICTED BY IDOCK:   -3.52 KCAL/MOL
REMARK 924 INTRA-LIGAND FREE ENERGY PREDICTED BY IDOCK:   -0.19 KCAL/MOL
REMARK 927      BINDING AFFINITY PREDICTED BY RF-SCORE:    0.00 PKD
ROOT
HETATM    1  C   UNL     1     -12.236  15.123  64.350  1.00  0.00    -0.275 C  
HETATM    2  O   UNL     1     -12.122  13.729  64.626  1.00  0.00    -0.386 OA 
ENDROOT
BRANCH   2   3
HETATM    3  C   UNL     1     -10.813  13.361  65.041  1.00  0.00    -0.328 C  
BRANCH   3   4
HETATM    4  C   UNL     1     -10.755  12.017  65.788  1.00  0.00    -0.279 C  
HETATM    5  O   UNL     1     -11.710  11.245  65.799  1.00  0.00    -0.048 OA 
HETATM    6  N   UNL     1      -9.531  11.755  66.414  1.00  0.00    -0.216 N  
HETATM    7  H   UNL     1      -8.773  12.438  66.407  1.00  0.00     0.000 HD 
BRANCH   6   8
HETATM    8  C   UNL     1      -9.389  10.491  67.061  1.00  0.00    -0.155 A  
HETATM    9  C   UNL     1      -8.905   9.361  66.355  1.00  0.00    -0.145 A  
HETATM   10  C   UNL     1      -8.485   8.186  67.044  1.00  0.00    -0.120 A  
HETATM   11  I   UNL     1      -8.811   9.551  64.213  1.00  0.00    -0.117 I  
HETATM   12  C   UNL     1      -9.676  10.377  68.440  1.00  0.00    -0.158 A  
HETATM   13  C   UNL     1      -8.580   8.206  68.460  1.00  0.00    -0.130 A  
HETATM   14  I   UNL     1      -7.249   6.987  69.649  1.00  0.00    -0.085 I  
HETATM   15  I   UNL     1     -10.829  11.965  69.346  1.00  0.00     0.235 I  
HETATM   16  C   UNL     1      -9.313   9.214  69.145  1.00  0.00    -0.152 A  
BRANCH  10  17
HETATM   17  C   UNL     1      -7.839   7.061  66.273  1.00  0.00    -0.104 C  
HETATM   18  O   UNL     1      -8.553   6.095  66.000  1.00  0.00    -0.134 OA 
HETATM   19  C   UNL     1      -5.530   8.155  66.032  1.00  0.00    -0.028 C  
HETATM   20  N   UNL     1      -6.475   7.051  65.919  1.00  0.00    -0.050 N  
BRANCH  20  21
HETATM   21  C   UNL     1      -5.894   5.800  65.358  1.00  0.00    -0.024 C  
BRANCH  21  22
HETATM   22  C   UNL     1      -5.872   5.790  63.808  1.00  0.00    -0.021 C  
HETATM   23  H   UNL     1      -6.687   4.733  62.338  1.00  0.00     0.000 HD 
HETATM   24  O   UNL     1      -6.701   4.740  63.288  1.00  0.00    -0.036 OA 
BRANCH  22  25
HETATM   25  C   UNL     1      -6.350   7.115  63.196  1.00  0.00    -0.052 C  
HETATM   26  H   UNL     1      -5.587   8.589  62.126  1.00  0.00     0.000 HD 
HETATM   27  O   UNL     1      -5.292   7.770  62.504  1.00  0.00    -0.052 OA 
ENDBRANCH  22  25
ENDBRANCH  21  22
ENDBRANCH  20  21
ENDBRANCH  10  17
BRANCH  16  28
HETATM   28  C   UNL     1      -9.733   9.041  70.571  1.00  0.00    -0.216 C  
HETATM   29  H   UNL     1     -11.378   7.868  70.001  1.00  0.00     0.000 HD 
HETATM   30  O   UNL     1      -9.121   9.555  71.492  1.00  0.00    -0.184 OA 
HETATM   31  N   UNL     1     -10.910   8.325  70.784  1.00  0.00    -0.223 N  
BRANCH  31  32
HETATM   32  C   UNL     1     -11.472   8.229  72.125  1.00  0.00    -0.361 C  
BRANCH  32  33
HETATM   33  C   UNL     1     -12.418   7.035  72.280  1.00  0.00    -0.054 C  
HETATM   34  O   UNL     1     -12.633   6.441  70.991  1.00  0.00    -0.065 OA 
HETATM   35  H   UNL     1     -13.221   5.700  71.087  1.00  0.00     0.000 HD 
BRANCH  33  36
HETATM   36  C   UNL     1     -11.850   6.000  73.266  1.00  0.00     0.653 C  
HETATM   37  O   UNL     1     -10.750   5.286  72.705  1.00  0.00    -0.215 OA 
HETATM   38  H   UNL     1     -10.399   4.647  73.314  1.00  0.00     0.000 HD 
ENDBRANCH  33  36
ENDBRANCH  32  33
ENDBRANCH  31  32
ENDBRANCH  16  28
ENDBRANCH   6   8
ENDBRANCH   3   4
ENDBRANCH   2   3
TORSDOF 11
ENDMDL
MODEL      127
REMARK 921   NORMALIZED FREE ENERGY PREDICTED BY IDOCK:   -1.48 KCAL/MOL
REMARK 922        TOTAL FREE ENERGY PREDICTED BY IDOCK:   -3.56 KCAL/MOL
REMARK 923 INTER-LIGAND FREE ENERGY PREDICTED BY IDOCK:   -3.94 KCAL/MOL
REMARK 924 INTRA-LIGAND FREE ENERGY PREDICTED BY IDOCK:    0.38 KCAL/MOL
REMARK 927      BINDING AFFINITY PREDICTED BY RF-SCORE:    0.00 PKD
ROOT
HETATM    1  C   UNL     1      -6.703   5.585  73.650  1.00  0.00    -0.079 C  
HETATM    2  O   UNL     1      -6.957   4.183  73.660  1.00  0.00    -0.056 OA 
ENDROOT
BRANCH   2   3
HETATM    3  C   UNL     1      -6.501   3.538  72.478  1.00  0.00    -0.014 C  
BRANCH   3   4
HETATM    4  C   UNL     1      -6.921   4.251  71.181  1.00  0.00    -0.036 C  
HETATM    5  O   UNL     1      -6.093   4.633  70.358  1.00  0.00    -0.019 OA 
HETATM    6  N   UNL     1      -8.304   4.393  71.020  1.00  0.00    -0.087 N  
HETATM    7  H   UNL     1      -8.958   4.091  71.743  1.00  0.00     0.000 HD 
BRANCH   6   8
HETATM    8  C   UNL     1      -8.761   4.980  69.803  1.00  0.00    -0.091 A  
HETATM    9  C   UNL     1      -9.039   6.368  69.722  1.00  0.00    -0.141 A  
HETATM   10  C   UNL     1      -9.208   7.013  68.462  1.00  0.00    -0.137 A  
HETATM   11  I   UNL     1      -9.147   7.423  71.595  1.00  0.00    -0.161 I  
HETATM   12  C   UNL     1      -8.877   4.180  68.643  1.00  0.00    -0.104 A  
HETATM   13  C   UNL     1      -9.089   6.200  67.305  1.00  0.00    -0.115 A  
HETATM   14  I   UNL     1      -8.449   7.072  65.434  1.00  0.00     0.098 I  
HETATM   15  I   UNL     1      -8.895   2.036  68.917  1.00  0.00    -0.193 I  
HETATM   16  C   UNL     1      -9.086   4.780  67.387  1.00  0.00    -0.126 A  
BRANCH  10  17
HETATM   17  C   UNL     1      -9.357   8.514  68.409  1.00  0.00    -0.134 C  
HETATM   18  O   UNL     1     -10.505   8.959  68.455  1.00  0.00    -0.210 OA 
HETATM   19  C   UNL     1      -6.851   9.057  68.322  1.00  0.00    -0.065 C  
HETATM   20  N   UNL     1      -8.267   9.392  68.250  1.00  0.00    -0.117 N  
BRANCH  20  21
HETATM   21  C   UNL     1      -8.545  10.831  67.987  1.00  0.00    -0.128 C  
BRANCH  21  22
HETATM   22  C   UNL     1      -8.600  11.167  66.474  1.00  0.00    -0.169 C  
HETATM   23  H   UNL     1      -7.716  10.555  64.805  1.00  0.00     0.000 HD 
HETATM   24  O   UNL     1      -7.682  10.349  65.732  1.00  0.00    -0.137 OA 
BRANCH  22  25
HETATM   25  C   UNL     1      -9.999  10.972  65.871  1.00  0.00    -0.240 C  
HETATM   26  H   UNL     1     -10.782  10.418  64.145  1.00  0.00     0.000 HD 
HETATM   27  O   UNL     1      -9.917  10.538  64.518  1.00  0.00    -0.314 OA 
ENDBRANCH  22  25
ENDBRANCH  21  22
ENDBRANCH  20  21
ENDBRANCH  10  17
BRANCH  16  28
HETATM   28  C   UNL     1      -9.340   3.928  66.183  1.00  0.00    -0.175 C  
HETATM   29  H   UNL     1     -11.011   5.082  65.652  1.00  0.00     0.000 HD 
HETATM   30  O   UNL     1      -8.640   2.967  65.912  1.00  0.00    -0.106 OA 
HETATM   31  N   UNL     1     -10.469   4.247  65.430  1.00  0.00    -0.222 N  
BRANCH  31  32
HETATM   32  C   UNL     1     -10.875   3.386  64.326  1.00  0.00     0.030 C  
BRANCH  32  33
HETATM   33  C   UNL     1     -10.217   3.783  63.001  1.00  0.00    -0.189 C  
HETATM   34  O   UNL     1      -9.314   4.873  63.239  1.00  0.00    -0.346 OA 
HETATM   35  H   UNL     1      -8.906   5.120  62.417  1.00  0.00     0.000 HD 
BRANCH  33  36
HETATM   36  C   UNL     1      -9.475   2.592  62.371  1.00  0.00    -0.089 C  
HETATM   37  O   UNL     1      -8.185   2.408  62.950  1.00  0.00    -0.071 OA 
HETATM   38  H   UNL     1      -7.727   1.672  62.561  1.00  0.00     0.000 HD 
ENDBRANCH  33  36
ENDBRANCH  32  33
ENDBRANCH  31  32
ENDBRANCH  16  28
ENDBRANCH   6   8
ENDBRANCH   3   4
ENDBRANCH   2   3
TORSDOF 11
ENDMDL
MODEL      128
REMARK 921   NORMALIZED FREE ENERGY PREDICTED BY IDOCK:   -1.40 KCAL/MOL
REMARK 922        TOTAL FREE ENERGY PREDICTED BY IDOCK:   -3.43 KCAL/MOL
REMARK 923 INTER-LIGAND FREE ENERGY PREDICTED BY IDOCK:   -5.77 KCAL/MOL
REMARK 924 INTRA-LIGAND FREE ENERGY PREDICTED BY IDOCK:    2.34 KCAL/MOL
REMARK 927      BINDING AFFINITY PREDICTED BY RF-SCORE:    0.00 PKD
ROOT
HETATM    1  C   UNL     1     -10.107   7.458  72.614  1.00  0.00    -0.208 C  
HETATM    2  O   UNL     1     -11.400   7.553  73.204  1.00  0.00    -0.331 OA 
ENDROOT
BRANCH   2   3
HETATM    3  C   UNL     1     -12.335   8.220  72.366  1.00  0.00    -0.327 C  
BRANCH   3   4
HETATM    4  C   UNL     1     -11.760   8.627  70.999  1.00  0.00    -0.278 C  
HETATM    5  O   UNL     1     -12.112   8.073  69.961  1.00  0.00     0.380 OA 
HETATM    6  N   UNL     1     -10.841   9.683  71.047  1.00  0.00    -0.335 N  
HETATM    7  H   UNL     1     -10.551  10.095  71.934  1.00  0.00     0.000 HD 
BRANCH   6   8
HETATM    8  C   UNL     1     -10.329  10.156  69.803  1.00  0.00    -0.259 A  
HETATM    9  C   UNL     1      -9.381   9.399  69.070  1.00  0.00    -0.153 A  
HETATM   10  C   UNL     1      -9.084   9.707  67.710  1.00  0.00    -0.132 A  
HETATM   11  I   UNL     1      -8.465   7.757  70.118  1.00  0.00    -0.136 I  
HETATM   12  C   UNL     1     -10.818  11.367  69.261  1.00  0.00    -0.194 A  
HETATM   13  C   UNL     1      -9.778  10.804  67.136  1.00  0.00    -0.170 A  
HETATM   14  I   UNL     1     -10.133  10.862  65.004  1.00  0.00    -0.370 I  
HETATM   15  I   UNL     1     -11.885  12.689  70.597  1.00  0.00     0.805 I  
HETATM   16  C   UNL     1     -10.511  11.724  67.935  1.00  0.00    -0.219 A  
BRANCH  10  17
HETATM   17  C   UNL     1      -8.182   8.792  66.919  1.00  0.00    -0.108 C  
HETATM   18  O   UNL     1      -8.654   7.705  66.580  1.00  0.00    -0.125 OA 
HETATM   19  C   UNL     1      -6.170  10.381  66.812  1.00  0.00    -0.069 C  
HETATM   20  N   UNL     1      -6.841   9.101  66.618  1.00  0.00    -0.079 N  
BRANCH  20  21
HETATM   21  C   UNL     1      -5.980   8.039  66.029  1.00  0.00    -0.038 C  
BRANCH  21  22
HETATM   22  C   UNL     1      -6.089   7.963  64.484  1.00  0.00    -0.048 C  
HETATM   23  H   UNL     1      -6.752   6.679  63.124  1.00  0.00     0.000 HD 
HETATM   24  O   UNL     1      -6.686   6.725  64.071  1.00  0.00    -0.043 OA 
BRANCH  22  25
HETATM   25  C   UNL     1      -6.920   9.110  63.889  1.00  0.00    -0.089 C  
HETATM   26  H   UNL     1      -6.694  10.526  62.532  1.00  0.00     0.000 HD 
HETATM   27  O   UNL     1      -6.180   9.818  62.899  1.00  0.00    -0.101 OA 
ENDBRANCH  22  25
ENDBRANCH  21  22
ENDBRANCH  20  21
ENDBRANCH  10  17
BRANCH  16  28
HETATM   28  C   UNL     1     -10.919  13.064  67.407  1.00  0.00    -0.260 C  
HETATM   29  H   UNL     1     -12.655  12.256  66.546  1.00  0.00     0.000 HD 
HETATM   30  O   UNL     1     -10.240  14.061  67.581  1.00  0.00    -0.238 OA 
HETATM   31  N   UNL     1     -12.081  13.095  66.637  1.00  0.00    -0.378 N  
BRANCH  31  32
HETATM   32  C   UNL     1     -12.477  14.325  65.964  1.00  0.00    -0.369 C  
BRANCH  32  33
HETATM   33  C   UNL     1     -11.750  14.524  64.631  1.00  0.00    -0.431 C  
HETATM   34  O   UNL     1     -10.471  15.126  64.884  1.00  0.00    -0.424 OA 
HETATM   35  H   UNL     1     -10.020  15.250  64.056  1.00  0.00     0.000 HD 
BRANCH  33  36
HETATM   36  C   UNL     1     -11.582  13.189  63.886  1.00  0.00    -0.433 C  
HETATM   37  O   UNL     1     -12.210  13.217  62.606  1.00  0.00    -0.612 OA 
HETATM   38  H   UNL     1     -12.107  12.392  62.145  1.00  0.00     0.000 HD 
ENDBRANCH  33  36
ENDBRANCH  32  33
ENDBRANCH  31  32
ENDBRANCH  16  28
ENDBRANCH   6   8
ENDBRANCH   3   4
ENDBRANCH   2   3
TORSDOF 11
ENDMDL
MODEL      129
REMARK 921   NORMALIZED FREE ENERGY PREDICTED BY IDOCK:   -1.26 KCAL/MOL
REMARK 922        TOTAL FREE ENERGY PREDICTED BY IDOCK:   -3.19 KCAL/MOL
REMARK 923 INTER-LIGAND FREE ENERGY PREDICTED BY IDOCK:   -5.01 KCAL/MOL
REMARK 924 INTRA-LIGAND FREE ENERGY PREDICTED BY IDOCK:    1.82 KCAL/MOL
REMARK 927      BINDING AFFINITY PREDICTED BY RF-SCORE:    0.00 PKD
ROOT
HETATM    1  C   UNL     1      -7.018  10.522  62.332  1.00  0.00    -0.134 C  
HETATM    2  O   UNL     1      -8.012   9.518  62.518  1.00  0.00    -0.113 OA 
ENDROOT
BRANCH   2   3
HETATM    3  C   UNL     1      -9.259  10.056  62.937  1.00  0.00    -0.288 C  
BRANCH   3   4
HETATM    4  C   UNL     1      -9.274  10.516  64.405  1.00  0.00    -0.245 C  
HETATM    5  O   UNL     1      -8.253  10.902  64.970  1.00  0.00    -0.069 OA 
HETATM    6  N   UNL     1     -10.535  10.479  65.012  1.00  0.00    -0.237 N  
HETATM    7  H   UNL     1     -11.353  10.122  64.517  1.00  0.00     0.000 HD 
BRANCH   6   8
HETATM    8  C   UNL     1     -10.627  10.964  66.350  1.00  0.00    -0.229 A  
HETATM    9  C   UNL     1     -10.986  12.309  66.615  1.00  0.00    -0.278 A  
HETATM   10  C   UNL     1     -11.365  12.727  67.924  1.00  0.00    -0.339 A  
HETATM   11  I   UNL     1     -10.960  13.647  64.928  1.00  0.00    -0.446 I  
HETATM   12  C   UNL     1     -10.419  10.076  67.430  1.00  0.00    -0.260 A  
HETATM   13  C   UNL     1     -11.359  11.735  68.940  1.00  0.00    -0.267 A  
HETATM   14  I   UNL     1     -12.672  11.928  70.646  1.00  0.00     0.157 I  
HETATM   15  I   UNL     1      -9.438   8.200  66.994  1.00  0.00    -0.298 I  
HETATM   16  C   UNL     1     -10.742  10.469  68.742  1.00  0.00    -0.249 A  
BRANCH  10  17
HETATM   17  C   UNL     1     -11.881  14.129  68.139  1.00  0.00    -0.352 C  
HETATM   18  O   UNL     1     -13.057  14.339  67.836  1.00  0.00     1.381 OA 
HETATM   19  C   UNL     1      -9.720  15.091  69.133  1.00  0.00    -0.212 C  
HETATM   20  N   UNL     1     -11.073  15.187  68.599  1.00  0.00    -0.257 N  
BRANCH  20  21
HETATM   21  C   UNL     1     -11.622  16.570  68.563  1.00  0.00    -0.010 C  
BRANCH  21  22
HETATM   22  C   UNL     1     -11.254  17.330  67.262  1.00  0.00     0.308 C  
HETATM   23  H   UNL     1     -10.891  19.202  66.711  1.00  0.00     0.000 HD 
HETATM   24  O   UNL     1     -11.116  18.737  67.509  1.00  0.00    -0.326 OA 
BRANCH  22  25
HETATM   25  C   UNL     1      -9.946  16.831  66.630  1.00  0.00    -0.293 C  
HETATM   26  H   UNL     1      -9.214  16.545  64.818  1.00  0.00     0.000 HD 
HETATM   27  O   UNL     1     -10.023  16.853  65.208  1.00  0.00    -0.526 OA 
ENDBRANCH  22  25
ENDBRANCH  21  22
ENDBRANCH  20  21
ENDBRANCH  10  17
BRANCH  16  28
HETATM   28  C   UNL     1     -10.400   9.579  69.896  1.00  0.00    -0.236 C  
HETATM   29  H   UNL     1      -8.432   9.348  69.204  1.00  0.00     0.000 HD 
HETATM   30  O   UNL     1     -11.220   9.280  70.747  1.00  0.00    -0.252 OA 
HETATM   31  N   UNL     1      -9.111   9.046  69.902  1.00  0.00    -0.158 N  
BRANCH  31  32
HETATM   32  C   UNL     1      -8.737   8.059  70.906  1.00  0.00    -0.138 C  
BRANCH  32  33
HETATM   33  C   UNL     1      -7.390   8.374  71.564  1.00  0.00    -0.095 C  
HETATM   34  O   UNL     1      -7.001   9.709  71.210  1.00  0.00    -0.322 OA 
HETATM   35  H   UNL     1      -6.164   9.905  71.618  1.00  0.00     0.000 HD 
BRANCH  33  36
HETATM   36  C   UNL     1      -7.468   8.218  73.092  1.00  0.00    -0.105 C  
HETATM   37  O   UNL     1      -8.481   7.290  73.476  1.00  0.00    -0.122 OA 
HETATM   38  H   UNL     1      -8.529   7.194  74.420  1.00  0.00     0.000 HD 
ENDBRANCH  33  36
ENDBRANCH  32  33
ENDBRANCH  31  32
ENDBRANCH  16  28
ENDBRANCH   6   8
ENDBRANCH   3   4
ENDBRANCH   2   3
TORSDOF 11
ENDMDL
MODEL      130
REMARK 921   NORMALIZED FREE ENERGY PREDICTED BY IDOCK:   -1.23 KCAL/MOL
REMARK 922        TOTAL FREE ENERGY PREDICTED BY IDOCK:   -3.14 KCAL/MOL
REMARK 923 INTER-LIGAND FREE ENERGY PREDICTED BY IDOCK:   -3.09 KCAL/MOL
REMARK 924 INTRA-LIGAND FREE ENERGY PREDICTED BY IDOCK:   -0.06 KCAL/MOL
REMARK 927      BINDING AFFINITY PREDICTED BY RF-SCORE:    0.00 PKD
ROOT
HETATM    1  C   UNL     1     -13.048  13.809  64.099  1.00  0.00     0.913 C  
HETATM    2  O   UNL     1     -12.416  12.810  64.896  1.00  0.00    -0.472 OA 
ENDROOT
BRANCH   2   3
HETATM    3  C   UNL     1     -11.310  12.207  64.237  1.00  0.00    -0.360 C  
BRANCH   3   4
HETATM    4  C   UNL     1     -10.247  11.648  65.198  1.00  0.00    -0.274 C  
HETATM    5  O   UNL     1      -9.270  11.026  64.788  1.00  0.00    -0.205 OA 
HETATM    6  N   UNL     1     -10.478  11.935  66.549  1.00  0.00    -0.216 N  
HETATM    7  H   UNL     1     -11.319  12.427  66.852  1.00  0.00     0.000 HD 
BRANCH   6   8
HETATM    8  C   UNL     1      -9.488  11.508  67.483  1.00  0.00    -0.169 A  
HETATM    9  C   UNL     1      -9.333  10.136  67.804  1.00  0.00    -0.141 A  
HETATM   10  C   UNL     1      -8.178   9.667  68.496  1.00  0.00    -0.105 A  
HETATM   11  I   UNL     1     -10.910   8.825  67.151  1.00  0.00     0.711 I  
HETATM   12  C   UNL     1      -8.609  12.457  68.051  1.00  0.00    -0.180 A  
HETATM   13  C   UNL     1      -7.204  10.638  68.848  1.00  0.00    -0.090 A  
HETATM   14  I   UNL     1      -5.132  10.062  69.063  1.00  0.00    -0.034 I  
HETATM   15  I   UNL     1      -9.169  14.539  67.901  1.00  0.00    -0.220 I  
HETATM   16  C   UNL     1      -7.481  12.032  68.777  1.00  0.00    -0.086 A  
BRANCH  10  17
HETATM   17  C   UNL     1      -7.977   8.184  68.691  1.00  0.00    -0.115 C  
HETATM   18  O   UNL     1      -7.464   7.567  67.755  1.00  0.00    -0.096 OA 
HETATM   19  C   UNL     1      -8.887   8.074  71.088  1.00  0.00    -0.140 C  
HETATM   20  N   UNL     1      -8.400   7.493  69.843  1.00  0.00    -0.131 N  
BRANCH  20  21
HETATM   21  C   UNL     1      -8.354   6.004  69.837  1.00  0.00    -0.123 C  
BRANCH  21  22
HETATM   22  C   UNL     1      -9.375   5.367  70.815  1.00  0.00    -0.159 C  
HETATM   23  H   UNL     1     -11.257   4.738  70.762  1.00  0.00     0.000 HD 
HETATM   24  O   UNL     1     -10.632   5.128  70.162  1.00  0.00    -0.272 OA 
BRANCH  22  25
HETATM   25  C   UNL     1      -8.887   4.034  71.401  1.00  0.00    -0.104 C  
HETATM   26  H   UNL     1      -7.342   3.373  72.438  1.00  0.00     0.000 HD 
HETATM   27  O   UNL     1      -7.644   4.197  72.076  1.00  0.00    -0.067 OA 
ENDBRANCH  22  25
ENDBRANCH  21  22
ENDBRANCH  20  21
ENDBRANCH  10  17
BRANCH  16  28
HETATM   28  C   UNL     1      -6.625  13.034  69.486  1.00  0.00    -0.030 C  
HETATM   29  H   UNL     1      -6.492  14.222  67.761  1.00  0.00     0.000 HD 
HETATM   30  O   UNL     1      -6.292  12.891  70.651  1.00  0.00    -0.035 OA 
HETATM   31  N   UNL     1      -6.163  14.102  68.719  1.00  0.00    -0.082 N  
BRANCH  31  32
HETATM   32  C   UNL     1      -5.209  15.047  69.286  1.00  0.00    -0.090 C  
BRANCH  32  33
HETATM   33  C   UNL     1      -5.241  16.407  68.581  1.00  0.00    -0.105 C  
HETATM   34  O   UNL     1      -5.935  16.266  67.332  1.00  0.00    -0.146 OA 
HETATM   35  H   UNL     1      -5.954  17.110  66.894  1.00  0.00     0.000 HD 
BRANCH  33  36
HETATM   36  C   UNL     1      -5.917  17.472  69.460  1.00  0.00    -0.246 C  
HETATM   37  O   UNL     1      -6.589  18.455  68.675  1.00  0.00    -0.217 OA 
HETATM   38  H   UNL     1      -7.006  19.113  69.218  1.00  0.00     0.000 HD 
ENDBRANCH  33  36
ENDBRANCH  32  33
ENDBRANCH  31  32
ENDBRANCH  16  28
ENDBRANCH   6   8
ENDBRANCH   3   4
ENDBRANCH   2   3
TORSDOF 11
ENDMDL
MODEL      131
REMARK 921   NORMALIZED FREE ENERGY PREDICTED BY IDOCK:   -1.23 KCAL/MOL
REMARK 922        TOTAL FREE ENERGY PREDICTED BY IDOCK:   -3.14 KCAL/MOL
REMARK 923 INTER-LIGAND FREE ENERGY PREDICTED BY IDOCK:   -3.09 KCAL/MOL
REMARK 924 INTRA-LIGAND FREE ENERGY PREDICTED BY IDOCK:   -0.05 KCAL/MOL
REMARK 927      BINDING AFFINITY PREDICTED BY RF-SCORE:    0.00 PKD
ROOT
HETATM    1  C   UNL     1     -11.722   5.160  73.196  1.00  0.00    -0.109 C  
HETATM    2  O   UNL     1     -11.072   3.995  72.696  1.00  0.00     0.001 OA 
ENDROOT
BRANCH   2   3
HETATM    3  C   UNL     1      -9.658   4.059  72.829  1.00  0.00    -0.132 C  
BRANCH   3   4
HETATM    4  C   UNL     1      -8.996   5.094  71.904  1.00  0.00    -0.134 C  
HETATM    5  O   UNL     1      -7.887   5.561  72.150  1.00  0.00    -0.103 OA 
HETATM    6  N   UNL     1      -9.747   5.423  70.769  1.00  0.00    -0.172 N  
HETATM    7  H   UNL     1     -10.679   5.036  70.618  1.00  0.00     0.000 HD 
BRANCH   6   8
HETATM    8  C   UNL     1      -9.153   6.322  69.834  1.00  0.00    -0.144 A  
HETATM    9  C   UNL     1      -8.339   5.841  68.778  1.00  0.00    -0.104 A  
HETATM   10  C   UNL     1      -7.985   6.680  67.681  1.00  0.00    -0.115 A  
HETATM   11  I   UNL     1      -7.717   3.786  68.920  1.00  0.00    -0.056 I  
HETATM   12  C   UNL     1      -9.430   7.705  69.923  1.00  0.00    -0.160 A  
HETATM   13  C   UNL     1      -8.482   8.009  67.704  1.00  0.00    -0.131 A  
HETATM   14  I   UNL     1      -8.805   9.074  65.851  1.00  0.00    -0.263 I  
HETATM   15  I   UNL     1     -10.272   8.429  71.777  1.00  0.00    -0.403 I  
HETATM   16  C   UNL     1      -9.058   8.570  68.877  1.00  0.00    -0.146 A  
BRANCH  10  17
HETATM   17  C   UNL     1      -7.241   6.094  66.505  1.00  0.00    -0.073 C  
HETATM   18  O   UNL     1      -6.011   6.162  66.538  1.00  0.00    -0.023 OA 
HETATM   19  C   UNL     1      -9.308   5.256  65.236  1.00  0.00     0.012 C  
HETATM   20  N   UNL     1      -7.887   5.545  65.380  1.00  0.00    -0.096 N  
BRANCH  20  21
HETATM   21  C   UNL     1      -7.066   5.200  64.186  1.00  0.00    -0.049 C  
BRANCH  21  22
HETATM   22  C   UNL     1      -6.891   3.671  63.998  1.00  0.00    -0.044 C  
HETATM   23  H   UNL     1      -5.677   2.445  63.018  1.00  0.00     0.000 HD 
HETATM   24  O   UNL     1      -5.783   3.382  63.133  1.00  0.00    -0.012 OA 
BRANCH  22  25
HETATM   25  C   UNL     1      -6.661   2.930  65.324  1.00  0.00    -0.040 C  
HETATM   26  H   UNL     1      -7.327   1.301  66.222  1.00  0.00     0.000 HD 
HETATM   27  O   UNL     1      -7.469   1.759  65.402  1.00  0.00    -0.059 OA 
ENDBRANCH  22  25
ENDBRANCH  21  22
ENDBRANCH  20  21
ENDBRANCH  10  17
BRANCH  16  28
HETATM   28  C   UNL     1      -9.233  10.049  69.030  1.00  0.00    -0.178 C  
HETATM   29  H   UNL     1      -7.172  10.371  68.804  1.00  0.00     0.000 HD 
HETATM   30  O   UNL     1     -10.326  10.553  69.226  1.00  0.00    -0.206 OA 
HETATM   31  N   UNL     1      -8.067  10.812  69.015  1.00  0.00    -0.144 N  
BRANCH  31  32
HETATM   32  C   UNL     1      -8.127  12.240  69.299  1.00  0.00     0.617 C  
BRANCH  32  33
HETATM   33  C   UNL     1      -7.291  13.069  68.320  1.00  0.00    -0.116 C  
HETATM   34  O   UNL     1      -6.731  12.194  67.330  1.00  0.00    -0.129 OA 
HETATM   35  H   UNL     1      -6.212  12.708  66.722  1.00  0.00     0.000 HD 
BRANCH  33  36
HETATM   36  C   UNL     1      -8.140  14.167  67.656  1.00  0.00    -0.180 C  
HETATM   37  O   UNL     1      -7.353  15.304  67.308  1.00  0.00    -0.199 OA 
HETATM   38  H   UNL     1      -7.878  15.982  66.898  1.00  0.00     0.000 HD 
ENDBRANCH  33  36
ENDBRANCH  32  33
ENDBRANCH  31  32
ENDBRANCH  16  28
ENDBRANCH   6   8
ENDBRANCH   3   4
ENDBRANCH   2   3
TORSDOF 11
ENDMDL
MODEL      132
REMARK 921   NORMALIZED FREE ENERGY PREDICTED BY IDOCK:   -1.15 KCAL/MOL
REMARK 922        TOTAL FREE ENERGY PREDICTED BY IDOCK:   -3.01 KCAL/MOL
REMARK 923 INTER-LIGAND FREE ENERGY PREDICTED BY IDOCK:   -5.79 KCAL/MOL
REMARK 924 INTRA-LIGAND FREE ENERGY PREDICTED BY IDOCK:    2.78 KCAL/MOL
REMARK 927      BINDING AFFINITY PREDICTED BY RF-SCORE:    0.00 PKD
ROOT
HETATM    1  C   UNL     1     -10.245   8.732  66.383  1.00  0.00    -0.186 C  
HETATM    2  O   UNL     1     -10.141   9.073  65.004  1.00  0.00     0.574 OA 
ENDROOT
BRANCH   2   3
HETATM    3  C   UNL     1      -9.937  10.465  64.799  1.00  0.00    -0.339 C  
BRANCH   3   4
HETATM    4  C   UNL     1     -10.569  11.350  65.887  1.00  0.00    -0.263 C  
HETATM    5  O   UNL     1     -11.693  11.829  65.755  1.00  0.00    -0.359 OA 
HETATM    6  N   UNL     1      -9.772  11.529  67.024  1.00  0.00    -0.183 N  
HETATM    7  H   UNL     1      -8.831  11.140  67.080  1.00  0.00     0.000 HD 
BRANCH   6   8
HETATM    8  C   UNL     1     -10.334  12.280  68.099  1.00  0.00    -0.216 A  
HETATM    9  C   UNL     1     -10.262  13.695  68.116  1.00  0.00    -0.247 A  
HETATM   10  C   UNL     1     -11.059  14.463  69.014  1.00  0.00    -0.282 A  
HETATM   11  I   UNL     1      -8.922  14.593  66.691  1.00  0.00    -0.072 I  
HETATM   12  C   UNL     1     -11.026  11.608  69.133  1.00  0.00    -0.219 A  
HETATM   13  C   UNL     1     -11.917  13.742  69.886  1.00  0.00    -0.347 A  
HETATM   14  I   UNL     1     -13.730  14.661  70.621  1.00  0.00     0.805 I  
HETATM   15  I   UNL     1     -10.714   9.476  69.310  1.00  0.00    -0.150 I  
HETATM   16  C   UNL     1     -11.790  12.336  70.063  1.00  0.00    -0.372 A  
BRANCH  10  17
HETATM   17  C   UNL     1     -11.066  15.968  68.903  1.00  0.00    -0.331 C  
HETATM   18  O   UNL     1     -12.143  16.498  68.624  1.00  0.00     0.154 OA 
HETATM   19  C   UNL     1      -8.597  16.320  69.507  1.00  0.00     0.118 C  
HETATM   20  N   UNL     1      -9.908  16.757  69.042  1.00  0.00    -0.267 N  
BRANCH  20  21
HETATM   21  C   UNL     1      -9.985  18.203  68.695  1.00  0.00    -0.395 C  
BRANCH  21  22
HETATM   22  C   UNL     1      -9.294  18.536  67.348  1.00  0.00    -0.279 C  
HETATM   23  H   UNL     1      -9.788  18.613  65.427  1.00  0.00     0.000 HD 
HETATM   24  O   UNL     1     -10.213  18.409  66.252  1.00  0.00    -0.378 OA 
BRANCH  22  25
HETATM   25  C   UNL     1      -8.711  19.957  67.312  1.00  0.00    -0.333 C  
HETATM   26  H   UNL     1      -9.379  21.813  67.407  1.00  0.00     0.000 HD 
HETATM   27  O   UNL     1      -9.740  20.935  67.429  1.00  0.00    -0.456 OA 
ENDBRANCH  22  25
ENDBRANCH  21  22
ENDBRANCH  20  21
ENDBRANCH  10  17
BRANCH  16  28
HETATM   28  C   UNL     1     -12.414  11.638  71.231  1.00  0.00    -0.266 C  
HETATM   29  H   UNL     1     -12.873   9.963  70.052  1.00  0.00     0.000 HD 
HETATM   30  O   UNL     1     -12.482  12.156  72.333  1.00  0.00     0.451 OA 
HETATM   31  N   UNL     1     -12.984  10.392  70.971  1.00  0.00    -0.388 N  
BRANCH  31  32
HETATM   32  C   UNL     1     -13.737   9.705  72.011  1.00  0.00    -0.316 C  
BRANCH  32  33
HETATM   33  C   UNL     1     -13.383   8.218  72.106  1.00  0.00    -0.267 C  
HETATM   34  O   UNL     1     -13.397   7.652  70.787  1.00  0.00    -0.536 OA 
HETATM   35  H   UNL     1     -13.178   6.728  70.846  1.00  0.00     0.000 HD 
BRANCH  33  36
HETATM   36  C   UNL     1     -12.011   8.015  72.769  1.00  0.00    -0.188 C  
HETATM   37  O   UNL     1     -11.322   6.892  72.223  1.00  0.00    -0.254 OA 
HETATM   38  H   UNL     1     -10.474   6.767  72.632  1.00  0.00     0.000 HD 
ENDBRANCH  33  36
ENDBRANCH  32  33
ENDBRANCH  31  32
ENDBRANCH  16  28
ENDBRANCH   6   8
ENDBRANCH   3   4
ENDBRANCH   2   3
TORSDOF 11
ENDMDL
MODEL      133
REMARK 921   NORMALIZED FREE ENERGY PREDICTED BY IDOCK:   -1.10 KCAL/MOL
REMARK 922        TOTAL FREE ENERGY PREDICTED BY IDOCK:   -2.93 KCAL/MOL
REMARK 923 INTER-LIGAND FREE ENERGY PREDICTED BY IDOCK:   -1.87 KCAL/MOL
REMARK 924 INTRA-LIGAND FREE ENERGY PREDICTED BY IDOCK:   -1.06 KCAL/MOL
REMARK 927      BINDING AFFINITY PREDICTED BY RF-SCORE:    0.00 PKD
ROOT
HETATM    1  C   UNL     1      -8.697   2.697  63.678  1.00  0.00    -0.085 C  
HETATM    2  O   UNL     1      -8.402   3.692  64.655  1.00  0.00    -0.093 OA 
ENDROOT
BRANCH   2   3
HETATM    3  C   UNL     1      -9.516   3.985  65.488  1.00  0.00    -0.176 C  
BRANCH   3   4
HETATM    4  C   UNL     1      -9.309   5.216  66.388  1.00  0.00    -0.146 C  
HETATM    5  O   UNL     1     -10.248   5.754  66.968  1.00  0.00    -0.166 OA 
HETATM    6  N   UNL     1      -7.978   5.635  66.501  1.00  0.00    -0.101 N  
HETATM    7  H   UNL     1      -7.231   5.179  65.976  1.00  0.00     0.000 HD 
BRANCH   6   8
HETATM    8  C   UNL     1      -7.712   6.726  67.380  1.00  0.00    -0.110 A  
HETATM    9  C   UNL     1      -7.652   8.056  66.894  1.00  0.00    -0.095 A  
HETATM   10  C   UNL     1      -7.680   9.169  67.784  1.00  0.00    -0.093 A  
HETATM   11  I   UNL     1      -7.556   8.279  64.755  1.00  0.00    -0.123 I  
HETATM   12  C   UNL     1      -7.569   6.487  68.766  1.00  0.00    -0.100 A  
HETATM   13  C   UNL     1      -7.767   8.877  69.171  1.00  0.00    -0.092 A  
HETATM   14  I   UNL     1      -8.676  10.301  70.519  1.00  0.00     2.111 I  
HETATM   15  I   UNL     1      -7.209   4.448  69.387  1.00  0.00    -0.051 I  
HETATM   16  C   UNL     1      -7.551   7.564  69.672  1.00  0.00    -0.094 A  
BRANCH  10  17
HETATM   17  C   UNL     1      -7.762  10.568  67.225  1.00  0.00    -0.106 C  
HETATM   18  O   UNL     1      -6.695  11.157  67.048  1.00  0.00    -0.096 OA 
HETATM   19  C   UNL     1     -10.316  10.640  66.982  1.00  0.00    -0.231 C  
HETATM   20  N   UNL     1      -8.981  11.226  66.967  1.00  0.00    -0.151 N  
BRANCH  20  21
HETATM   21  C   UNL     1      -8.951  12.675  66.630  1.00  0.00    -0.164 C  
BRANCH  21  22
HETATM   22  C   UNL     1      -9.625  13.559  67.711  1.00  0.00    -0.219 C  
HETATM   23  H   UNL     1      -9.303  14.058  69.605  1.00  0.00     0.000 HD 
HETATM   24  O   UNL     1      -8.889  13.517  68.943  1.00  0.00     0.036 OA 
BRANCH  22  25
HETATM   25  C   UNL     1      -9.750  15.030  67.286  1.00  0.00    -0.220 C  
HETATM   26  H   UNL     1     -11.149  16.423  67.236  1.00  0.00     0.000 HD 
HETATM   27  O   UNL     1     -11.072  15.513  67.499  1.00  0.00    -0.321 OA 
ENDBRANCH  22  25
ENDBRANCH  21  22
ENDBRANCH  20  21
ENDBRANCH  10  17
BRANCH  16  28
HETATM   28  C   UNL     1      -7.269   7.318  71.121  1.00  0.00    -0.072 C  
HETATM   29  H   UNL     1      -9.222   6.619  71.440  1.00  0.00     0.000 HD 
HETATM   30  O   UNL     1      -6.184   7.568  71.620  1.00  0.00    -0.036 OA 
HETATM   31  N   UNL     1      -8.339   6.862  71.889  1.00  0.00    -0.108 N  
BRANCH  31  32
HETATM   32  C   UNL     1      -8.197   6.733  73.334  1.00  0.00    -0.113 C  
BRANCH  32  33
HETATM   33  C   UNL     1      -9.476   6.226  74.006  1.00  0.00    -0.165 C  
HETATM   34  O   UNL     1     -10.609   6.840  73.372  1.00  0.00    -0.279 OA 
HETATM   35  H   UNL     1     -11.403   6.526  73.790  1.00  0.00     0.000 HD 
BRANCH  33  36
HETATM   36  C   UNL     1      -9.575   4.694  73.928  1.00  0.00    -0.125 C  
HETATM   37  O   UNL     1      -8.452   4.061  74.537  1.00  0.00    -0.091 OA 
HETATM   38  H   UNL     1      -8.513   3.114  74.488  1.00  0.00     0.000 HD 
ENDBRANCH  33  36
ENDBRANCH  32  33
ENDBRANCH  31  32
ENDBRANCH  16  28
ENDBRANCH   6   8
ENDBRANCH   3   4
ENDBRANCH   2   3
TORSDOF 11
ENDMDL
MODEL      134
REMARK 921   NORMALIZED FREE ENERGY PREDICTED BY IDOCK:   -1.07 KCAL/MOL
REMARK 922        TOTAL FREE ENERGY PREDICTED BY IDOCK:   -2.87 KCAL/MOL
REMARK 923 INTER-LIGAND FREE ENERGY PREDICTED BY IDOCK:   -4.60 KCAL/MOL
REMARK 924 INTRA-LIGAND FREE ENERGY PREDICTED BY IDOCK:    1.73 KCAL/MOL
REMARK 927      BINDING AFFINITY PREDICTED BY RF-SCORE:    0.00 PKD
ROOT
HETATM    1  C   UNL     1      -9.621   4.324  62.703  1.00  0.00    -0.132 C  
HETATM    2  O   UNL     1      -9.105   4.587  64.005  1.00  0.00    -0.147 OA 
ENDROOT
BRANCH   2   3
HETATM    3  C   UNL     1      -9.975   4.142  65.037  1.00  0.00    -0.208 C  
BRANCH   3   4
HETATM    4  C   UNL     1      -9.944   5.024  66.297  1.00  0.00    -0.224 C  
HETATM    5  O   UNL     1     -10.890   5.062  67.080  1.00  0.00    -0.074 OA 
HETATM    6  N   UNL     1      -8.754   5.739  66.475  1.00  0.00    -0.120 N  
HETATM    7  H   UNL     1      -8.004   5.704  65.784  1.00  0.00     0.000 HD 
BRANCH   6   8
HETATM    8  C   UNL     1      -8.635   6.518  67.664  1.00  0.00    -0.116 A  
HETATM    9  C   UNL     1      -9.076   7.865  67.699  1.00  0.00    -0.133 A  
HETATM   10  C   UNL     1      -9.235   8.556  68.936  1.00  0.00    -0.146 A  
HETATM   11  I   UNL     1      -9.520   8.767  65.797  1.00  0.00     0.086 I  
HETATM   12  C   UNL     1      -8.128   5.923  68.841  1.00  0.00    -0.103 A  
HETATM   13  C   UNL     1      -8.927   7.832  70.119  1.00  0.00    -0.146 A  
HETATM   14  I   UNL     1      -9.896   8.343  71.981  1.00  0.00    -0.383 I  
HETATM   15  I   UNL     1      -7.058   4.057  68.625  1.00  0.00    -0.055 I  
HETATM   16  C   UNL     1      -8.230   6.593  70.074  1.00  0.00    -0.130 A  
BRANCH  10  17
HETATM   17  C   UNL     1      -9.845   9.936  68.945  1.00  0.00    -0.176 C  
HETATM   18  O   UNL     1     -11.015  10.022  69.321  1.00  0.00    -0.223 OA 
HETATM   19  C   UNL     1      -7.750  11.190  68.155  1.00  0.00    -0.107 C  
HETATM   20  N   UNL     1      -9.164  11.083  68.494  1.00  0.00    -0.171 N  
BRANCH  20  21
HETATM   21  C   UNL     1      -9.930  12.351  68.338  1.00  0.00    -0.210 C  
BRANCH  21  22
HETATM   22  C   UNL     1      -9.678  13.042  66.973  1.00  0.00    -0.235 C  
HETATM   23  H   UNL     1     -10.109  12.715  65.063  1.00  0.00     0.000 HD 
HETATM   24  O   UNL     1     -10.264  12.291  65.899  1.00  0.00    -0.238 OA 
BRANCH  22  25
HETATM   25  C   UNL     1     -10.243  14.469  66.914  1.00  0.00    -0.264 C  
HETATM   26  H   UNL     1     -11.847  15.432  67.548  1.00  0.00     0.000 HD 
HETATM   27  O   UNL     1     -11.497  14.550  67.584  1.00  0.00    -0.320 OA 
ENDBRANCH  22  25
ENDBRANCH  21  22
ENDBRANCH  20  21
ENDBRANCH  10  17
BRANCH  16  28
HETATM   28  C   UNL     1      -7.578   6.021  71.294  1.00  0.00    -0.094 C  
HETATM   29  H   UNL     1      -7.287   4.175  70.339  1.00  0.00     0.000 HD 
HETATM   30  O   UNL     1      -7.442   6.668  72.318  1.00  0.00    -0.092 OA 
HETATM   31  N   UNL     1      -7.204   4.680  71.221  1.00  0.00    -0.050 N  
BRANCH  31  32
HETATM   32  C   UNL     1      -6.694   4.000  72.405  1.00  0.00    -0.036 C  
BRANCH  32  33
HETATM   33  C   UNL     1      -7.809   3.362  73.240  1.00  0.00    -0.069 C  
HETATM   34  O   UNL     1      -7.800   3.946  74.551  1.00  0.00    -0.082 OA 
HETATM   35  H   UNL     1      -8.492   3.550  75.069  1.00  0.00     0.000 HD 
BRANCH  33  36
HETATM   36  C   UNL     1      -9.181   3.550  72.571  1.00  0.00    -0.102 C  
HETATM   37  O   UNL     1      -9.769   2.301  72.213  1.00  0.00    -0.101 OA 
HETATM   38  H   UNL     1     -10.617   2.418  71.800  1.00  0.00     0.000 HD 
ENDBRANCH  33  36
ENDBRANCH  32  33
ENDBRANCH  31  32
ENDBRANCH  16  28
ENDBRANCH   6   8
ENDBRANCH   3   4
ENDBRANCH   2   3
TORSDOF 11
ENDMDL
MODEL      135
REMARK 921   NORMALIZED FREE ENERGY PREDICTED BY IDOCK:   -1.02 KCAL/MOL
REMARK 922        TOTAL FREE ENERGY PREDICTED BY IDOCK:   -2.80 KCAL/MOL
REMARK 923 INTER-LIGAND FREE ENERGY PREDICTED BY IDOCK:   -4.22 KCAL/MOL
REMARK 924 INTRA-LIGAND FREE ENERGY PREDICTED BY IDOCK:    1.42 KCAL/MOL
REMARK 927      BINDING AFFINITY PREDICTED BY RF-SCORE:    0.00 PKD
ROOT
HETATM    1  C   UNL     1     -10.669  12.945  64.079  1.00  0.00    -0.399 C  
HETATM    2  O   UNL     1     -10.155  12.153  65.146  1.00  0.00    -0.262 OA 
ENDROOT
BRANCH   2   3
HETATM    3  C   UNL     1      -9.573  10.938  64.692  1.00  0.00    -0.257 C  
BRANCH   3   4
HETATM    4  C   UNL     1      -9.559   9.824  65.753  1.00  0.00    -0.254 C  
HETATM    5  O   UNL     1     -10.596   9.296  66.146  1.00  0.00    -0.052 OA 
HETATM    6  N   UNL     1      -8.282   9.461  66.195  1.00  0.00    -0.110 N  
HETATM    7  H   UNL     1      -7.447   9.947  65.867  1.00  0.00     0.000 HD 
BRANCH   6   8
HETATM    8  C   UNL     1      -8.198   8.381  67.124  1.00  0.00    -0.108 A  
HETATM    9  C   UNL     1      -8.464   8.584  68.502  1.00  0.00    -0.131 A  
HETATM   10  C   UNL     1      -8.671   7.482  69.382  1.00  0.00    -0.137 A  
HETATM   11  I   UNL     1      -8.572  10.632  69.156  1.00  0.00     0.042 I  
HETATM   12  C   UNL     1      -7.908   7.079  66.658  1.00  0.00    -0.106 A  
HETATM   13  C   UNL     1      -8.593   6.183  68.813  1.00  0.00    -0.120 A  
HETATM   14  I   UNL     1      -9.692   4.547  69.699  1.00  0.00    -0.174 I  
HETATM   15  I   UNL     1      -7.069   6.903  64.673  1.00  0.00    -0.076 I  
HETATM   16  C   UNL     1      -8.061   5.971  67.511  1.00  0.00    -0.102 A  
BRANCH  10  17
HETATM   17  C   UNL     1      -9.095   7.737  70.808  1.00  0.00    -0.149 C  
HETATM   18  O   UNL     1     -10.271   8.062  70.986  1.00  0.00    -0.190 OA 
HETATM   19  C   UNL     1      -6.838   7.177  71.893  1.00  0.00    -0.059 C  
HETATM   20  N   UNL     1      -8.207   7.678  71.900  1.00  0.00    -0.104 N  
BRANCH  20  21
HETATM   21  C   UNL     1      -8.677   8.162  73.227  1.00  0.00    -0.246 C  
BRANCH  21  22
HETATM   22  C   UNL     1      -9.350   7.048  74.070  1.00  0.00    -0.238 C  
HETATM   23  H   UNL     1     -11.191   6.437  74.490  1.00  0.00     0.000 HD 
HETATM   24  O   UNL     1     -10.780   7.120  73.973  1.00  0.00    -0.283 OA 
BRANCH  22  25
HETATM   25  C   UNL     1      -8.918   5.636  73.645  1.00  0.00    -0.124 C  
HETATM   26  H   UNL     1      -9.772   3.888  73.307  1.00  0.00     0.000 HD 
HETATM   27  O   UNL     1     -10.038   4.760  73.570  1.00  0.00    -0.147 OA 
ENDBRANCH  22  25
ENDBRANCH  21  22
ENDBRANCH  20  21
ENDBRANCH  10  17
BRANCH  16  28
HETATM   28  C   UNL     1      -7.629   4.611  67.058  1.00  0.00    -0.086 C  
HETATM   29  H   UNL     1      -9.405   3.749  67.771  1.00  0.00     0.000 HD 
HETATM   30  O   UNL     1      -6.552   4.422  66.517  1.00  0.00    -0.047 OA 
HETATM   31  N   UNL     1      -8.492   3.558  67.359  1.00  0.00    -0.094 N  
BRANCH  31  32
HETATM   32  C   UNL     1      -8.088   2.185  67.085  1.00  0.00    -0.068 C  
BRANCH  32  33
HETATM   33  C   UNL     1      -7.277   1.572  68.231  1.00  0.00    -0.039 C  
HETATM   34  O   UNL     1      -6.013   2.246  68.318  1.00  0.00    -0.023 OA 
HETATM   35  H   UNL     1      -5.510   1.866  69.029  1.00  0.00     0.000 HD 
BRANCH  33  36
HETATM   36  C   UNL     1      -8.038   1.671  69.564  1.00  0.00    -0.044 C  
HETATM   37  O   UNL     1      -7.211   2.185  70.606  1.00  0.00    -0.033 OA 
HETATM   38  H   UNL     1      -7.682   2.246  71.429  1.00  0.00     0.000 HD 
ENDBRANCH  33  36
ENDBRANCH  32  33
ENDBRANCH  31  32
ENDBRANCH  16  28
ENDBRANCH   6   8
ENDBRANCH   3   4
ENDBRANCH   2   3
TORSDOF 11
ENDMDL
MODEL      136
REMARK 921   NORMALIZED FREE ENERGY PREDICTED BY IDOCK:   -0.91 KCAL/MOL
REMARK 922        TOTAL FREE ENERGY PREDICTED BY IDOCK:   -2.62 KCAL/MOL
REMARK 923 INTER-LIGAND FREE ENERGY PREDICTED BY IDOCK:   -2.35 KCAL/MOL
REMARK 924 INTRA-LIGAND FREE ENERGY PREDICTED BY IDOCK:   -0.27 KCAL/MOL
REMARK 927      BINDING AFFINITY PREDICTED BY RF-SCORE:    0.00 PKD
ROOT
HETATM    1  C   UNL     1      -5.530   7.013  70.619  1.00  0.00    -0.024 C  
HETATM    2  O   UNL     1      -5.717   8.009  69.617  1.00  0.00    -0.026 OA 
ENDROOT
BRANCH   2   3
HETATM    3  C   UNL     1      -5.743   9.325  70.154  1.00  0.00    -0.031 C  
BRANCH   3   4
HETATM    4  C   UNL     1      -6.838  10.219  69.548  1.00  0.00    -0.084 C  
HETATM    5  O   UNL     1      -8.010  10.135  69.907  1.00  0.00    -0.169 OA 
HETATM    6  N   UNL     1      -6.378  11.133  68.593  1.00  0.00    -0.044 N  
HETATM    7  H   UNL     1      -5.401  11.149  68.299  1.00  0.00     0.000 HD 
BRANCH   6   8
HETATM    8  C   UNL     1      -7.334  12.042  68.049  1.00  0.00    -0.102 A  
HETATM    9  C   UNL     1      -7.887  11.832  66.761  1.00  0.00    -0.103 A  
HETATM   10  C   UNL     1      -9.040  12.550  66.328  1.00  0.00    -0.074 A  
HETATM   11  I   UNL     1      -6.910  10.353  65.539  1.00  0.00     0.001 I  
HETATM   12  C   UNL     1      -7.783  13.132  68.828  1.00  0.00    -0.006 A  
HETATM   13  C   UNL     1      -9.596  13.481  67.244  1.00  0.00    -0.235 A  
HETATM   14  I   UNL     1     -11.702  13.960  67.152  1.00  0.00    -0.448 I  
HETATM   15  I   UNL     1      -6.600  13.669  70.555  1.00  0.00     1.105 I  
HETATM   16  C   UNL     1      -8.893  13.890  68.411  1.00  0.00    -0.177 A  
BRANCH  10  17
HETATM   17  C   UNL     1      -9.687  12.196  65.011  1.00  0.00    -0.091 C  
HETATM   18  O   UNL     1      -9.293  12.810  64.018  1.00  0.00     0.271 OA 
HETATM   19  C   UNL     1     -11.221  10.352  65.922  1.00  0.00     0.680 C  
HETATM   20  N   UNL     1     -10.735  11.263  64.893  1.00  0.00    -0.294 N  
BRANCH  20  21
HETATM   21  C   UNL     1     -11.447  11.153  63.590  1.00  0.00     0.291 C  
BRANCH  21  22
HETATM   22  C   UNL     1     -12.618  12.162  63.458  1.00  0.00    -0.506 C  
HETATM   23  H   UNL     1     -13.863  13.128  64.665  1.00  0.00     0.000 HD 
HETATM   24  O   UNL     1     -13.146  12.510  64.747  1.00  0.00    -0.853 OA 
BRANCH  22  25
HETATM   25  C   UNL     1     -12.207  13.462  62.750  1.00  0.00     0.977 C  
HETATM   26  H   UNL     1     -12.649  15.384  62.854  1.00  0.00     0.000 HD 
HETATM   27  O   UNL     1     -12.903  14.581  63.291  1.00  0.00    -0.313 OA 
ENDBRANCH  22  25
ENDBRANCH  21  22
ENDBRANCH  20  21
ENDBRANCH  10  17
BRANCH  16  28
HETATM   28  C   UNL     1      -9.286  15.121  69.167  1.00  0.00    -0.215 C  
HETATM   29  H   UNL     1     -10.498  14.003  70.465  1.00  0.00     0.000 HD 
HETATM   30  O   UNL     1      -8.877  16.228  68.857  1.00  0.00    -0.231 OA 
HETATM   31  N   UNL     1     -10.208  14.943  70.197  1.00  0.00     0.033 N  
BRANCH  31  32
HETATM   32  C   UNL     1     -10.756  16.101  70.892  1.00  0.00     0.269 C  
BRANCH  32  33
HETATM   33  C   UNL     1     -12.156  15.838  71.455  1.00  0.00    -0.438 C  
HETATM   34  O   UNL     1     -13.107  15.897  70.381  1.00  0.00    -0.712 OA 
HETATM   35  H   UNL     1     -13.976  15.735  70.730  1.00  0.00     0.000 HD 
BRANCH  33  36
HETATM   36  C   UNL     1     -12.223  14.476  72.165  1.00  0.00    -0.219 C  
HETATM   37  O   UNL     1     -13.232  14.454  73.171  1.00  0.00    -0.591 OA 
HETATM   38  H   UNL     1     -13.274  13.612  73.610  1.00  0.00     0.000 HD 
ENDBRANCH  33  36
ENDBRANCH  32  33
ENDBRANCH  31  32
ENDBRANCH  16  28
ENDBRANCH   6   8
ENDBRANCH   3   4
ENDBRANCH   2   3
TORSDOF 11
ENDMDL
MODEL      137
REMARK 921   NORMALIZED FREE ENERGY PREDICTED BY IDOCK:   -0.86 KCAL/MOL
REMARK 922        TOTAL FREE ENERGY PREDICTED BY IDOCK:   -2.54 KCAL/MOL
REMARK 923 INTER-LIGAND FREE ENERGY PREDICTED BY IDOCK:   -4.03 KCAL/MOL
REMARK 924 INTRA-LIGAND FREE ENERGY PREDICTED BY IDOCK:    1.50 KCAL/MOL
REMARK 927      BINDING AFFINITY PREDICTED BY RF-SCORE:    0.00 PKD
ROOT
HETATM    1  C   UNL     1      -8.791  10.757  62.687  1.00  0.00    -0.286 C  
HETATM    2  O   UNL     1      -9.636  10.824  63.832  1.00  0.00    -0.240 OA 
ENDROOT
BRANCH   2   3
HETATM    3  C   UNL     1      -9.624   9.621  64.589  1.00  0.00    -0.077 C  
BRANCH   3   4
HETATM    4  C   UNL     1      -9.398   9.839  66.095  1.00  0.00    -0.191 C  
HETATM    5  O   UNL     1     -10.229  10.411  66.796  1.00  0.00    -0.209 OA 
HETATM    6  N   UNL     1      -8.196   9.311  66.583  1.00  0.00    -0.114 N  
HETATM    7  H   UNL     1      -7.517   8.871  65.962  1.00  0.00     0.000 HD 
BRANCH   6   8
HETATM    8  C   UNL     1      -7.963   9.416  67.987  1.00  0.00    -0.092 A  
HETATM    9  C   UNL     1      -8.429   8.418  68.879  1.00  0.00    -0.124 A  
HETATM   10  C   UNL     1      -7.960   8.355  70.224  1.00  0.00    -0.102 A  
HETATM   11  I   UNL     1      -9.838   7.006  68.071  1.00  0.00    -0.198 I  
HETATM   12  C   UNL     1      -7.203  10.496  68.489  1.00  0.00    -0.085 A  
HETATM   13  C   UNL     1      -7.013   9.337  70.619  1.00  0.00    -0.101 A  
HETATM   14  I   UNL     1      -5.601   8.903  72.196  1.00  0.00    -0.043 I  
HETATM   15  I   UNL     1      -6.920  12.198  67.187  1.00  0.00     0.075 I  
HETATM   16  C   UNL     1      -6.757  10.488  69.824  1.00  0.00    -0.126 A  
BRANCH  10  17
HETATM   17  C   UNL     1      -8.365   7.195  71.100  1.00  0.00    -0.113 C  
HETATM   18  O   UNL     1      -9.290   7.393  71.890  1.00  0.00    -0.137 OA 
HETATM   19  C   UNL     1      -6.695   5.500  70.137  1.00  0.00    -0.047 C  
HETATM   20  N   UNL     1      -7.701   5.952  71.091  1.00  0.00    -0.107 N  
BRANCH  20  21
HETATM   21  C   UNL     1      -8.037   4.958  72.147  1.00  0.00    -0.111 C  
BRANCH  21  22
HETATM   22  C   UNL     1      -9.197   4.014  71.737  1.00  0.00    -0.128 C  
HETATM   23  H   UNL     1      -9.558   2.062  71.709  1.00  0.00     0.000 HD 
HETATM   24  O   UNL     1      -8.846   2.640  71.961  1.00  0.00    -0.072 OA 
BRANCH  22  25
HETATM   25  C   UNL     1     -10.497   4.300  72.504  1.00  0.00    -0.152 C  
HETATM   26  H   UNL     1     -12.000   5.578  72.406  1.00  0.00     0.000 HD 
HETATM   27  O   UNL     1     -11.196   5.401  71.932  1.00  0.00    -0.179 OA 
ENDBRANCH  22  25
ENDBRANCH  21  22
ENDBRANCH  20  21
ENDBRANCH  10  17
BRANCH  16  28
HETATM   28  C   UNL     1      -6.066  11.689  70.390  1.00  0.00    -0.074 C  
HETATM   29  H   UNL     1      -7.322  12.984  69.318  1.00  0.00     0.000 HD 
HETATM   30  O   UNL     1      -5.126  11.591  71.161  1.00  0.00    -0.113 OA 
HETATM   31  N   UNL     1      -6.506  12.928  69.927  1.00  0.00    -0.023 N  
BRANCH  31  32
HETATM   32  C   UNL     1      -5.799  14.143  70.312  1.00  0.00    -0.147 C  
BRANCH  32  33
HETATM   33  C   UNL     1      -6.426  15.403  69.708  1.00  0.00    -0.171 C  
HETATM   34  O   UNL     1      -5.672  15.786  68.548  1.00  0.00    -0.096 OA 
HETATM   35  H   UNL     1      -6.061  16.569  68.173  1.00  0.00     0.000 HD 
BRANCH  33  36
HETATM   36  C   UNL     1      -7.902  15.169  69.344  1.00  0.00    -0.208 C  
HETATM   37  O   UNL     1      -8.559  16.387  68.999  1.00  0.00    -0.245 OA 
HETATM   38  H   UNL     1      -9.471  16.242  68.774  1.00  0.00     0.000 HD 
ENDBRANCH  33  36
ENDBRANCH  32  33
ENDBRANCH  31  32
ENDBRANCH  16  28
ENDBRANCH   6   8
ENDBRANCH   3   4
ENDBRANCH   2   3
TORSDOF 11
ENDMDL
MODEL      138
REMARK 921   NORMALIZED FREE ENERGY PREDICTED BY IDOCK:   -0.78 KCAL/MOL
REMARK 922        TOTAL FREE ENERGY PREDICTED BY IDOCK:   -2.40 KCAL/MOL
REMARK 923 INTER-LIGAND FREE ENERGY PREDICTED BY IDOCK:   -2.80 KCAL/MOL
REMARK 924 INTRA-LIGAND FREE ENERGY PREDICTED BY IDOCK:    0.40 KCAL/MOL
REMARK 927      BINDING AFFINITY PREDICTED BY RF-SCORE:    0.00 PKD
ROOT
HETATM    1  C   UNL     1      -5.127  12.486  67.280  1.00  0.00    -0.016 C  
HETATM    2  O   UNL     1      -6.081  12.688  66.241  1.00  0.00     0.836 OA 
ENDROOT
BRANCH   2   3
HETATM    3  C   UNL     1      -6.528  11.467  65.666  1.00  0.00     0.876 C  
BRANCH   3   4
HETATM    4  C   UNL     1      -7.870  10.971  66.230  1.00  0.00    -0.141 C  
HETATM    5  O   UNL     1      -8.840  10.770  65.503  1.00  0.00    -0.182 OA 
HETATM    6  N   UNL     1      -7.872  10.751  67.613  1.00  0.00    -0.108 N  
HETATM    7  H   UNL     1      -7.055  10.961  68.186  1.00  0.00     0.000 HD 
BRANCH   6   8
HETATM    8  C   UNL     1      -9.066  10.219  68.185  1.00  0.00    -0.136 A  
HETATM    9  C   UNL     1      -9.238   8.821  68.343  1.00  0.00    -0.137 A  
HETATM   10  C   UNL     1     -10.277   8.295  69.166  1.00  0.00    -0.223 A  
HETATM   11  I   UNL     1      -7.827   7.569  67.306  1.00  0.00    -0.121 I  
HETATM   12  C   UNL     1     -10.065  11.099  68.658  1.00  0.00    -0.200 A  
HETATM   13  C   UNL     1     -11.123   9.236  69.809  1.00  0.00    -0.150 A  
HETATM   14  I   UNL     1     -12.094   8.720  71.670  1.00  0.00    -0.478 I  
HETATM   15  I   UNL     1      -9.974  13.153  67.989  1.00  0.00    -0.234 I  
HETATM   16  C   UNL     1     -11.128  10.609  69.440  1.00  0.00    -0.315 A  
BRANCH  10  17
HETATM   17  C   UNL     1     -10.339   6.810  69.428  1.00  0.00    -0.199 C  
HETATM   18  O   UNL     1     -11.249   6.188  68.876  1.00  0.00    -0.372 OA 
HETATM   19  C   UNL     1      -8.256   6.685  70.920  1.00  0.00    -0.124 C  
HETATM   20  N   UNL     1      -9.460   6.143  70.303  1.00  0.00    -0.159 N  
BRANCH  20  21
HETATM   21  C   UNL     1      -9.748   4.726  70.659  1.00  0.00    -0.200 C  
BRANCH  21  22
HETATM   22  C   UNL     1      -8.803   3.723  69.947  1.00  0.00    -0.088 C  
HETATM   23  H   UNL     1      -6.980   2.986  70.214  1.00  0.00     0.000 HD 
HETATM   24  O   UNL     1      -7.558   3.601  70.651  1.00  0.00    -0.040 OA 
BRANCH  22  25
HETATM   25  C   UNL     1      -9.413   2.319  69.819  1.00  0.00    -0.045 C  
HETATM   26  H   UNL     1      -9.342   0.601  70.791  1.00  0.00     0.000 HD 
HETATM   27  O   UNL     1      -8.965   1.469  70.870  1.00  0.00    -0.057 OA 
ENDBRANCH  22  25
ENDBRANCH  21  22
ENDBRANCH  20  21
ENDBRANCH  10  17
BRANCH  16  28
HETATM   28  C   UNL     1     -12.252  11.518  69.829  1.00  0.00    -0.244 C  
HETATM   29  H   UNL     1     -10.950  12.752  70.918  1.00  0.00     0.000 HD 
HETATM   30  O   UNL     1     -13.402  11.309  69.480  1.00  0.00     0.657 OA 
HETATM   31  N   UNL     1     -11.925  12.573  70.679  1.00  0.00    -0.229 N  
BRANCH  31  32
HETATM   32  C   UNL     1     -12.977  13.422  71.224  1.00  0.00    -0.287 C  
BRANCH  32  33
HETATM   33  C   UNL     1     -13.426  14.505  70.238  1.00  0.00     0.472 C  
HETATM   34  O   UNL     1     -14.348  15.383  70.901  1.00  0.00    -0.844 OA 
HETATM   35  H   UNL     1     -14.627  16.055  70.290  1.00  0.00     0.000 HD 
BRANCH  33  36
HETATM   36  C   UNL     1     -12.223  15.293  69.693  1.00  0.00    -0.271 C  
HETATM   37  O   UNL     1     -12.616  16.561  69.172  1.00  0.00    -0.043 OA 
HETATM   38  H   UNL     1     -11.873  17.048  68.835  1.00  0.00     0.000 HD 
ENDBRANCH  33  36
ENDBRANCH  32  33
ENDBRANCH  31  32
ENDBRANCH  16  28
ENDBRANCH   6   8
ENDBRANCH   3   4
ENDBRANCH   2   3
TORSDOF 11
ENDMDL
MODEL      139
REMARK 921   NORMALIZED FREE ENERGY PREDICTED BY IDOCK:   -0.72 KCAL/MOL
REMARK 922        TOTAL FREE ENERGY PREDICTED BY IDOCK:   -2.30 KCAL/MOL
REMARK 923 INTER-LIGAND FREE ENERGY PREDICTED BY IDOCK:   -4.18 KCAL/MOL
REMARK 924 INTRA-LIGAND FREE ENERGY PREDICTED BY IDOCK:    1.88 KCAL/MOL
REMARK 927      BINDING AFFINITY PREDICTED BY RF-SCORE:    0.00 PKD
ROOT
HETATM    1  C   UNL     1     -11.736   5.164  73.186  1.00  0.00    -0.109 C  
HETATM    2  O   UNL     1     -11.128   4.007  72.619  1.00  0.00     0.001 OA 
ENDROOT
BRANCH   2   3
HETATM    3  C   UNL     1      -9.708   4.068  72.649  1.00  0.00    -0.145 C  
BRANCH   3   4
HETATM    4  C   UNL     1      -9.112   5.129  71.708  1.00  0.00    -0.138 C  
HETATM    5  O   UNL     1      -7.975   5.566  71.867  1.00  0.00    -0.110 OA 
HETATM    6  N   UNL     1      -9.959   5.518  70.664  1.00  0.00    -0.194 N  
HETATM    7  H   UNL     1     -10.910   5.155  70.586  1.00  0.00     0.000 HD 
BRANCH   6   8
HETATM    8  C   UNL     1      -9.437   6.446  69.714  1.00  0.00    -0.152 A  
HETATM    9  C   UNL     1      -8.761   5.995  68.552  1.00  0.00    -0.110 A  
HETATM   10  C   UNL     1      -8.496   6.878  67.464  1.00  0.00    -0.122 A  
HETATM   11  I   UNL     1      -8.208   3.915  68.524  1.00  0.00    -0.097 I  
HETATM   12  C   UNL     1      -9.649   7.830  69.900  1.00  0.00    -0.164 A  
HETATM   13  C   UNL     1      -8.937   8.220  67.607  1.00  0.00    -0.135 A  
HETATM   14  I   UNL     1      -9.418   9.392  65.856  1.00  0.00    -0.312 I  
HETATM   15  I   UNL     1     -10.256   8.483  71.870  1.00  0.00    -0.389 I  
HETATM   16  C   UNL     1      -9.360   8.737  68.863  1.00  0.00    -0.145 A  
BRANCH  10  17
HETATM   17  C   UNL     1      -7.908   6.331  66.187  1.00  0.00    -0.105 C  
HETATM   18  O   UNL     1      -8.701   5.859  65.370  1.00  0.00    -0.153 OA 
HETATM   19  C   UNL     1      -5.466   6.920  66.710  1.00  0.00    -0.018 C  
HETATM   20  N   UNL     1      -6.523   6.287  65.932  1.00  0.00    -0.045 N  
BRANCH  20  21
HETATM   21  C   UNL     1      -6.042   5.528  64.745  1.00  0.00    -0.022 C  
BRANCH  21  22
HETATM   22  C   UNL     1      -5.561   6.451  63.595  1.00  0.00    -0.022 C  
HETATM   23  H   UNL     1      -5.228   6.308  61.644  1.00  0.00     0.000 HD 
HETATM   24  O   UNL     1      -5.523   5.742  62.348  1.00  0.00    -0.014 OA 
BRANCH  22  25
HETATM   25  C   UNL     1      -6.456   7.686  63.409  1.00  0.00    -0.058 C  
HETATM   26  H   UNL     1      -6.226   9.630  63.145  1.00  0.00     0.000 HD 
HETATM   27  O   UNL     1      -5.673   8.867  63.261  1.00  0.00    -0.072 OA 
ENDBRANCH  22  25
ENDBRANCH  21  22
ENDBRANCH  20  21
ENDBRANCH  10  17
BRANCH  16  28
HETATM   28  C   UNL     1      -9.460  10.210  69.107  1.00  0.00    -0.206 C  
HETATM   29  H   UNL     1      -8.798  10.632  67.160  1.00  0.00     0.000 HD 
HETATM   30  O   UNL     1      -9.817  10.665  70.181  1.00  0.00     0.181 OA 
HETATM   31  N   UNL     1      -9.048  11.037  68.062  1.00  0.00    -0.147 N  
BRANCH  31  32
HETATM   32  C   UNL     1      -8.975  12.479  68.260  1.00  0.00    -0.178 C  
BRANCH  32  33
HETATM   33  C   UNL     1      -9.561  13.263  67.082  1.00  0.00    -0.240 C  
HETATM   34  O   UNL     1     -10.882  12.772  66.809  1.00  0.00    -0.257 OA 
HETATM   35  H   UNL     1     -11.246  13.258  66.077  1.00  0.00     0.000 HD 
BRANCH  33  36
HETATM   36  C   UNL     1      -9.593  14.771  67.380  1.00  0.00    -0.210 C  
HETATM   37  O   UNL     1      -9.473  15.546  66.188  1.00  0.00    -0.288 OA 
HETATM   38  H   UNL     1      -9.493  16.478  66.372  1.00  0.00     0.000 HD 
ENDBRANCH  33  36
ENDBRANCH  32  33
ENDBRANCH  31  32
ENDBRANCH  16  28
ENDBRANCH   6   8
ENDBRANCH   3   4
ENDBRANCH   2   3
TORSDOF 11
ENDMDL
MODEL      140
REMARK 921   NORMALIZED FREE ENERGY PREDICTED BY IDOCK:   -0.70 KCAL/MOL
REMARK 922        TOTAL FREE ENERGY PREDICTED BY IDOCK:   -2.27 KCAL/MOL
REMARK 923 INTER-LIGAND FREE ENERGY PREDICTED BY IDOCK:   -4.12 KCAL/MOL
REMARK 924 INTRA-LIGAND FREE ENERGY PREDICTED BY IDOCK:    1.85 KCAL/MOL
REMARK 927      BINDING AFFINITY PREDICTED BY RF-SCORE:    0.00 PKD
ROOT
HETATM    1  C   UNL     1     -11.497   4.014  72.778  1.00  0.00     0.332 C  
HETATM    2  O   UNL     1     -11.210   4.202  74.161  1.00  0.00    -0.147 OA 
ENDROOT
BRANCH   2   3
HETATM    3  C   UNL     1     -10.062   5.013  74.375  1.00  0.00    -0.242 C  
BRANCH   3   4
HETATM    4  C   UNL     1      -9.388   5.487  73.075  1.00  0.00    -0.136 C  
HETATM    5  O   UNL     1      -8.204   5.812  73.045  1.00  0.00    -0.117 OA 
HETATM    6  N   UNL     1     -10.226   5.485  71.954  1.00  0.00    -0.193 N  
HETATM    7  H   UNL     1     -11.213   5.238  72.028  1.00  0.00     0.000 HD 
BRANCH   6   8
HETATM    8  C   UNL     1      -9.639   5.843  70.704  1.00  0.00    -0.173 A  
HETATM    9  C   UNL     1      -8.975   4.877  69.907  1.00  0.00    -0.099 A  
HETATM   10  C   UNL     1      -8.647   5.144  68.545  1.00  0.00    -0.094 A  
HETATM   11  I   UNL     1      -8.539   2.998  70.862  1.00  0.00    -0.149 I  
HETATM   12  C   UNL     1      -9.775   7.165  70.222  1.00  0.00    -0.175 A  
HETATM   13  C   UNL     1      -9.013   6.418  68.037  1.00  0.00    -0.115 A  
HETATM   14  I   UNL     1      -9.405   6.666  65.926  1.00  0.00     0.374 I  
HETATM   15  I   UNL     1     -10.371   8.680  71.644  1.00  0.00    -0.424 I  
HETATM   16  C   UNL     1      -9.423   7.475  68.896  1.00  0.00    -0.145 A  
BRANCH  10  17
HETATM   17  C   UNL     1      -8.074   4.043  67.687  1.00  0.00    -0.090 C  
HETATM   18  O   UNL     1      -8.854   3.161  67.325  1.00  0.00    -0.114 OA 
HETATM   19  C   UNL     1      -5.685   4.974  67.569  1.00  0.00    -0.017 C  
HETATM   20  N   UNL     1      -6.708   3.959  67.350  1.00  0.00    -0.046 N  
BRANCH  20  21
HETATM   21  C   UNL     1      -6.213   2.720  66.690  1.00  0.00    -0.024 C  
BRANCH  21  22
HETATM   22  C   UNL     1      -6.089   2.866  65.151  1.00  0.00    -0.019 C  
HETATM   23  H   UNL     1      -5.213   1.901  63.654  1.00  0.00     0.000 HD 
HETATM   24  O   UNL     1      -5.289   1.810  64.597  1.00  0.00    -0.004 OA 
BRANCH  22  25
HETATM   25  C   UNL     1      -7.450   2.851  64.440  1.00  0.00    -0.074 C  
HETATM   26  H   UNL     1      -8.873   1.543  64.035  1.00  0.00     0.000 HD 
HETATM   27  O   UNL     1      -8.031   1.552  64.475  1.00  0.00    -0.063 OA 
ENDBRANCH  22  25
ENDBRANCH  21  22
ENDBRANCH  20  21
ENDBRANCH  10  17
BRANCH  16  28
HETATM   28  C   UNL     1      -9.444   8.897  68.428  1.00  0.00    -0.140 C  
HETATM   29  H   UNL     1     -11.537   8.875  68.282  1.00  0.00     0.000 HD 
HETATM   30  O   UNL     1      -8.420   9.542  68.275  1.00  0.00    -0.118 OA 
HETATM   31  N   UNL     1     -10.694   9.419  68.102  1.00  0.00    -0.209 N  
BRANCH  31  32
HETATM   32  C   UNL     1     -10.796  10.744  67.503  1.00  0.00    -0.288 C  
BRANCH  32  33
HETATM   33  C   UNL     1     -11.403  11.775  68.460  1.00  0.00    -0.273 C  
HETATM   34  O   UNL     1     -10.412  12.150  69.428  1.00  0.00    -0.429 OA 
HETATM   35  H   UNL     1     -10.788  12.790  70.022  1.00  0.00     0.000 HD 
BRANCH  33  36
HETATM   36  C   UNL     1     -11.911  13.010  67.696  1.00  0.00    -0.351 C  
HETATM   37  O   UNL     1     -11.730  12.870  66.288  1.00  0.00    -0.358 OA 
HETATM   38  H   UNL     1     -12.044  13.633  65.816  1.00  0.00     0.000 HD 
ENDBRANCH  33  36
ENDBRANCH  32  33
ENDBRANCH  31  32
ENDBRANCH  16  28
ENDBRANCH   6   8
ENDBRANCH   3   4
ENDBRANCH   2   3
TORSDOF 11
ENDMDL
MODEL      141
REMARK 921   NORMALIZED FREE ENERGY PREDICTED BY IDOCK:   -0.38 KCAL/MOL
REMARK 922        TOTAL FREE ENERGY PREDICTED BY IDOCK:   -1.75 KCAL/MOL
REMARK 923 INTER-LIGAND FREE ENERGY PREDICTED BY IDOCK:   -5.03 KCAL/MOL
REMARK 924 INTRA-LIGAND FREE ENERGY PREDICTED BY IDOCK:    3.28 KCAL/MOL
REMARK 927      BINDING AFFINITY PREDICTED BY RF-SCORE:    0.00 PKD
ROOT
HETATM    1  C   UNL     1      -6.333   4.508  67.927  1.00  0.00    -0.037 C  
HETATM    2  O   UNL     1      -7.158   3.976  68.960  1.00  0.00    -0.049 OA 
ENDROOT
BRANCH   2   3
HETATM    3  C   UNL     1      -7.901   4.982  69.637  1.00  0.00    -0.067 C  
BRANCH   3   4
HETATM    4  C   UNL     1      -7.651   6.402  69.102  1.00  0.00    -0.100 C  
HETATM    5  O   UNL     1      -6.721   6.648  68.338  1.00  0.00    -0.059 OA 
HETATM    6  N   UNL     1      -8.578   7.356  69.536  1.00  0.00    -0.133 N  
HETATM    7  H   UNL     1      -9.318   7.117  70.197  1.00  0.00     0.000 HD 
BRANCH   6   8
HETATM    8  C   UNL     1      -8.444   8.678  69.015  1.00  0.00    -0.124 A  
HETATM    9  C   UNL     1      -9.202   9.099  67.894  1.00  0.00    -0.133 A  
HETATM   10  C   UNL     1      -9.299  10.478  67.546  1.00  0.00    -0.162 A  
HETATM   11  I   UNL     1     -10.209   7.547  66.793  1.00  0.00    -0.073 I  
HETATM   12  C   UNL     1      -7.591   9.600  69.662  1.00  0.00    -0.114 A  
HETATM   13  C   UNL     1      -8.601  11.398  68.372  1.00  0.00    -0.156 A  
HETATM   14  I   UNL     1      -9.305  13.433  68.558  1.00  0.00     0.144 I  
HETATM   15  I   UNL     1      -6.138   8.801  71.048  1.00  0.00    -0.062 I  
HETATM   16  C   UNL     1      -7.630  10.964  69.317  1.00  0.00    -0.113 A  
BRANCH  10  17
HETATM   17  C   UNL     1     -10.231  10.903  66.437  1.00  0.00    -0.238 C  
HETATM   18  O   UNL     1     -11.370  11.237  66.768  1.00  0.00    -0.357 OA 
HETATM   19  C   UNL     1      -8.544  10.646  64.520  1.00  0.00    -0.110 C  
HETATM   20  N   UNL     1      -9.873  10.872  65.075  1.00  0.00    -0.258 N  
BRANCH  20  21
HETATM   21  C   UNL     1     -10.934  11.097  64.055  1.00  0.00    -0.197 C  
BRANCH  21  22
HETATM   22  C   UNL     1     -11.094  12.592  63.674  1.00  0.00    -0.443 C  
HETATM   23  H   UNL     1     -12.379  13.716  62.662  1.00  0.00     0.000 HD 
HETATM   24  O   UNL     1     -12.281  12.800  62.895  1.00  0.00    -0.212 OA 
BRANCH  22  25
HETATM   25  C   UNL     1     -11.164  13.515  64.899  1.00  0.00    -0.342 C  
HETATM   26  H   UNL     1     -12.057  15.202  65.408  1.00  0.00     0.000 HD 
HETATM   27  O   UNL     1     -12.013  14.632  64.650  1.00  0.00    -0.431 OA 
ENDBRANCH  22  25
ENDBRANCH  21  22
ENDBRANCH  20  21
ENDBRANCH  10  17
BRANCH  16  28
HETATM   28  C   UNL     1      -6.638  11.915  69.908  1.00  0.00     0.030 C  
HETATM   29  H   UNL     1      -6.805  13.201  68.258  1.00  0.00     0.000 HD 
HETATM   30  O   UNL     1      -6.097  11.701  70.980  1.00  0.00    -0.321 OA 
HETATM   31  N   UNL     1      -6.306  13.022  69.129  1.00  0.00    -0.100 N  
BRANCH  31  32
HETATM   32  C   UNL     1      -5.245  13.924  69.559  1.00  0.00    -0.083 C  
BRANCH  32  33
HETATM   33  C   UNL     1      -5.704  15.384  69.620  1.00  0.00    -0.119 C  
HETATM   34  O   UNL     1      -5.249  15.963  70.852  1.00  0.00    -0.172 OA 
HETATM   35  H   UNL     1      -5.535  16.869  70.890  1.00  0.00     0.000 HD 
BRANCH  33  36
HETATM   36  C   UNL     1      -5.176  16.183  68.417  1.00  0.00    -0.100 C  
HETATM   37  O   UNL     1      -5.170  15.398  67.225  1.00  0.00    -0.335 OA 
HETATM   38  H   UNL     1      -4.844  15.892  66.482  1.00  0.00     0.000 HD 
ENDBRANCH  33  36
ENDBRANCH  32  33
ENDBRANCH  31  32
ENDBRANCH  16  28
ENDBRANCH   6   8
ENDBRANCH   3   4
ENDBRANCH   2   3
TORSDOF 11
ENDMDL
MODEL      142
REMARK 921   NORMALIZED FREE ENERGY PREDICTED BY IDOCK:   -0.37 KCAL/MOL
REMARK 922        TOTAL FREE ENERGY PREDICTED BY IDOCK:   -1.74 KCAL/MOL
REMARK 923 INTER-LIGAND FREE ENERGY PREDICTED BY IDOCK:   -3.81 KCAL/MOL
REMARK 924 INTRA-LIGAND FREE ENERGY PREDICTED BY IDOCK:    2.07 KCAL/MOL
REMARK 927      BINDING AFFINITY PREDICTED BY RF-SCORE:    0.00 PKD
ROOT
HETATM    1  C   UNL     1      -6.017   5.656  64.179  1.00  0.00    -0.025 C  
HETATM    2  O   UNL     1      -5.438   6.943  63.978  1.00  0.00    -0.027 OA 
ENDROOT
BRANCH   2   3
HETATM    3  C   UNL     1      -6.143   7.971  64.660  1.00  0.00    -0.049 C  
BRANCH   3   4
HETATM    4  C   UNL     1      -6.882   7.485  65.919  1.00  0.00    -0.057 C  
HETATM    5  O   UNL     1      -7.889   6.787  65.845  1.00  0.00    -0.093 OA 
HETATM    6  N   UNL     1      -6.294   7.883  67.126  1.00  0.00    -0.054 N  
HETATM    7  H   UNL     1      -5.475   8.490  67.144  1.00  0.00     0.000 HD 
BRANCH   6   8
HETATM    8  C   UNL     1      -6.891   7.401  68.329  1.00  0.00    -0.063 A  
HETATM    9  C   UNL     1      -7.704   8.244  69.127  1.00  0.00    -0.097 A  
HETATM   10  C   UNL     1      -8.533   7.710  70.156  1.00  0.00    -0.138 A  
HETATM   11  I   UNL     1      -7.635  10.345  68.662  1.00  0.00    -0.114 I  
HETATM   12  C   UNL     1      -6.720   6.048  68.700  1.00  0.00    -0.061 A  
HETATM   13  C   UNL     1      -8.498   6.302  70.340  1.00  0.00    -0.134 A  
HETATM   14  I   UNL     1     -10.218   5.276  71.153  1.00  0.00    -0.234 I  
HETATM   15  I   UNL     1      -5.130   4.949  67.733  1.00  0.00    -0.004 I  
HETATM   16  C   UNL     1      -7.492   5.496  69.739  1.00  0.00    -0.070 A  
BRANCH  10  17
HETATM   17  C   UNL     1      -9.494   8.617  70.885  1.00  0.00    -0.194 C  
HETATM   18  O   UNL     1      -9.143   9.015  71.998  1.00  0.00    -0.375 OA 
HETATM   19  C   UNL     1     -11.277   8.703  69.042  1.00  0.00     0.378 C  
HETATM   20  N   UNL     1     -10.763   8.962  70.381  1.00  0.00    -0.219 N  
BRANCH  20  21
HETATM   21  C   UNL     1     -11.714   9.677  71.276  1.00  0.00    -0.382 C  
BRANCH  21  22
HETATM   22  C   UNL     1     -12.690   8.718  72.006  1.00  0.00    -0.387 C  
HETATM   23  H   UNL     1     -14.551   8.768  72.695  1.00  0.00     0.000 HD 
HETATM   24  O   UNL     1     -13.953   9.356  72.248  1.00  0.00    -0.412 OA 
BRANCH  22  25
HETATM   25  C   UNL     1     -12.957   7.426  71.219  1.00  0.00    -0.310 C  
HETATM   26  H   UNL     1     -14.235   5.921  71.270  1.00  0.00     0.000 HD 
HETATM   27  O   UNL     1     -14.070   6.720  71.757  1.00  0.00    -0.245 OA 
ENDBRANCH  22  25
ENDBRANCH  21  22
ENDBRANCH  20  21
ENDBRANCH  10  17
BRANCH  16  28
HETATM   28  C   UNL     1      -7.219   4.104  70.217  1.00  0.00    -0.042 C  
HETATM   29  H   UNL     1      -8.595   3.306  68.848  1.00  0.00     0.000 HD 
HETATM   30  O   UNL     1      -6.430   3.873  71.118  1.00  0.00    -0.024 OA 
HETATM   31  N   UNL     1      -7.976   3.092  69.629  1.00  0.00    -0.045 N  
BRANCH  31  32
HETATM   32  C   UNL     1      -7.881   1.727  70.131  1.00  0.00    -0.042 C  
BRANCH  32  33
HETATM   33  C   UNL     1      -8.659   1.527  71.436  1.00  0.00    -0.047 C  
HETATM   34  O   UNL     1      -7.807   1.862  72.541  1.00  0.00    -0.043 OA 
HETATM   35  H   UNL     1      -8.289   1.738  73.350  1.00  0.00     0.000 HD 
BRANCH  33  36
HETATM   36  C   UNL     1      -9.937   2.382  71.457  1.00  0.00    -0.056 C  
HETATM   37  O   UNL     1     -10.386   2.627  72.788  1.00  0.00    -0.147 OA 
HETATM   38  H   UNL     1     -11.176   3.155  72.801  1.00  0.00     0.000 HD 
ENDBRANCH  33  36
ENDBRANCH  32  33
ENDBRANCH  31  32
ENDBRANCH  16  28
ENDBRANCH   6   8
ENDBRANCH   3   4
ENDBRANCH   2   3
TORSDOF 11
ENDMDL
MODEL      143
REMARK 921   NORMALIZED FREE ENERGY PREDICTED BY IDOCK:   -0.34 KCAL/MOL
REMARK 922        TOTAL FREE ENERGY PREDICTED BY IDOCK:   -1.69 KCAL/MOL
REMARK 923 INTER-LIGAND FREE ENERGY PREDICTED BY IDOCK:   -1.91 KCAL/MOL
REMARK 924 INTRA-LIGAND FREE ENERGY PREDICTED BY IDOCK:    0.22 KCAL/MOL
REMARK 927      BINDING AFFINITY PREDICTED BY RF-SCORE:    0.00 PKD
ROOT
HETATM    1  C   UNL     1     -10.689  13.439  64.449  1.00  0.00    -0.408 C  
HETATM    2  O   UNL     1     -10.818  12.537  65.544  1.00  0.00    -0.266 OA 
ENDROOT
BRANCH   2   3
HETATM    3  C   UNL     1     -10.920  11.182  65.127  1.00  0.00    -0.086 C  
BRANCH   3   4
HETATM    4  C   UNL     1     -10.340  10.178  66.137  1.00  0.00    -0.167 C  
HETATM    5  O   UNL     1     -10.945   9.872  67.161  1.00  0.00    -0.218 OA 
HETATM    6  N   UNL     1      -9.101   9.638  65.772  1.00  0.00    -0.171 N  
HETATM    7  H   UNL     1      -8.616   9.943  64.928  1.00  0.00     0.000 HD 
BRANCH   6   8
HETATM    8  C   UNL     1      -8.546   8.644  66.632  1.00  0.00    -0.117 A  
HETATM    9  C   UNL     1      -8.111   8.973  67.940  1.00  0.00    -0.106 A  
HETATM   10  C   UNL     1      -7.832   7.958  68.902  1.00  0.00    -0.117 A  
HETATM   11  I   UNL     1      -7.941  11.073  68.383  1.00  0.00    -0.149 I  
HETATM   12  C   UNL     1      -8.485   7.301  66.198  1.00  0.00    -0.142 A  
HETATM   13  C   UNL     1      -8.008   6.613  68.482  1.00  0.00    -0.118 A  
HETATM   14  I   UNL     1      -8.490   5.083  69.930  1.00  0.00    -0.115 I  
HETATM   15  I   UNL     1      -8.716   6.932  64.081  1.00  0.00     1.236 I  
HETATM   16  C   UNL     1      -8.172   6.275  67.110  1.00  0.00    -0.109 A  
BRANCH  10  17
HETATM   17  C   UNL     1      -7.515   8.347  70.325  1.00  0.00    -0.063 C  
HETATM   18  O   UNL     1      -8.412   8.902  70.961  1.00  0.00    -0.166 OA 
HETATM   19  C   UNL     1      -5.129   7.401  70.363  1.00  0.00    -0.023 C  
HETATM   20  N   UNL     1      -6.247   8.159  70.911  1.00  0.00    -0.033 N  
BRANCH  20  21
HETATM   21  C   UNL     1      -5.979   8.777  72.239  1.00  0.00    -0.076 C  
BRANCH  21  22
HETATM   22  C   UNL     1      -5.281  10.158  72.129  1.00  0.00     0.027 C  
HETATM   23  H   UNL     1      -5.493  11.826  71.074  1.00  0.00     0.000 HD 
HETATM   24  O   UNL     1      -5.920  10.980  71.141  1.00  0.00    -0.362 OA 
BRANCH  22  25
HETATM   25  C   UNL     1      -5.278  10.931  73.457  1.00  0.00     0.529 C  
HETATM   26  H   UNL     1      -5.712  10.582  75.351  1.00  0.00     0.000 HD 
HETATM   27  O   UNL     1      -5.714  10.104  74.531  1.00  0.00    -0.344 OA 
ENDBRANCH  22  25
ENDBRANCH  21  22
ENDBRANCH  20  21
ENDBRANCH  10  17
BRANCH  16  28
HETATM   28  C   UNL     1      -7.980   4.873  66.623  1.00  0.00    -0.103 C  
HETATM   29  H   UNL     1      -5.892   5.077  66.694  1.00  0.00     0.000 HD 
HETATM   30  O   UNL     1      -8.923   4.147  66.354  1.00  0.00    -0.115 OA 
HETATM   31  N   UNL     1      -6.662   4.467  66.419  1.00  0.00    -0.049 N  
BRANCH  31  32
HETATM   32  C   UNL     1      -6.385   3.172  65.811  1.00  0.00    -0.032 C  
BRANCH  32  33
HETATM   33  C   UNL     1      -5.522   3.287  64.551  1.00  0.00    -0.010 C  
HETATM   34  O   UNL     1      -5.549   2.033  63.853  1.00  0.00    -0.008 OA 
HETATM   35  H   UNL     1      -5.014   2.105  63.071  1.00  0.00     0.000 HD 
BRANCH  33  36
HETATM   36  C   UNL     1      -6.017   4.425  63.642  1.00  0.00    -0.018 C  
HETATM   37  O   UNL     1      -5.309   5.639  63.885  1.00  0.00    -0.013 OA 
HETATM   38  H   UNL     1      -5.614   6.342  63.323  1.00  0.00     0.000 HD 
ENDBRANCH  33  36
ENDBRANCH  32  33
ENDBRANCH  31  32
ENDBRANCH  16  28
ENDBRANCH   6   8
ENDBRANCH   3   4
ENDBRANCH   2   3
TORSDOF 11
ENDMDL
MODEL      144
REMARK 921   NORMALIZED FREE ENERGY PREDICTED BY IDOCK:   -0.08 KCAL/MOL
REMARK 922        TOTAL FREE ENERGY PREDICTED BY IDOCK:   -1.25 KCAL/MOL
REMARK 923 INTER-LIGAND FREE ENERGY PREDICTED BY IDOCK:   -2.55 KCAL/MOL
REMARK 924 INTRA-LIGAND FREE ENERGY PREDICTED BY IDOCK:    1.30 KCAL/MOL
REMARK 927      BINDING AFFINITY PREDICTED BY RF-SCORE:    0.00 PKD
ROOT
HETATM    1  C   UNL     1      -8.028   8.321  71.783  1.00  0.00    -0.128 C  
HETATM    2  O   UNL     1      -8.946   8.969  72.659  1.00  0.00    -0.238 OA 
ENDROOT
BRANCH   2   3
HETATM    3  C   UNL     1     -10.301   8.714  72.313  1.00  0.00    -0.306 C  
BRANCH   3   4
HETATM    4  C   UNL     1     -10.648   9.071  70.858  1.00  0.00    -0.250 C  
HETATM    5  O   UNL     1     -11.662   8.643  70.313  1.00  0.00    -0.103 OA 
HETATM    6  N   UNL     1      -9.734   9.932  70.239  1.00  0.00    -0.375 N  
HETATM    7  H   UNL     1      -8.886  10.240  70.716  1.00  0.00     0.000 HD 
BRANCH   6   8
HETATM    8  C   UNL     1     -10.039  10.360  68.913  1.00  0.00    -0.201 A  
HETATM    9  C   UNL     1     -10.684  11.600  68.678  1.00  0.00    -0.212 A  
HETATM   10  C   UNL     1     -10.731  12.170  67.372  1.00  0.00    -0.268 A  
HETATM   11  I   UNL     1     -11.539  12.566  70.401  1.00  0.00     0.898 I  
HETATM   12  C   UNL     1      -9.637   9.568  67.814  1.00  0.00    -0.133 A  
HETATM   13  C   UNL     1     -10.107  11.436  66.329  1.00  0.00    -0.224 A  
HETATM   14  I   UNL     1      -9.325  12.469  64.599  1.00  0.00     1.143 I  
HETATM   15  I   UNL     1      -9.089   7.516  68.220  1.00  0.00    -0.130 I  
HETATM   16  C   UNL     1      -9.708  10.082  66.506  1.00  0.00    -0.254 A  
BRANCH  10  17
HETATM   17  C   UNL     1     -11.297  13.557  67.185  1.00  0.00    -0.321 C  
HETATM   18  O   UNL     1     -12.503  13.636  66.947  1.00  0.00    -0.320 OA 
HETATM   19  C   UNL     1      -9.109  14.828  67.613  1.00  0.00    -0.185 C  
HETATM   20  N   UNL     1     -10.506  14.723  67.210  1.00  0.00    -0.262 N  
BRANCH  20  21
HETATM   21  C   UNL     1     -11.124  16.012  66.795  1.00  0.00    -0.022 C  
BRANCH  21  22
HETATM   22  C   UNL     1     -10.075  17.081  66.393  1.00  0.00    -0.317 C  
HETATM   23  H   UNL     1      -9.397  17.914  64.724  1.00  0.00     0.000 HD 
HETATM   24  O   UNL     1     -10.040  17.259  64.969  1.00  0.00    -0.090 OA 
BRANCH  22  25
HETATM   25  C   UNL     1     -10.344  18.450  67.034  1.00  0.00    -0.393 C  
HETATM   26  H   UNL     1     -11.333  19.168  68.586  1.00  0.00     0.000 HD 
HETATM   27  O   UNL     1     -11.166  18.321  68.190  1.00  0.00     0.097 OA 
ENDBRANCH  22  25
ENDBRANCH  21  22
ENDBRANCH  20  21
ENDBRANCH  10  17
BRANCH  16  28
HETATM   28  C   UNL     1      -9.407   9.199  65.336  1.00  0.00    -0.191 C  
HETATM   29  H   UNL     1      -7.844   8.261  66.378  1.00  0.00     0.000 HD 
HETATM   30  O   UNL     1     -10.030   9.275  64.291  1.00  0.00     0.786 OA 
HETATM   31  N   UNL     1      -8.320   8.337  65.479  1.00  0.00    -0.148 N  
BRANCH  31  32
HETATM   32  C   UNL     1      -7.865   7.544  64.343  1.00  0.00    -0.128 C  
BRANCH  32  33
HETATM   33  C   UNL     1      -6.485   7.979  63.841  1.00  0.00    -0.066 C  
HETATM   34  O   UNL     1      -5.782   6.824  63.357  1.00  0.00    -0.033 OA 
HETATM   35  H   UNL     1      -4.925   7.093  63.046  1.00  0.00     0.000 HD 
BRANCH  33  36
HETATM   36  C   UNL     1      -6.605   9.042  62.737  1.00  0.00    -0.094 C  
HETATM   37  O   UNL     1      -5.352   9.669  62.469  1.00  0.00    -0.082 OA 
HETATM   38  H   UNL     1      -5.427  10.326  61.787  1.00  0.00     0.000 HD 
ENDBRANCH  33  36
ENDBRANCH  32  33
ENDBRANCH  31  32
ENDBRANCH  16  28
ENDBRANCH   6   8
ENDBRANCH   3   4
ENDBRANCH   2   3
TORSDOF 11
ENDMDL
MODEL      145
REMARK 921   NORMALIZED FREE ENERGY PREDICTED BY IDOCK:    0.12 KCAL/MOL
REMARK 922        TOTAL FREE ENERGY PREDICTED BY IDOCK:   -0.93 KCAL/MOL
REMARK 923 INTER-LIGAND FREE ENERGY PREDICTED BY IDOCK:   -1.98 KCAL/MOL
REMARK 924 INTRA-LIGAND FREE ENERGY PREDICTED BY IDOCK:    1.05 KCAL/MOL
REMARK 927      BINDING AFFINITY PREDICTED BY RF-SCORE:    0.00 PKD
ROOT
HETATM    1  C   UNL     1      -7.107  14.550  69.816  1.00  0.00    -0.052 C  
HETATM    2  O   UNL     1      -6.478  14.985  68.613  1.00  0.00    -0.083 OA 
ENDROOT
BRANCH   2   3
HETATM    3  C   UNL     1      -6.465  13.978  67.610  1.00  0.00    -0.140 C  
BRANCH   3   4
HETATM    4  C   UNL     1      -7.074  12.641  68.066  1.00  0.00    -0.103 C  
HETATM    5  O   UNL     1      -8.197  12.580  68.560  1.00  0.00    -0.147 OA 
HETATM    6  N   UNL     1      -6.258  11.526  67.843  1.00  0.00    -0.050 N  
HETATM    7  H   UNL     1      -5.318  11.623  67.458  1.00  0.00     0.000 HD 
BRANCH   6   8
HETATM    8  C   UNL     1      -6.797  10.248  68.176  1.00  0.00    -0.066 A  
HETATM    9  C   UNL     1      -7.560   9.511  67.235  1.00  0.00    -0.091 A  
HETATM   10  C   UNL     1      -7.852   8.131  67.442  1.00  0.00    -0.106 A  
HETATM   11  I   UNL     1      -8.201  10.587  65.484  1.00  0.00    -0.064 I  
HETATM   12  C   UNL     1      -6.517   9.679  69.439  1.00  0.00    -0.044 A  
HETATM   13  C   UNL     1      -7.348   7.541  68.631  1.00  0.00    -0.095 A  
HETATM   14  I   UNL     1      -6.924   5.423  68.690  1.00  0.00    -0.063 I  
HETATM   15  I   UNL     1      -5.765  11.001  70.975  1.00  0.00     0.333 I  
HETATM   16  C   UNL     1      -6.829   8.331  69.694  1.00  0.00    -0.044 A  
BRANCH  10  17
HETATM   17  C   UNL     1      -8.539   7.343  66.353  1.00  0.00    -0.134 C  
HETATM   18  O   UNL     1      -9.709   7.017  66.559  1.00  0.00    -0.177 OA 
HETATM   19  C   UNL     1      -6.571   7.340  64.706  1.00  0.00    -0.040 C  
HETATM   20  N   UNL     1      -7.889   6.929  65.174  1.00  0.00    -0.113 N  
BRANCH  20  21
HETATM   21  C   UNL     1      -8.589   5.972  64.274  1.00  0.00     0.176 C  
BRANCH  21  22
HETATM   22  C   UNL     1      -8.388   4.493  64.694  1.00  0.00    -0.117 C  
HETATM   23  H   UNL     1      -7.131   3.448  65.819  1.00  0.00     0.000 HD 
HETATM   24  O   UNL     1      -7.254   4.354  65.563  1.00  0.00    -0.066 OA 
BRANCH  22  25
HETATM   25  C   UNL     1      -9.611   3.907  65.416  1.00  0.00    -0.185 C  
HETATM   26  H   UNL     1     -11.538   3.663  65.062  1.00  0.00     0.000 HD 
HETATM   27  O   UNL     1     -10.782   4.025  64.616  1.00  0.00    -0.260 OA 
ENDBRANCH  22  25
ENDBRANCH  21  22
ENDBRANCH  20  21
ENDBRANCH  10  17
BRANCH  16  28
HETATM   28  C   UNL     1      -6.652   7.768  71.069  1.00  0.00    -0.038 C  
HETATM   29  H   UNL     1      -4.661   7.247  70.659  1.00  0.00     0.000 HD 
HETATM   30  O   UNL     1      -7.559   7.758  71.885  1.00  0.00    -0.078 OA 
HETATM   31  N   UNL     1      -5.416   7.185  71.342  1.00  0.00    -0.031 N  
BRANCH  31  32
HETATM   32  C   UNL     1      -5.202   6.486  72.603  1.00  0.00    -0.036 C  
BRANCH  32  33
HETATM   33  C   UNL     1      -6.033   5.203  72.710  1.00  0.00    -0.026 C  
HETATM   34  O   UNL     1      -5.461   4.206  71.849  1.00  0.00     0.000 OA 
HETATM   35  H   UNL     1      -5.976   3.410  71.916  1.00  0.00     0.000 HD 
BRANCH  33  36
HETATM   36  C   UNL     1      -6.091   4.699  74.161  1.00  0.00    -0.041 C  
HETATM   37  O   UNL     1      -5.487   3.414  74.298  1.00  0.00     0.000 OA 
HETATM   38  H   UNL     1      -5.523   3.102  75.195  1.00  0.00     0.000 HD 
ENDBRANCH  33  36
ENDBRANCH  32  33
ENDBRANCH  31  32
ENDBRANCH  16  28
ENDBRANCH   6   8
ENDBRANCH   3   4
ENDBRANCH   2   3
TORSDOF 11
ENDMDL
MODEL      146
REMARK 921   NORMALIZED FREE ENERGY PREDICTED BY IDOCK:    0.14 KCAL/MOL
REMARK 922        TOTAL FREE ENERGY PREDICTED BY IDOCK:   -0.90 KCAL/MOL
REMARK 923 INTER-LIGAND FREE ENERGY PREDICTED BY IDOCK:   -2.84 KCAL/MOL
REMARK 924 INTRA-LIGAND FREE ENERGY PREDICTED BY IDOCK:    1.94 KCAL/MOL
REMARK 927      BINDING AFFINITY PREDICTED BY RF-SCORE:    0.00 PKD
ROOT
HETATM    1  C   UNL     1      -6.966  10.263  64.126  1.00  0.00    -0.049 C  
HETATM    2  O   UNL     1      -7.841  10.461  65.233  1.00  0.00    -0.150 OA 
ENDROOT
BRANCH   2   3
HETATM    3  C   UNL     1      -7.166  10.962  66.379  1.00  0.00    -0.140 C  
BRANCH   3   4
HETATM    4  C   UNL     1      -8.087  11.696  67.369  1.00  0.00    -0.153 C  
HETATM    5  O   UNL     1      -7.853  11.713  68.575  1.00  0.00    -0.129 OA 
HETATM    6  N   UNL     1      -9.173  12.349  66.775  1.00  0.00    -0.208 N  
HETATM    7  H   UNL     1      -9.350  12.283  65.772  1.00  0.00     0.000 HD 
BRANCH   6   8
HETATM    8  C   UNL     1     -10.022  13.109  67.633  1.00  0.00    -0.219 A  
HETATM    9  C   UNL     1     -10.949  12.470  68.494  1.00  0.00    -0.249 A  
HETATM   10  C   UNL     1     -11.586  13.184  69.551  1.00  0.00    -0.347 A  
HETATM   11  I   UNL     1     -11.293  10.377  68.130  1.00  0.00     0.171 I  
HETATM   12  C   UNL     1      -9.897  14.517  67.670  1.00  0.00    -0.223 A  
HETATM   13  C   UNL     1     -11.249  14.556  69.691  1.00  0.00    -0.253 A  
HETATM   14  I   UNL     1     -11.383  15.509  71.626  1.00  0.00    -0.141 I  
HETATM   15  I   UNL     1      -8.830  15.459  66.043  1.00  0.00     0.701 I  
HETATM   16  C   UNL     1     -10.545  15.259  68.675  1.00  0.00    -0.236 A  
BRANCH  10  17
HETATM   17  C   UNL     1     -12.452  12.439  70.537  1.00  0.00    -0.187 C  
HETATM   18  O   UNL     1     -13.535  12.952  70.821  1.00  0.00     0.338 OA 
HETATM   19  C   UNL     1     -10.881  10.434  70.853  1.00  0.00     0.267 C  
HETATM   20  N   UNL     1     -12.049  11.247  71.171  1.00  0.00    -0.236 N  
BRANCH  20  21
HETATM   21  C   UNL     1     -12.881  10.717  72.286  1.00  0.00     0.074 C  
BRANCH  21  22
HETATM   22  C   UNL     1     -13.812   9.557  71.844  1.00  0.00    -0.263 C  
HETATM   23  H   UNL     1     -14.592   8.868  70.154  1.00  0.00     0.000 HD 
HETATM   24  O   UNL     1     -14.022   9.578  70.424  1.00  0.00     0.304 OA 
BRANCH  22  25
HETATM   25  C   UNL     1     -13.260   8.174  72.219  1.00  0.00    -0.162 C  
HETATM   26  H   UNL     1     -13.945   6.484  72.977  1.00  0.00     0.000 HD 
HETATM   27  O   UNL     1     -14.286   7.339  72.745  1.00  0.00     0.393 OA 
ENDBRANCH  22  25
ENDBRANCH  21  22
ENDBRANCH  20  21
ENDBRANCH  10  17
BRANCH  16  28
HETATM   28  C   UNL     1     -10.517  16.755  68.636  1.00  0.00    -0.333 C  
HETATM   29  H   UNL     1      -8.463  16.783  69.067  1.00  0.00     0.000 HD 
HETATM   30  O   UNL     1     -11.521  17.414  68.423  1.00  0.00     0.186 OA 
HETATM   31  N   UNL     1      -9.296  17.357  68.937  1.00  0.00    -0.228 N  
BRANCH  31  32
HETATM   32  C   UNL     1      -9.210  18.806  69.064  1.00  0.00    -0.154 C  
BRANCH  32  33
HETATM   33  C   UNL     1      -8.762  19.483  67.765  1.00  0.00    -0.319 C  
HETATM   34  O   UNL     1      -9.794  20.381  67.329  1.00  0.00    -0.429 OA 
HETATM   35  H   UNL     1      -9.516  20.801  66.523  1.00  0.00     0.000 HD 
BRANCH  33  36
HETATM   36  C   UNL     1      -7.435  20.236  67.961  1.00  0.00    -0.230 C  
HETATM   37  O   UNL     1      -6.448  19.412  68.579  1.00  0.00    -0.239 OA 
HETATM   38  H   UNL     1      -5.628  19.877  68.700  1.00  0.00     0.000 HD 
ENDBRANCH  33  36
ENDBRANCH  32  33
ENDBRANCH  31  32
ENDBRANCH  16  28
ENDBRANCH   6   8
ENDBRANCH   3   4
ENDBRANCH   2   3
TORSDOF 11
ENDMDL
MODEL      147
REMARK 921   NORMALIZED FREE ENERGY PREDICTED BY IDOCK:    0.21 KCAL/MOL
REMARK 922        TOTAL FREE ENERGY PREDICTED BY IDOCK:   -0.79 KCAL/MOL
REMARK 923 INTER-LIGAND FREE ENERGY PREDICTED BY IDOCK:   -2.99 KCAL/MOL
REMARK 924 INTRA-LIGAND FREE ENERGY PREDICTED BY IDOCK:    2.20 KCAL/MOL
REMARK 927      BINDING AFFINITY PREDICTED BY RF-SCORE:    0.00 PKD
ROOT
HETATM    1  C   UNL     1      -8.142   4.182  63.481  1.00  0.00    -0.090 C  
HETATM    2  O   UNL     1      -8.049   2.890  64.074  1.00  0.00    -0.081 OA 
ENDROOT
BRANCH   2   3
HETATM    3  C   UNL     1      -6.987   2.796  65.015  1.00  0.00    -0.049 C  
BRANCH   3   4
HETATM    4  C   UNL     1      -7.166   3.704  66.243  1.00  0.00    -0.064 C  
HETATM    5  O   UNL     1      -6.354   3.708  67.166  1.00  0.00    -0.035 OA 
HETATM    6  N   UNL     1      -8.298   4.526  66.197  1.00  0.00    -0.113 N  
HETATM    7  H   UNL     1      -8.965   4.470  65.427  1.00  0.00     0.000 HD 
BRANCH   6   8
HETATM    8  C   UNL     1      -8.479   5.445  67.273  1.00  0.00    -0.106 A  
HETATM    9  C   UNL     1      -8.760   4.986  68.584  1.00  0.00    -0.093 A  
HETATM   10  C   UNL     1      -8.654   5.856  69.709  1.00  0.00    -0.129 A  
HETATM   11  I   UNL     1      -9.311   2.913  68.764  1.00  0.00    -0.003 I  
HETATM   12  C   UNL     1      -8.314   6.830  67.044  1.00  0.00    -0.114 A  
HETATM   13  C   UNL     1      -8.259   7.194  69.448  1.00  0.00    -0.132 A  
HETATM   14  I   UNL     1      -7.230   8.333  70.970  1.00  0.00    -0.085 I  
HETATM   15  I   UNL     1      -8.348   7.505  64.991  1.00  0.00     0.144 I  
HETATM   16  C   UNL     1      -8.246   7.725  68.128  1.00  0.00    -0.124 A  
BRANCH  10  17
HETATM   17  C   UNL     1      -8.818   5.296  71.101  1.00  0.00    -0.135 C  
HETATM   18  O   UNL     1      -8.199   4.262  71.359  1.00  0.00    -0.080 OA 
HETATM   19  C   UNL     1     -10.362   7.146  71.982  1.00  0.00    -0.191 C  
HETATM   20  N   UNL     1      -9.675   5.863  72.064  1.00  0.00    -0.153 N  
BRANCH  20  21
HETATM   21  C   UNL     1      -9.930   5.109  73.322  1.00  0.00    -0.160 C  
BRANCH  21  22
HETATM   22  C   UNL     1     -11.394   4.610  73.438  1.00  0.00    -0.305 C  
HETATM   23  H   UNL     1     -13.097   4.822  72.441  1.00  0.00     0.000 HD 
HETATM   24  O   UNL     1     -12.200   5.128  72.370  1.00  0.00     0.221 OA 
BRANCH  22  25
HETATM   25  C   UNL     1     -11.505   3.078  73.415  1.00  0.00    -0.044 C  
HETATM   26  H   UNL     1     -10.792   1.578  72.346  1.00  0.00     0.000 HD 
HETATM   27  O   UNL     1     -10.723   2.525  72.361  1.00  0.00    -0.051 OA 
ENDBRANCH  22  25
ENDBRANCH  21  22
ENDBRANCH  20  21
ENDBRANCH  10  17
BRANCH  16  28
HETATM   28  C   UNL     1      -8.203   9.200  67.881  1.00  0.00    -0.112 C  
HETATM   29  H   UNL     1      -6.104   9.197  67.899  1.00  0.00     0.000 HD 
HETATM   30  O   UNL     1      -9.218   9.868  67.777  1.00  0.00    -0.131 OA 
HETATM   31  N   UNL     1      -6.937   9.783  67.855  1.00  0.00    -0.077 N  
BRANCH  31  32
HETATM   32  C   UNL     1      -6.804  11.232  67.764  1.00  0.00    -0.074 C  
BRANCH  32  33
HETATM   33  C   UNL     1      -5.432  11.726  68.231  1.00  0.00    -0.042 C  
HETATM   34  O   UNL     1      -5.358  13.146  68.036  1.00  0.00    -0.088 OA 
HETATM   35  H   UNL     1      -4.506  13.453  68.325  1.00  0.00     0.000 HD 
BRANCH  33  36
HETATM   36  C   UNL     1      -5.185  11.367  69.706  1.00  0.00    -0.056 C  
HETATM   37  O   UNL     1      -6.267  11.783  70.537  1.00  0.00    -0.438 OA 
HETATM   38  H   UNL     1      -6.115  11.561  71.449  1.00  0.00     0.000 HD 
ENDBRANCH  33  36
ENDBRANCH  32  33
ENDBRANCH  31  32
ENDBRANCH  16  28
ENDBRANCH   6   8
ENDBRANCH   3   4
ENDBRANCH   2   3
TORSDOF 11
ENDMDL
MODEL      148
REMARK 921   NORMALIZED FREE ENERGY PREDICTED BY IDOCK:    0.25 KCAL/MOL
REMARK 922        TOTAL FREE ENERGY PREDICTED BY IDOCK:   -0.71 KCAL/MOL
REMARK 923 INTER-LIGAND FREE ENERGY PREDICTED BY IDOCK:   -4.52 KCAL/MOL
REMARK 924 INTRA-LIGAND FREE ENERGY PREDICTED BY IDOCK:    3.82 KCAL/MOL
REMARK 927      BINDING AFFINITY PREDICTED BY RF-SCORE:    0.00 PKD
ROOT
HETATM    1  C   UNL     1     -10.060   8.115  72.582  1.00  0.00    -0.309 C  
HETATM    2  O   UNL     1     -11.435   8.171  72.950  1.00  0.00    -0.389 OA 
ENDROOT
BRANCH   2   3
HETATM    3  C   UNL     1     -12.258   8.679  71.908  1.00  0.00    -0.355 C  
BRANCH   3   4
HETATM    4  C   UNL     1     -11.526   8.848  70.566  1.00  0.00    -0.200 C  
HETATM    5  O   UNL     1     -11.748   8.105  69.613  1.00  0.00     0.363 OA 
HETATM    6  N   UNL     1     -10.625   9.919  70.528  1.00  0.00    -0.300 N  
HETATM    7  H   UNL     1     -10.445  10.493  71.352  1.00  0.00     0.000 HD 
BRANCH   6   8
HETATM    8  C   UNL     1      -9.969  10.173  69.286  1.00  0.00    -0.219 A  
HETATM    9  C   UNL     1      -8.996   9.275  68.780  1.00  0.00    -0.132 A  
HETATM   10  C   UNL     1      -8.552   9.356  67.428  1.00  0.00    -0.125 A  
HETATM   11  I   UNL     1      -8.274   7.784  70.155  1.00  0.00    -0.127 I  
HETATM   12  C   UNL     1     -10.339  11.301  68.520  1.00  0.00    -0.203 A  
HETATM   13  C   UNL     1      -9.128  10.375  66.624  1.00  0.00    -0.151 A  
HETATM   14  I   UNL     1      -9.269  10.113  64.484  1.00  0.00    -0.347 I  
HETATM   15  I   UNL     1     -11.460  12.854  69.521  1.00  0.00    -0.102 I  
HETATM   16  C   UNL     1      -9.886  11.435  67.194  1.00  0.00    -0.212 A  
BRANCH  10  17
HETATM   17  C   UNL     1      -7.626   8.296  66.883  1.00  0.00    -0.092 C  
HETATM   18  O   UNL     1      -8.155   7.315  66.358  1.00  0.00    -0.111 OA 
HETATM   19  C   UNL     1      -5.432   9.494  67.461  1.00  0.00    -0.037 C  
HETATM   20  N   UNL     1      -6.224   8.359  67.006  1.00  0.00    -0.055 N  
BRANCH  20  21
HETATM   21  C   UNL     1      -5.422   7.161  66.634  1.00  0.00    -0.023 C  
BRANCH  21  22
HETATM   22  C   UNL     1      -6.074   6.329  65.498  1.00  0.00    -0.030 C  
HETATM   23  H   UNL     1      -6.596   6.597  63.602  1.00  0.00     0.000 HD 
HETATM   24  O   UNL     1      -6.196   7.106  64.297  1.00  0.00    -0.036 OA 
BRANCH  22  25
HETATM   25  C   UNL     1      -5.281   5.058  65.160  1.00  0.00    -0.012 C  
HETATM   26  H   UNL     1      -5.572   3.105  65.184  1.00  0.00     0.000 HD 
HETATM   27  O   UNL     1      -6.062   3.891  65.394  1.00  0.00    -0.022 OA 
ENDBRANCH  22  25
ENDBRANCH  21  22
ENDBRANCH  20  21
ENDBRANCH  10  17
BRANCH  16  28
HETATM   28  C   UNL     1     -10.169  12.690  66.430  1.00  0.00    -0.251 C  
HETATM   29  H   UNL     1     -12.215  12.567  66.880  1.00  0.00     0.000 HD 
HETATM   30  O   UNL     1      -9.291  13.307  65.850  1.00  0.00    -0.092 OA 
HETATM   31  N   UNL     1     -11.507  13.074  66.350  1.00  0.00    -0.324 N  
BRANCH  31  32
HETATM   32  C   UNL     1     -11.893  14.200  65.508  1.00  0.00    -0.364 C  
BRANCH  32  33
HETATM   33  C   UNL     1     -10.859  15.330  65.531  1.00  0.00    -0.372 C  
HETATM   34  O   UNL     1     -10.614  15.763  64.184  1.00  0.00    -0.470 OA 
HETATM   35  H   UNL     1      -9.972  16.464  64.198  1.00  0.00     0.000 HD 
BRANCH  33  36
HETATM   36  C   UNL     1     -11.340  16.505  66.399  1.00  0.00     0.593 C  
HETATM   37  O   UNL     1     -11.744  16.071  67.696  1.00  0.00    -0.019 OA 
HETATM   38  H   UNL     1     -12.041  16.796  68.233  1.00  0.00     0.000 HD 
ENDBRANCH  33  36
ENDBRANCH  32  33
ENDBRANCH  31  32
ENDBRANCH  16  28
ENDBRANCH   6   8
ENDBRANCH   3   4
ENDBRANCH   2   3
TORSDOF 11
ENDMDL
MODEL      149
REMARK 921   NORMALIZED FREE ENERGY PREDICTED BY IDOCK:    0.65 KCAL/MOL
REMARK 922        TOTAL FREE ENERGY PREDICTED BY IDOCK:   -0.05 KCAL/MOL
REMARK 923 INTER-LIGAND FREE ENERGY PREDICTED BY IDOCK:   -2.89 KCAL/MOL
REMARK 924 INTRA-LIGAND FREE ENERGY PREDICTED BY IDOCK:    2.84 KCAL/MOL
REMARK 927      BINDING AFFINITY PREDICTED BY RF-SCORE:    0.00 PKD
ROOT
HETATM    1  C   UNL     1     -13.670   8.783  71.017  1.00  0.00     0.088 C  
HETATM    2  O   UNL     1     -12.377   8.200  71.151  1.00  0.00    -0.294 OA 
ENDROOT
BRANCH   2   3
HETATM    3  C   UNL     1     -11.648   8.204  69.930  1.00  0.00     0.290 C  
BRANCH   3   4
HETATM    4  C   UNL     1     -11.014   9.565  69.592  1.00  0.00    -0.212 C  
HETATM    5  O   UNL     1     -11.427  10.609  70.089  1.00  0.00    -0.281 OA 
HETATM    6  N   UNL     1      -9.931   9.496  68.708  1.00  0.00    -0.169 N  
HETATM    7  H   UNL     1      -9.639   8.611  68.293  1.00  0.00     0.000 HD 
BRANCH   6   8
HETATM    8  C   UNL     1      -9.253  10.716  68.414  1.00  0.00    -0.159 A  
HETATM    9  C   UNL     1      -9.743  11.599  67.419  1.00  0.00    -0.176 A  
HETATM   10  C   UNL     1      -9.257  12.936  67.317  1.00  0.00    -0.208 A  
HETATM   11  I   UNL     1     -11.270  10.814  66.122  1.00  0.00     0.912 I  
HETATM   12  C   UNL     1      -8.113  11.081  69.166  1.00  0.00    -0.061 A  
HETATM   13  C   UNL     1      -8.264  13.330  68.252  1.00  0.00    -0.156 A  
HETATM   14  I   UNL     1      -8.075  15.408  68.816  1.00  0.00    -0.214 I  
HETATM   15  I   UNL     1      -7.151   9.528  70.322  1.00  0.00    -0.140 I  
HETATM   16  C   UNL     1      -7.581  12.379  69.060  1.00  0.00     0.121 A  
BRANCH  10  17
HETATM   17  C   UNL     1      -9.904  13.891  66.344  1.00  0.00    -0.295 C  
HETATM   18  O   UNL     1      -9.719  13.670  65.146  1.00  0.00    -0.124 OA 
HETATM   19  C   UNL     1     -11.068  15.357  68.099  1.00  0.00    -0.309 C  
HETATM   20  N   UNL     1     -10.635  15.025  66.747  1.00  0.00    -0.295 N  
BRANCH  20  21
HETATM   21  C   UNL     1     -11.039  16.017  65.712  1.00  0.00    -0.032 C  
BRANCH  21  22
HETATM   22  C   UNL     1     -10.295  17.371  65.854  1.00  0.00    -0.269 C  
HETATM   23  H   UNL     1     -10.396  19.187  65.060  1.00  0.00     0.000 HD 
HETATM   24  O   UNL     1     -10.852  18.358  64.973  1.00  0.00    -0.641 OA 
BRANCH  22  25
HETATM   25  C   UNL     1     -10.345  17.931  67.283  1.00  0.00    -0.369 C  
HETATM   26  H   UNL     1     -10.892  19.604  68.178  1.00  0.00     0.000 HD 
HETATM   27  O   UNL     1     -10.862  19.258  67.294  1.00  0.00    -0.479 OA 
ENDBRANCH  22  25
ENDBRANCH  21  22
ENDBRANCH  20  21
ENDBRANCH  10  17
BRANCH  16  28
HETATM   28  C   UNL     1      -6.301  12.722  69.755  1.00  0.00    -0.065 C  
HETATM   29  H   UNL     1      -7.107  12.194  71.619  1.00  0.00     0.000 HD 
HETATM   30  O   UNL     1      -5.332  13.152  69.151  1.00  0.00    -0.069 OA 
HETATM   31  N   UNL     1      -6.301  12.598  71.143  1.00  0.00     1.110 N  
BRANCH  31  32
HETATM   32  C   UNL     1      -5.148  13.046  71.915  1.00  0.00    -0.100 C  
BRANCH  32  33
HETATM   33  C   UNL     1      -5.128  14.565  72.110  1.00  0.00    -0.189 C  
HETATM   34  O   UNL     1      -6.069  15.162  71.205  1.00  0.00     0.203 OA 
HETATM   35  H   UNL     1      -6.056  16.105  71.326  1.00  0.00     0.000 HD 
BRANCH  33  36
HETATM   36  C   UNL     1      -5.458  14.943  73.564  1.00  0.00     0.294 C  
HETATM   37  O   UNL     1      -5.863  13.807  74.325  1.00  0.00    -0.600 OA 
HETATM   38  H   UNL     1      -6.067  14.040  75.223  1.00  0.00     0.000 HD 
ENDBRANCH  33  36
ENDBRANCH  32  33
ENDBRANCH  31  32
ENDBRANCH  16  28
ENDBRANCH   6   8
ENDBRANCH   3   4
ENDBRANCH   2   3
TORSDOF 11
ENDMDL
MODEL      150
REMARK 921   NORMALIZED FREE ENERGY PREDICTED BY IDOCK:    0.71 KCAL/MOL
REMARK 922        TOTAL FREE ENERGY PREDICTED BY IDOCK:    0.04 KCAL/MOL
REMARK 923 INTER-LIGAND FREE ENERGY PREDICTED BY IDOCK:   -1.75 KCAL/MOL
REMARK 924 INTRA-LIGAND FREE ENERGY PREDICTED BY IDOCK:    1.79 KCAL/MOL
REMARK 927      BINDING AFFINITY PREDICTED BY RF-SCORE:    0.00 PKD
ROOT
HETATM    1  C   UNL     1      -7.441   9.882  72.383  1.00  0.00     2.726 C  
HETATM    2  O   UNL     1      -7.608   8.627  73.037  1.00  0.00    -0.352 OA 
ENDROOT
BRANCH   2   3
HETATM    3  C   UNL     1      -7.483   7.527  72.146  1.00  0.00    -0.077 C  
BRANCH   3   4
HETATM    4  C   UNL     1      -7.547   7.922  70.661  1.00  0.00    -0.077 C  
HETATM    5  O   UNL     1      -6.642   8.555  70.123  1.00  0.00    -0.038 OA 
HETATM    6  N   UNL     1      -8.693   7.477  69.991  1.00  0.00    -0.139 N  
HETATM    7  H   UNL     1      -9.437   6.981  70.482  1.00  0.00     0.000 HD 
BRANCH   6   8
HETATM    8  C   UNL     1      -8.775   7.748  68.593  1.00  0.00    -0.128 A  
HETATM    9  C   UNL     1      -9.426   8.913  68.114  1.00  0.00    -0.143 A  
HETATM   10  C   UNL     1      -9.266   9.344  66.764  1.00  0.00    -0.179 A  
HETATM   11  I   UNL     1     -10.620   9.988  69.545  1.00  0.00    -0.346 I  
HETATM   12  C   UNL     1      -8.146   6.877  67.675  1.00  0.00    -0.113 A  
HETATM   13  C   UNL     1      -8.431   8.551  65.933  1.00  0.00    -0.152 A  
HETATM   14  I   UNL     1      -7.401   9.453  64.261  1.00  0.00    -0.128 I  
HETATM   15  I   UNL     1      -7.585   4.918  68.394  1.00  0.00    -0.078 I  
HETATM   16  C   UNL     1      -8.006   7.251  66.325  1.00  0.00    -0.110 A  
BRANCH  10  17
HETATM   17  C   UNL     1      -9.853  10.664  66.329  1.00  0.00    -0.214 C  
HETATM   18  O   UNL     1     -10.925  10.621  65.723  1.00  0.00    -0.023 OA 
HETATM   19  C   UNL     1      -8.023  12.150  67.345  1.00  0.00    -0.168 C  
HETATM   20  N   UNL     1      -9.207  11.900  66.532  1.00  0.00    -0.211 N  
BRANCH  20  21
HETATM   21  C   UNL     1      -9.765  13.112  65.871  1.00  0.00    -0.178 C  
BRANCH  21  22
HETATM   22  C   UNL     1     -11.088  13.596  66.519  1.00  0.00    -0.305 C  
HETATM   23  H   UNL     1     -12.663  12.786  67.415  1.00  0.00     0.000 HD 
HETATM   24  O   UNL     1     -11.852  12.489  67.018  1.00  0.00    -0.428 OA 
BRANCH  22  25
HETATM   25  C   UNL     1     -10.859  14.574  67.681  1.00  0.00    -0.273 C  
HETATM   26  H   UNL     1      -9.900  16.272  67.995  1.00  0.00     0.000 HD 
HETATM   27  O   UNL     1     -10.042  15.667  67.276  1.00  0.00    -0.248 OA 
ENDBRANCH  22  25
ENDBRANCH  21  22
ENDBRANCH  20  21
ENDBRANCH  10  17
BRANCH  16  28
HETATM   28  C   UNL     1      -7.460   6.276  65.331  1.00  0.00    -0.083 C  
HETATM   29  H   UNL     1      -5.544   6.402  66.179  1.00  0.00     0.000 HD 
HETATM   30  O   UNL     1      -8.154   5.787  64.455  1.00  0.00    -0.124 OA 
HETATM   31  N   UNL     1      -6.092   6.016  65.410  1.00  0.00    -0.028 N  
BRANCH  31  32
HETATM   32  C   UNL     1      -5.447   5.193  64.396  1.00  0.00    -0.013 C  
BRANCH  32  33
HETATM   33  C   UNL     1      -6.107   3.818  64.249  1.00  0.00    -0.022 C  
HETATM   34  O   UNL     1      -5.291   3.000  63.398  1.00  0.00    -0.008 OA 
HETATM   35  H   UNL     1      -5.700   2.147  63.307  1.00  0.00     0.000 HD 
BRANCH  33  36
HETATM   36  C   UNL     1      -6.304   3.149  65.619  1.00  0.00    -0.031 C  
HETATM   37  O   UNL     1      -7.368   2.200  65.594  1.00  0.00    -0.062 OA 
HETATM   38  H   UNL     1      -7.491   1.786  66.440  1.00  0.00     0.000 HD 
ENDBRANCH  33  36
ENDBRANCH  32  33
ENDBRANCH  31  32
ENDBRANCH  16  28
ENDBRANCH   6   8
ENDBRANCH   3   4
ENDBRANCH   2   3
TORSDOF 11
ENDMDL
MODEL      151
REMARK 921   NORMALIZED FREE ENERGY PREDICTED BY IDOCK:    0.80 KCAL/MOL
REMARK 922        TOTAL FREE ENERGY PREDICTED BY IDOCK:    0.19 KCAL/MOL
REMARK 923 INTER-LIGAND FREE ENERGY PREDICTED BY IDOCK:   -1.07 KCAL/MOL
REMARK 924 INTRA-LIGAND FREE ENERGY PREDICTED BY IDOCK:    1.26 KCAL/MOL
REMARK 927      BINDING AFFINITY PREDICTED BY RF-SCORE:    0.00 PKD
ROOT
HETATM    1  C   UNL     1     -13.980   9.182  73.032  1.00  0.00     0.254 C  
HETATM    2  O   UNL     1     -12.896  10.088  72.845  1.00  0.00     0.359 OA 
ENDROOT
BRANCH   2   3
HETATM    3  C   UNL     1     -13.040  10.877  71.671  1.00  0.00    -0.433 C  
BRANCH   3   4
HETATM    4  C   UNL     1     -11.903  10.685  70.653  1.00  0.00    -0.363 C  
HETATM    5  O   UNL     1     -10.959  11.468  70.587  1.00  0.00     0.734 OA 
HETATM    6  N   UNL     1     -12.030   9.547  69.849  1.00  0.00    -0.428 N  
HETATM    7  H   UNL     1     -12.847   8.938  69.913  1.00  0.00     0.000 HD 
BRANCH   6   8
HETATM    8  C   UNL     1     -10.968   9.274  68.936  1.00  0.00    -0.017 A  
HETATM    9  C   UNL     1     -10.668  10.170  67.879  1.00  0.00    -0.269 A  
HETATM   10  C   UNL     1      -9.448  10.065  67.149  1.00  0.00    -0.184 A  
HETATM   11  I   UNL     1     -12.134  11.695  67.484  1.00  0.00     1.462 I  
HETATM   12  C   UNL     1     -10.165   8.126  69.122  1.00  0.00    -0.214 A  
HETATM   13  C   UNL     1      -8.561   9.025  67.530  1.00  0.00    -0.120 A  
HETATM   14  I   UNL     1      -6.436   9.242  67.199  1.00  0.00    -0.064 I  
HETATM   15  I   UNL     1     -10.929   6.583  70.428  1.00  0.00    -0.444 I  
HETATM   16  C   UNL     1      -8.974   7.969  68.389  1.00  0.00    -0.133 A  
BRANCH  10  17
HETATM   17  C   UNL     1      -9.096  11.123  66.131  1.00  0.00    -0.201 C  
HETATM   18  O   UNL     1      -8.595  12.162  66.563  1.00  0.00    -0.165 OA 
HETATM   19  C   UNL     1      -9.821   9.793  64.060  1.00  0.00     0.424 C  
HETATM   20  N   UNL     1      -9.371  10.992  64.756  1.00  0.00    -0.215 N  
BRANCH  20  21
HETATM   21  C   UNL     1      -9.187  12.179  63.877  1.00  0.00     0.486 C  
BRANCH  21  22
HETATM   22  C   UNL     1     -10.517  12.920  63.580  1.00  0.00    -0.064 C  
HETATM   23  H   UNL     1     -12.428  12.450  63.316  1.00  0.00     0.000 HD 
HETATM   24  O   UNL     1     -11.613  11.996  63.498  1.00  0.00    -0.439 OA 
BRANCH  22  25
HETATM   25  C   UNL     1     -10.864  13.971  64.645  1.00  0.00    -0.403 C  
HETATM   26  H   UNL     1      -9.936  15.399  65.645  1.00  0.00     0.000 HD 
HETATM   27  O   UNL     1      -9.721  14.749  64.987  1.00  0.00    -0.158 OA 
ENDBRANCH  22  25
ENDBRANCH  21  22
ENDBRANCH  20  21
ENDBRANCH  10  17
BRANCH  16  28
HETATM   28  C   UNL     1      -8.193   6.696  68.492  1.00  0.00    -0.119 C  
HETATM   29  H   UNL     1      -6.708   7.636  69.639  1.00  0.00     0.000 HD 
HETATM   30  O   UNL     1      -8.566   5.664  67.959  1.00  0.00    -0.103 OA 
HETATM   31  N   UNL     1      -6.975   6.773  69.165  1.00  0.00    -0.075 N  
BRANCH  31  32
HETATM   32  C   UNL     1      -6.082   5.621  69.190  1.00  0.00    -0.025 C  
BRANCH  32  33
HETATM   33  C   UNL     1      -6.784   4.347  69.669  1.00  0.00    -0.037 C  
HETATM   34  O   UNL     1      -6.131   3.210  69.086  1.00  0.00    -0.023 OA 
HETATM   35  H   UNL     1      -6.566   2.418  69.383  1.00  0.00     0.000 HD 
BRANCH  33  36
HETATM   36  C   UNL     1      -6.773   4.251  71.204  1.00  0.00    -0.031 C  
HETATM   37  O   UNL     1      -6.851   5.538  71.813  1.00  0.00    -0.062 OA 
HETATM   38  H   UNL     1      -6.844   5.479  72.762  1.00  0.00     0.000 HD 
ENDBRANCH  33  36
ENDBRANCH  32  33
ENDBRANCH  31  32
ENDBRANCH  16  28
ENDBRANCH   6   8
ENDBRANCH   3   4
ENDBRANCH   2   3
TORSDOF 11
ENDMDL
MODEL      152
REMARK 921   NORMALIZED FREE ENERGY PREDICTED BY IDOCK:    1.13 KCAL/MOL
REMARK 922        TOTAL FREE ENERGY PREDICTED BY IDOCK:    0.74 KCAL/MOL
REMARK 923 INTER-LIGAND FREE ENERGY PREDICTED BY IDOCK:   -2.98 KCAL/MOL
REMARK 924 INTRA-LIGAND FREE ENERGY PREDICTED BY IDOCK:    3.71 KCAL/MOL
REMARK 927      BINDING AFFINITY PREDICTED BY RF-SCORE:    0.00 PKD
ROOT
HETATM    1  C   UNL     1      -5.326   6.417  72.999  1.00  0.00    -0.037 C  
HETATM    2  O   UNL     1      -5.990   5.199  72.671  1.00  0.00    -0.024 OA 
ENDROOT
BRANCH   2   3
HETATM    3  C   UNL     1      -6.033   4.962  71.270  1.00  0.00    -0.017 C  
BRANCH   3   4
HETATM    4  C   UNL     1      -6.725   6.082  70.473  1.00  0.00    -0.053 C  
HETATM    5  O   UNL     1      -7.011   7.158  70.990  1.00  0.00    -0.059 OA 
HETATM    6  N   UNL     1      -6.964   5.773  69.129  1.00  0.00    -0.062 N  
HETATM    7  H   UNL     1      -6.740   4.855  68.745  1.00  0.00     0.000 HD 
BRANCH   6   8
HETATM    8  C   UNL     1      -7.536   6.799  68.318  1.00  0.00    -0.099 A  
HETATM    9  C   UNL     1      -8.739   7.444  68.700  1.00  0.00    -0.128 A  
HETATM   10  C   UNL     1      -9.161   8.650  68.069  1.00  0.00    -0.147 A  
HETATM   11  I   UNL     1      -9.846   6.516  70.297  1.00  0.00    -0.209 I  
HETATM   12  C   UNL     1      -6.862   7.222  67.150  1.00  0.00    -0.077 A  
HETATM   13  C   UNL     1      -8.323   9.164  67.045  1.00  0.00    -0.120 A  
HETATM   14  I   UNL     1      -8.300  11.286  66.631  1.00  0.00    -0.116 I  
HETATM   15  I   UNL     1      -5.317   5.927  66.373  1.00  0.00    -0.010 I  
HETATM   16  C   UNL     1      -7.277   8.387  66.476  1.00  0.00    -0.076 A  
BRANCH  10  17
HETATM   17  C   UNL     1     -10.367   9.386  68.600  1.00  0.00    -0.203 C  
HETATM   18  O   UNL     1     -11.457   8.824  68.478  1.00  0.00     0.551 OA 
HETATM   19  C   UNL     1      -9.096  11.424  69.504  1.00  0.00     0.775 C  
HETATM   20  N   UNL     1     -10.300  10.679  69.155  1.00  0.00    -0.212 N  
BRANCH  20  21
HETATM   21  C   UNL     1     -11.571  11.398  69.441  1.00  0.00    -0.323 C  
BRANCH  21  22
HETATM   22  C   UNL     1     -11.547  12.875  68.969  1.00  0.00    -0.322 C  
HETATM   23  H   UNL     1     -12.343  13.960  67.510  1.00  0.00     0.000 HD 
HETATM   24  O   UNL     1     -12.358  13.055  67.799  1.00  0.00    -0.144 OA 
BRANCH  22  25
HETATM   25  C   UNL     1     -12.045  13.853  70.044  1.00  0.00    -0.345 C  
HETATM   26  H   UNL     1     -12.487  15.773  70.181  1.00  0.00     0.000 HD 
HETATM   27  O   UNL     1     -12.179  15.169  69.517  1.00  0.00    -0.292 OA 
ENDBRANCH  22  25
ENDBRANCH  21  22
ENDBRANCH  20  21
ENDBRANCH  10  17
BRANCH  16  28
HETATM   28  C   UNL     1      -6.648   8.760  65.171  1.00  0.00    -0.064 C  
HETATM   29  H   UNL     1      -8.397   8.259  64.123  1.00  0.00     0.000 HD 
HETATM   30  O   UNL     1      -5.498   9.160  65.098  1.00  0.00    -0.041 OA 
HETATM   31  N   UNL     1      -7.424   8.551  64.031  1.00  0.00    -0.110 N  
BRANCH  31  32
HETATM   32  C   UNL     1      -6.844   8.750  62.709  1.00  0.00    -0.090 C  
BRANCH  32  33
HETATM   33  C   UNL     1      -6.716  10.232  62.342  1.00  0.00    -0.129 C  
HETATM   34  O   UNL     1      -7.706  10.977  63.067  1.00  0.00    -0.367 OA 
HETATM   35  H   UNL     1      -7.627  11.897  62.839  1.00  0.00     0.000 HD 
BRANCH  33  36
HETATM   36  C   UNL     1      -5.305  10.761  62.651  1.00  0.00    -0.168 C  
HETATM   37  O   UNL     1      -5.270  11.484  63.879  1.00  0.00    -0.258 OA 
HETATM   38  H   UNL     1      -4.398  11.810  64.070  1.00  0.00     0.000 HD 
ENDBRANCH  33  36
ENDBRANCH  32  33
ENDBRANCH  31  32
ENDBRANCH  16  28
ENDBRANCH   6   8
ENDBRANCH   3   4
ENDBRANCH   2   3
TORSDOF 11
ENDMDL
MODEL      153
REMARK 921   NORMALIZED FREE ENERGY PREDICTED BY IDOCK:    1.34 KCAL/MOL
REMARK 922        TOTAL FREE ENERGY PREDICTED BY IDOCK:    1.07 KCAL/MOL
REMARK 923 INTER-LIGAND FREE ENERGY PREDICTED BY IDOCK:   -2.52 KCAL/MOL
REMARK 924 INTRA-LIGAND FREE ENERGY PREDICTED BY IDOCK:    3.59 KCAL/MOL
REMARK 927      BINDING AFFINITY PREDICTED BY RF-SCORE:    0.00 PKD
ROOT
HETATM    1  C   UNL     1     -11.286  13.131  63.685  1.00  0.00    -0.257 C  
HETATM    2  O   UNL     1     -10.526  12.359  64.610  1.00  0.00    -0.285 OA 
ENDROOT
BRANCH   2   3
HETATM    3  C   UNL     1     -10.978  11.014  64.701  1.00  0.00    -0.080 C  
BRANCH   3   4
HETATM    4  C   UNL     1     -10.127  10.135  65.633  1.00  0.00    -0.254 C  
HETATM    5  O   UNL     1     -10.642   9.365  66.440  1.00  0.00    -0.145 OA 
HETATM    6  N   UNL     1      -8.745  10.274  65.458  1.00  0.00    -0.155 N  
HETATM    7  H   UNL     1      -8.357  10.949  64.799  1.00  0.00     0.000 HD 
BRANCH   6   8
HETATM    8  C   UNL     1      -7.903   9.431  66.242  1.00  0.00    -0.100 A  
HETATM    9  C   UNL     1      -7.607   9.747  67.591  1.00  0.00    -0.091 A  
HETATM   10  C   UNL     1      -7.020   8.784  68.463  1.00  0.00    -0.065 A  
HETATM   11  I   UNL     1      -8.132  11.733  68.236  1.00  0.00    -0.131 I  
HETATM   12  C   UNL     1      -7.405   8.230  65.686  1.00  0.00    -0.072 A  
HETATM   13  C   UNL     1      -6.746   7.505  67.912  1.00  0.00    -0.066 A  
HETATM   14  I   UNL     1      -6.714   5.762  69.190  1.00  0.00    -0.066 I  
HETATM   15  I   UNL     1      -7.491   8.024  63.536  1.00  0.00    -0.140 I  
HETATM   16  C   UNL     1      -6.783   7.273  66.509  1.00  0.00    -0.060 A  
BRANCH  10  17
HETATM   17  C   UNL     1      -6.855   9.108  69.928  1.00  0.00    -0.052 C  
HETATM   18  O   UNL     1      -5.748   9.515  70.284  1.00  0.00    -0.034 OA 
HETATM   19  C   UNL     1      -9.267   8.575  70.622  1.00  0.00    -0.163 C  
HETATM   20  N   UNL     1      -7.872   8.907  70.882  1.00  0.00    -0.120 N  
BRANCH  20  21
HETATM   21  C   UNL     1      -7.533   9.048  72.325  1.00  0.00     0.353 C  
BRANCH  21  22
HETATM   22  C   UNL     1      -6.990   7.735  72.946  1.00  0.00    -0.077 C  
HETATM   23  H   UNL     1      -7.570   6.406  74.301  1.00  0.00     0.000 HD 
HETATM   24  O   UNL     1      -7.904   7.210  73.920  1.00  0.00    -0.103 OA 
BRANCH  22  25
HETATM   25  C   UNL     1      -6.737   6.640  71.898  1.00  0.00    -0.059 C  
HETATM   26  H   UNL     1      -6.497   4.680  71.862  1.00  0.00     0.000 HD 
HETATM   27  O   UNL     1      -6.653   5.357  72.510  1.00  0.00    -0.060 OA 
ENDBRANCH  22  25
ENDBRANCH  21  22
ENDBRANCH  20  21
ENDBRANCH  10  17
BRANCH  16  28
HETATM   28  C   UNL     1      -6.142   6.065  65.901  1.00  0.00    -0.029 C  
HETATM   29  H   UNL     1      -5.856   7.067  64.079  1.00  0.00     0.000 HD 
HETATM   30  O   UNL     1      -6.009   5.023  66.520  1.00  0.00    -0.021 OA 
HETATM   31  N   UNL     1      -5.776   6.172  64.560  1.00  0.00    -0.021 N  
BRANCH  31  32
HETATM   32  C   UNL     1      -5.278   5.003  63.846  1.00  0.00    -0.009 C  
BRANCH  32  33
HETATM   33  C   UNL     1      -6.390   4.246  63.112  1.00  0.00    -0.022 C  
HETATM   34  O   UNL     1      -5.805   3.166  62.370  1.00  0.00    -0.008 OA 
HETATM   35  H   UNL     1      -6.495   2.696  61.915  1.00  0.00     0.000 HD 
BRANCH  33  36
HETATM   36  C   UNL     1      -7.446   3.719  64.098  1.00  0.00    -0.067 C  
HETATM   37  O   UNL     1      -7.444   2.295  64.161  1.00  0.00    -0.057 OA 
HETATM   38  H   UNL     1      -8.097   1.969  64.770  1.00  0.00     0.000 HD 
ENDBRANCH  33  36
ENDBRANCH  32  33
ENDBRANCH  31  32
ENDBRANCH  16  28
ENDBRANCH   6   8
ENDBRANCH   3   4
ENDBRANCH   2   3
TORSDOF 11
ENDMDL
MODEL      154
REMARK 921   NORMALIZED FREE ENERGY PREDICTED BY IDOCK:    1.68 KCAL/MOL
REMARK 922        TOTAL FREE ENERGY PREDICTED BY IDOCK:    1.64 KCAL/MOL
REMARK 923 INTER-LIGAND FREE ENERGY PREDICTED BY IDOCK:    0.96 KCAL/MOL
REMARK 924 INTRA-LIGAND FREE ENERGY PREDICTED BY IDOCK:    0.68 KCAL/MOL
REMARK 927      BINDING AFFINITY PREDICTED BY RF-SCORE:    0.00 PKD
ROOT
HETATM    1  C   UNL     1     -12.915  10.041  69.735  1.00  0.00     0.817 C  
HETATM    2  O   UNL     1     -12.144   9.199  68.882  1.00  0.00     1.387 OA 
ENDROOT
BRANCH   2   3
HETATM    3  C   UNL     1     -11.880   9.797  67.620  1.00  0.00     2.205 C  
BRANCH   3   4
HETATM    4  C   UNL     1     -11.154  11.150  67.715  1.00  0.00    -0.285 C  
HETATM    5  O   UNL     1     -11.666  12.117  68.273  1.00  0.00    -0.313 OA 
HETATM    6  N   UNL     1      -9.877  11.164  67.144  1.00  0.00    -0.185 N  
HETATM    7  H   UNL     1      -9.500  10.348  66.661  1.00  0.00     0.000 HD 
BRANCH   6   8
HETATM    8  C   UNL     1      -9.123  12.370  67.265  1.00  0.00    -0.187 A  
HETATM    9  C   UNL     1      -9.497  13.537  66.554  1.00  0.00    -0.256 A  
HETATM   10  C   UNL     1      -8.944  14.810  66.883  1.00  0.00    -0.276 A  
HETATM   11  I   UNL     1     -10.960  13.272  64.998  1.00  0.00    -0.404 I  
HETATM   12  C   UNL     1      -8.026  12.420  68.155  1.00  0.00    -0.153 A  
HETATM   13  C   UNL     1      -8.004  14.844  67.947  1.00  0.00    -0.138 A  
HETATM   14  I   UNL     1      -7.761  16.646  69.115  1.00  0.00     0.125 I  
HETATM   15  I   UNL     1      -7.224  10.536  68.846  1.00  0.00    -0.117 I  
HETATM   16  C   UNL     1      -7.427  13.654  68.471  1.00  0.00    -0.119 A  
BRANCH  10  17
HETATM   17  C   UNL     1      -9.472  16.050  66.205  1.00  0.00    -0.336 C  
HETATM   18  O   UNL     1      -8.928  16.379  65.149  1.00  0.00     0.381 OA 
HETATM   19  C   UNL     1     -11.334  16.543  67.901  1.00  0.00    -0.049 C  
HETATM   20  N   UNL     1     -10.492  16.853  66.752  1.00  0.00    -0.292 N  
BRANCH  20  21
HETATM   21  C   UNL     1     -10.782  18.167  66.115  1.00  0.00    -0.145 C  
BRANCH  21  22
HETATM   22  C   UNL     1     -10.086  19.351  66.836  1.00  0.00    -0.388 C  
HETATM   23  H   UNL     1     -10.013  20.112  68.668  1.00  0.00     0.000 HD 
HETATM   24  O   UNL     1     -10.439  19.386  68.227  1.00  0.00    -0.401 OA 
BRANCH  22  25
HETATM   25  C   UNL     1      -8.554  19.291  66.738  1.00  0.00    -0.307 C  
HETATM   26  H   UNL     1      -7.009  20.355  67.354  1.00  0.00     0.000 HD 
HETATM   27  O   UNL     1      -7.955  20.392  67.414  1.00  0.00    -0.317 OA 
ENDBRANCH  22  25
ENDBRANCH  21  22
ENDBRANCH  20  21
ENDBRANCH  10  17
BRANCH  16  28
HETATM   28  C   UNL     1      -6.187  13.692  69.307  1.00  0.00    -0.104 C  
HETATM   29  H   UNL     1      -7.186  12.805  70.926  1.00  0.00     0.000 HD 
HETATM   30  O   UNL     1      -5.140  14.161  68.892  1.00  0.00    -0.077 OA 
HETATM   31  N   UNL     1      -6.313  13.233  70.618  1.00  0.00     0.146 N  
BRANCH  31  32
HETATM   32  C   UNL     1      -5.198  13.365  71.547  1.00  0.00    -0.186 C  
BRANCH  32  33
HETATM   33  C   UNL     1      -5.503  14.330  72.696  1.00  0.00    -0.131 C  
HETATM   34  O   UNL     1      -6.781  14.941  72.463  1.00  0.00     1.268 OA 
HETATM   35  H   UNL     1      -6.971  15.540  73.176  1.00  0.00     0.000 HD 
BRANCH  33  36
HETATM   36  C   UNL     1      -5.489  13.602  74.051  1.00  0.00    -0.061 C  
HETATM   37  O   UNL     1      -5.354  12.191  73.890  1.00  0.00    -0.145 OA 
HETATM   38  H   UNL     1      -5.345  11.741  74.727  1.00  0.00     0.000 HD 
ENDBRANCH  33  36
ENDBRANCH  32  33
ENDBRANCH  31  32
ENDBRANCH  16  28
ENDBRANCH   6   8
ENDBRANCH   3   4
ENDBRANCH   2   3
TORSDOF 11
ENDMDL
MODEL      155
REMARK 921   NORMALIZED FREE ENERGY PREDICTED BY IDOCK:    2.19 KCAL/MOL
REMARK 922        TOTAL FREE ENERGY PREDICTED BY IDOCK:    2.47 KCAL/MOL
REMARK 923 INTER-LIGAND FREE ENERGY PREDICTED BY IDOCK:    1.16 KCAL/MOL
REMARK 924 INTRA-LIGAND FREE ENERGY PREDICTED BY IDOCK:    1.31 KCAL/MOL
REMARK 927      BINDING AFFINITY PREDICTED BY RF-SCORE:    0.00 PKD
ROOT
HETATM    1  C   UNL     1     -12.750  20.007  67.528  1.00  0.00     4.740 C  
HETATM    2  O   UNL     1     -11.515  19.501  68.026  1.00  0.00     0.453 OA 
ENDROOT
BRANCH   2   3
HETATM    3  C   UNL     1     -10.868  18.636  67.102  1.00  0.00    -0.280 C  
BRANCH   3   4
HETATM    4  C   UNL     1     -10.326  17.344  67.737  1.00  0.00    -0.358 C  
HETATM    5  O   UNL     1     -10.479  17.099  68.931  1.00  0.00    -0.332 OA 
HETATM    6  N   UNL     1      -9.681  16.484  66.840  1.00  0.00    -0.243 N  
HETATM    7  H   UNL     1      -9.546  16.740  65.862  1.00  0.00     0.000 HD 
BRANCH   6   8
HETATM    8  C   UNL     1      -9.222  15.235  67.354  1.00  0.00    -0.195 A  
HETATM    9  C   UNL     1      -9.953  14.042  67.130  1.00  0.00    -0.252 A  
HETATM   10  C   UNL     1      -9.371  12.763  67.376  1.00  0.00    -0.193 A  
HETATM   11  I   UNL     1     -11.952  14.284  66.368  1.00  0.00    -0.301 I  
HETATM   12  C   UNL     1      -7.989  15.174  68.042  1.00  0.00    -0.132 A  
HETATM   13  C   UNL     1      -8.035  12.750  67.857  1.00  0.00    -0.158 A  
HETATM   14  I   UNL     1      -6.759  11.053  67.452  1.00  0.00    -0.103 I  
HETATM   15  I   UNL     1      -7.159  17.039  68.753  1.00  0.00    -0.218 I  
HETATM   16  C   UNL     1      -7.404  13.929  68.339  1.00  0.00    -0.115 A  
BRANCH  10  17
HETATM   17  C   UNL     1     -10.125  11.515  66.988  1.00  0.00    -0.210 C  
HETATM   18  O   UNL     1     -10.503  11.437  65.818  1.00  0.00    -0.249 OA 
HETATM   19  C   UNL     1      -9.973  10.356  69.272  1.00  0.00    -0.228 C  
HETATM   20  N   UNL     1     -10.454  10.497  67.904  1.00  0.00    -0.195 N  
BRANCH  20  21
HETATM   21  C   UNL     1     -11.387   9.421  67.468  1.00  0.00     0.730 C  
BRANCH  21  22
HETATM   22  C   UNL     1     -10.658   8.098  67.119  1.00  0.00    -0.285 C  
HETATM   23  H   UNL     1      -8.884   7.542  66.424  1.00  0.00     0.000 HD 
HETATM   24  O   UNL     1      -9.330   8.353  66.638  1.00  0.00    -0.164 OA 
BRANCH  22  25
HETATM   25  C   UNL     1     -10.551   7.143  68.317  1.00  0.00    -0.188 C  
HETATM   26  H   UNL     1     -10.382   5.199  68.626  1.00  0.00     0.000 HD 
HETATM   27  O   UNL     1     -10.448   5.789  67.885  1.00  0.00    -0.201 OA 
ENDBRANCH  22  25
ENDBRANCH  21  22
ENDBRANCH  20  21
ENDBRANCH  10  17
BRANCH  16  28
HETATM   28  C   UNL     1      -6.168  13.864  69.181  1.00  0.00    -0.098 C  
HETATM   29  H   UNL     1      -7.095  12.556  70.536  1.00  0.00     0.000 HD 
HETATM   30  O   UNL     1      -5.161  14.492  68.900  1.00  0.00    -0.085 OA 
HETATM   31  N   UNL     1      -6.257  13.107  70.348  1.00  0.00    -0.041 N  
BRANCH  31  32
HETATM   32  C   UNL     1      -5.153  13.102  71.299  1.00  0.00    -0.168 C  
BRANCH  32  33
HETATM   33  C   UNL     1      -5.162  14.332  72.213  1.00  0.00    -0.202 C  
HETATM   34  O   UNL     1      -5.822  15.410  71.535  1.00  0.00     0.273 OA 
HETATM   35  H   UNL     1      -5.827  16.173  72.102  1.00  0.00     0.000 HD 
BRANCH  33  36
HETATM   36  C   UNL     1      -5.858  14.024  73.550  1.00  0.00     0.163 C  
HETATM   37  O   UNL     1      -5.653  12.671  73.952  1.00  0.00    -0.002 OA 
HETATM   38  H   UNL     1      -6.083  12.482  74.778  1.00  0.00     0.000 HD 
ENDBRANCH  33  36
ENDBRANCH  32  33
ENDBRANCH  31  32
ENDBRANCH  16  28
ENDBRANCH   6   8
ENDBRANCH   3   4
ENDBRANCH   2   3
TORSDOF 11
ENDMDL
MODEL      156
REMARK 921   NORMALIZED FREE ENERGY PREDICTED BY IDOCK:    2.24 KCAL/MOL
REMARK 922        TOTAL FREE ENERGY PREDICTED BY IDOCK:    2.56 KCAL/MOL
REMARK 923 INTER-LIGAND FREE ENERGY PREDICTED BY IDOCK:   -0.12 KCAL/MOL
REMARK 924 INTRA-LIGAND FREE ENERGY PREDICTED BY IDOCK:    2.68 KCAL/MOL
REMARK 927      BINDING AFFINITY PREDICTED BY RF-SCORE:    0.00 PKD
ROOT
HETATM    1  C   UNL     1      -5.284  12.665  71.621  1.00  0.00    -0.051 C  
HETATM    2  O   UNL     1      -5.160  13.910  72.303  1.00  0.00    -0.161 OA 
ENDROOT
BRANCH   2   3
HETATM    3  C   UNL     1      -6.381  14.638  72.337  1.00  0.00     1.067 C  
BRANCH   3   4
HETATM    4  C   UNL     1      -6.911  15.024  70.945  1.00  0.00     0.693 C  
HETATM    5  O   UNL     1      -7.324  16.155  70.704  1.00  0.00     1.428 OA 
HETATM    6  N   UNL     1      -6.852  13.996  69.996  1.00  0.00    -0.375 N  
HETATM    7  H   UNL     1      -6.531  13.060  70.245  1.00  0.00     0.000 HD 
BRANCH   6   8
HETATM    8  C   UNL     1      -7.259  14.315  68.667  1.00  0.00    -0.125 A  
HETATM    9  C   UNL     1      -8.138  13.464  67.951  1.00  0.00    -0.162 A  
HETATM   10  C   UNL     1      -8.779  13.903  66.756  1.00  0.00    -0.119 A  
HETATM   11  I   UNL     1      -8.464  11.511  68.796  1.00  0.00     0.180 I  
HETATM   12  C   UNL     1      -6.832  15.526  68.076  1.00  0.00    -0.136 A  
HETATM   13  C   UNL     1      -8.490  15.224  66.323  1.00  0.00     0.072 A  
HETATM   14  I   UNL     1      -9.940  16.318  65.150  1.00  0.00     1.127 I  
HETATM   15  I   UNL     1      -5.161  16.541  68.998  1.00  0.00    -0.122 I  
HETATM   16  C   UNL     1      -7.413  15.972  66.875  1.00  0.00    -0.253 A  
BRANCH  10  17
HETATM   17  C   UNL     1      -9.818  13.026  66.102  1.00  0.00    -0.273 C  
HETATM   18  O   UNL     1      -9.436  12.311  65.174  1.00  0.00    -0.064 OA 
HETATM   19  C   UNL     1     -11.775  13.707  67.616  1.00  0.00    -0.363 C  
HETATM   20  N   UNL     1     -11.180  13.041  66.464  1.00  0.00    -0.292 N  
BRANCH  20  21
HETATM   21  C   UNL     1     -12.152  12.305  65.610  1.00  0.00    -0.234 C  
BRANCH  21  22
HETATM   22  C   UNL     1     -12.282  12.909  64.188  1.00  0.00    -0.414 C  
HETATM   23  H   UNL     1     -12.944  12.333  62.407  1.00  0.00     0.000 HD 
HETATM   24  O   UNL     1     -12.865  11.963  63.278  1.00  0.00    -0.702 OA 
BRANCH  22  25
HETATM   25  C   UNL     1     -13.138  14.183  64.157  1.00  0.00     1.028 C  
HETATM   26  H   UNL     1     -14.303  15.191  65.394  1.00  0.00     0.000 HD 
HETATM   27  O   UNL     1     -13.773  14.403  65.413  1.00  0.00    -0.236 OA 
ENDBRANCH  22  25
ENDBRANCH  21  22
ENDBRANCH  20  21
ENDBRANCH  10  17
BRANCH  16  28
HETATM   28  C   UNL     1      -6.870  17.183  66.185  1.00  0.00    -0.123 C  
HETATM   29  H   UNL     1      -8.164  18.441  67.258  1.00  0.00     0.000 HD 
HETATM   30  O   UNL     1      -6.000  17.107  65.334  1.00  0.00     0.369 OA 
HETATM   31  N   UNL     1      -7.470  18.399  66.511  1.00  0.00    -0.226 N  
BRANCH  31  32
HETATM   32  C   UNL     1      -7.106  19.609  65.785  1.00  0.00    -0.303 C  
BRANCH  32  33
HETATM   33  C   UNL     1      -6.809  20.786  66.720  1.00  0.00    -0.286 C  
HETATM   34  O   UNL     1      -8.022  21.169  67.384  1.00  0.00    -0.506 OA 
HETATM   35  H   UNL     1      -7.838  21.900  67.964  1.00  0.00     0.000 HD 
BRANCH  33  36
HETATM   36  C   UNL     1      -5.721  20.421  67.744  1.00  0.00    -0.207 C  
HETATM   37  O   UNL     1      -6.015  20.949  69.036  1.00  0.00    -0.347 OA 
HETATM   38  H   UNL     1      -5.343  20.723  69.668  1.00  0.00     0.000 HD 
ENDBRANCH  33  36
ENDBRANCH  32  33
ENDBRANCH  31  32
ENDBRANCH  16  28
ENDBRANCH   6   8
ENDBRANCH   3   4
ENDBRANCH   2   3
TORSDOF 11
ENDMDL
MODEL      157
REMARK 921   NORMALIZED FREE ENERGY PREDICTED BY IDOCK:    2.56 KCAL/MOL
REMARK 922        TOTAL FREE ENERGY PREDICTED BY IDOCK:    3.08 KCAL/MOL
REMARK 923 INTER-LIGAND FREE ENERGY PREDICTED BY IDOCK:    0.72 KCAL/MOL
REMARK 924 INTRA-LIGAND FREE ENERGY PREDICTED BY IDOCK:    2.36 KCAL/MOL
REMARK 927      BINDING AFFINITY PREDICTED BY RF-SCORE:    0.00 PKD
ROOT
HETATM    1  C   UNL     1     -12.508  13.522  65.011  1.00  0.00    -0.417 C  
HETATM    2  O   UNL     1     -11.951  12.375  65.645  1.00  0.00    -0.447 OA 
ENDROOT
BRANCH   2   3
HETATM    3  C   UNL     1     -10.903  11.786  64.886  1.00  0.00    -0.298 C  
BRANCH   3   4
HETATM    4  C   UNL     1      -9.969  10.886  65.713  1.00  0.00    -0.247 C  
HETATM    5  O   UNL     1      -9.060  10.247  65.189  1.00  0.00    -0.169 OA 
HETATM    6  N   UNL     1     -10.230  10.888  67.088  1.00  0.00    -0.201 N  
HETATM    7  H   UNL     1     -11.015  11.409  67.480  1.00  0.00     0.000 HD 
BRANCH   6   8
HETATM    8  C   UNL     1      -9.350  10.131  67.918  1.00  0.00    -0.141 A  
HETATM    9  C   UNL     1      -9.344   8.714  67.871  1.00  0.00    -0.142 A  
HETATM   10  C   UNL     1      -8.288   7.962  68.464  1.00  0.00    -0.128 A  
HETATM   11  I   UNL     1     -10.987   7.794  66.828  1.00  0.00     1.851 I  
HETATM   12  C   UNL     1      -8.428  10.802  68.754  1.00  0.00    -0.148 A  
HETATM   13  C   UNL     1      -7.256   8.699  69.101  1.00  0.00    -0.064 A  
HETATM   14  I   UNL     1      -5.266   7.869  69.245  1.00  0.00    -0.023 I  
HETATM   15  I   UNL     1      -8.782  12.899  69.136  1.00  0.00     1.375 I  
HETATM   16  C   UNL     1      -7.397  10.085  69.389  1.00  0.00    -0.100 A  
BRANCH  10  17
HETATM   17  C   UNL     1      -8.238   6.466  68.268  1.00  0.00    -0.116 C  
HETATM   18  O   UNL     1      -9.063   5.798  68.894  1.00  0.00    -0.115 OA 
HETATM   19  C   UNL     1      -6.327   6.457  66.556  1.00  0.00    -0.042 C  
HETATM   20  N   UNL     1      -7.272   5.825  67.468  1.00  0.00    -0.074 N  
BRANCH  20  21
HETATM   21  C   UNL     1      -7.176   4.340  67.521  1.00  0.00    -0.068 C  
BRANCH  21  22
HETATM   22  C   UNL     1      -8.467   3.636  67.029  1.00  0.00    -0.105 C  
HETATM   23  H   UNL     1      -9.501   3.483  65.342  1.00  0.00     0.000 HD 
HETATM   24  O   UNL     1      -8.710   3.914  65.642  1.00  0.00    -0.112 OA 
BRANCH  22  25
HETATM   25  C   UNL     1      -8.416   2.110  67.202  1.00  0.00    -0.094 C  
HETATM   26  H   UNL     1      -9.564   0.685  67.946  1.00  0.00     0.000 HD 
HETATM   27  O   UNL     1      -9.595   1.628  67.839  1.00  0.00    -0.152 OA 
ENDBRANCH  22  25
ENDBRANCH  21  22
ENDBRANCH  20  21
ENDBRANCH  10  17
BRANCH  16  28
HETATM   28  C   UNL     1      -6.504  10.772  70.374  1.00  0.00    -0.074 C  
HETATM   29  H   UNL     1      -6.538  12.545  69.250  1.00  0.00     0.000 HD 
HETATM   30  O   UNL     1      -6.073  10.203  71.362  1.00  0.00    -0.301 OA 
HETATM   31  N   UNL     1      -6.128  12.077  70.058  1.00  0.00    -0.155 N  
BRANCH  31  32
HETATM   32  C   UNL     1      -5.148  12.772  70.883  1.00  0.00    -0.141 C  
BRANCH  32  33
HETATM   33  C   UNL     1      -5.670  14.113  71.409  1.00  0.00    -0.223 C  
HETATM   34  O   UNL     1      -6.307  14.818  70.332  1.00  0.00    -0.175 OA 
HETATM   35  H   UNL     1      -6.630  15.650  70.659  1.00  0.00     0.000 HD 
BRANCH  33  36
HETATM   36  C   UNL     1      -6.648  13.908  72.577  1.00  0.00     2.447 C  
HETATM   37  O   UNL     1      -5.966  13.819  73.827  1.00  0.00    -0.474 OA 
HETATM   38  H   UNL     1      -6.571  13.693  74.549  1.00  0.00     0.000 HD 
ENDBRANCH  33  36
ENDBRANCH  32  33
ENDBRANCH  31  32
ENDBRANCH  16  28
ENDBRANCH   6   8
ENDBRANCH   3   4
ENDBRANCH   2   3
TORSDOF 11
ENDMDL
MODEL      158
REMARK 921   NORMALIZED FREE ENERGY PREDICTED BY IDOCK:    2.66 KCAL/MOL
REMARK 922        TOTAL FREE ENERGY PREDICTED BY IDOCK:    3.25 KCAL/MOL
REMARK 923 INTER-LIGAND FREE ENERGY PREDICTED BY IDOCK:    0.58 KCAL/MOL
REMARK 924 INTRA-LIGAND FREE ENERGY PREDICTED BY IDOCK:    2.67 KCAL/MOL
REMARK 927      BINDING AFFINITY PREDICTED BY RF-SCORE:    0.00 PKD
ROOT
HETATM    1  C   UNL     1     -10.987  14.139  64.274  1.00  0.00    -0.085 C  
HETATM    2  O   UNL     1     -11.124  14.995  65.404  1.00  0.00    -0.344 OA 
ENDROOT
BRANCH   2   3
HETATM    3  C   UNL     1      -9.932  15.077  66.174  1.00  0.00    -0.291 C  
BRANCH   3   4
HETATM    4  C   UNL     1      -9.568  13.766  66.893  1.00  0.00    -0.262 C  
HETATM    5  O   UNL     1      -8.956  13.764  67.958  1.00  0.00    -0.171 OA 
HETATM    6  N   UNL     1     -10.015  12.608  66.247  1.00  0.00    -0.254 N  
HETATM    7  H   UNL     1     -10.493  12.651  65.346  1.00  0.00     0.000 HD 
BRANCH   6   8
HETATM    8  C   UNL     1      -9.773  11.363  66.902  1.00  0.00    -0.192 A  
HETATM    9  C   UNL     1      -8.887  10.407  66.345  1.00  0.00    -0.147 A  
HETATM   10  C   UNL     1      -8.413   9.305  67.115  1.00  0.00    -0.124 A  
HETATM   11  I   UNL     1      -8.285  10.747  64.306  1.00  0.00     0.451 I  
HETATM   12  C   UNL     1     -10.375  11.105  68.154  1.00  0.00    -0.187 A  
HETATM   13  C   UNL     1      -8.874   9.215  68.455  1.00  0.00    -0.129 A  
HETATM   14  I   UNL     1      -7.663   8.230  69.950  1.00  0.00    -0.104 I  
HETATM   15  I   UNL     1     -12.042  12.355  68.728  1.00  0.00     0.375 I  
HETATM   16  C   UNL     1      -9.961  10.002  68.924  1.00  0.00    -0.198 A  
BRANCH  10  17
HETATM   17  C   UNL     1      -7.359   8.392  66.538  1.00  0.00    -0.081 C  
HETATM   18  O   UNL     1      -6.353   8.930  66.073  1.00  0.00    -0.055 OA 
HETATM   19  C   UNL     1      -8.553   6.185  67.079  1.00  0.00    -0.108 C  
HETATM   20  N   UNL     1      -7.510   6.993  66.459  1.00  0.00    -0.079 N  
BRANCH  20  21
HETATM   21  C   UNL     1      -6.514   6.213  65.675  1.00  0.00    -0.043 C  
BRANCH  21  22
HETATM   22  C   UNL     1      -6.949   5.990  64.203  1.00  0.00    -0.051 C  
HETATM   23  H   UNL     1      -6.176   6.244  62.392  1.00  0.00     0.000 HD 
HETATM   24  O   UNL     1      -5.909   6.381  63.294  1.00  0.00    -0.025 OA 
BRANCH  22  25
HETATM   25  C   UNL     1      -7.312   4.528  63.904  1.00  0.00    -0.055 C  
HETATM   26  H   UNL     1      -6.369   2.814  63.631  1.00  0.00     0.000 HD 
HETATM   27  O   UNL     1      -6.144   3.718  63.816  1.00  0.00    -0.014 OA 
ENDBRANCH  22  25
ENDBRANCH  21  22
ENDBRANCH  20  21
ENDBRANCH  10  17
BRANCH  16  28
HETATM   28  C   UNL     1     -10.688   9.655  70.186  1.00  0.00    -0.275 C  
HETATM   29  H   UNL     1     -10.968  11.684  70.647  1.00  0.00     0.000 HD 
HETATM   30  O   UNL     1     -10.863   8.499  70.534  1.00  0.00    -0.220 OA 
HETATM   31  N   UNL     1     -11.086  10.728  70.982  1.00  0.00     0.427 N  
BRANCH  31  32
HETATM   32  C   UNL     1     -11.671  10.483  72.294  1.00  0.00     2.109 C  
BRANCH  32  33
HETATM   33  C   UNL     1     -13.017   9.756  72.210  1.00  0.00    -0.333 C  
HETATM   34  O   UNL     1     -13.153   8.897  73.352  1.00  0.00    -0.618 OA 
HETATM   35  H   UNL     1     -13.988   8.446  73.300  1.00  0.00     0.000 HD 
BRANCH  33  36
HETATM   36  C   UNL     1     -14.184  10.755  72.140  1.00  0.00     0.926 C  
HETATM   37  O   UNL     1     -14.086  11.752  73.155  1.00  0.00     0.736 OA 
HETATM   38  H   UNL     1     -14.807  12.370  73.111  1.00  0.00     0.000 HD 
ENDBRANCH  33  36
ENDBRANCH  32  33
ENDBRANCH  31  32
ENDBRANCH  16  28
ENDBRANCH   6   8
ENDBRANCH   3   4
ENDBRANCH   2   3
TORSDOF 11
ENDMDL
MODEL      159
REMARK 921   NORMALIZED FREE ENERGY PREDICTED BY IDOCK:    2.84 KCAL/MOL
REMARK 922        TOTAL FREE ENERGY PREDICTED BY IDOCK:    3.54 KCAL/MOL
REMARK 923 INTER-LIGAND FREE ENERGY PREDICTED BY IDOCK:    2.59 KCAL/MOL
REMARK 924 INTRA-LIGAND FREE ENERGY PREDICTED BY IDOCK:    0.96 KCAL/MOL
REMARK 927      BINDING AFFINITY PREDICTED BY RF-SCORE:    0.00 PKD
ROOT
HETATM    1  C   UNL     1     -14.241   8.739  69.770  1.00  0.00     4.028 C  
HETATM    2  O   UNL     1     -13.770   7.398  69.874  1.00  0.00     2.281 OA 
ENDROOT
BRANCH   2   3
HETATM    3  C   UNL     1     -12.908   7.208  70.988  1.00  0.00    -0.212 C  
BRANCH   3   4
HETATM    4  C   UNL     1     -11.416   7.165  70.615  1.00  0.00    -0.308 C  
HETATM    5  O   UNL     1     -10.672   8.120  70.824  1.00  0.00    -0.215 OA 
HETATM    6  N   UNL     1     -10.992   5.953  70.057  1.00  0.00    -0.360 N  
HETATM    7  H   UNL     1     -11.649   5.195  69.870  1.00  0.00     0.000 HD 
BRANCH   6   8
HETATM    8  C   UNL     1      -9.603   5.825  69.759  1.00  0.00    -0.157 A  
HETATM    9  C   UNL     1      -8.719   5.190  70.667  1.00  0.00    -0.127 A  
HETATM   10  C   UNL     1      -7.408   4.797  70.266  1.00  0.00    -0.051 A  
HETATM   11  I   UNL     1      -9.488   4.833  72.645  1.00  0.00    -0.186 I  
HETATM   12  C   UNL     1      -9.111   6.280  68.514  1.00  0.00    -0.125 A  
HETATM   13  C   UNL     1      -7.038   5.074  68.924  1.00  0.00    -0.053 A  
HETATM   14  I   UNL     1      -5.567   3.841  67.932  1.00  0.00    -0.023 I  
HETATM   15  I   UNL     1     -10.368   7.628  67.385  1.00  0.00    -0.350 I  
HETATM   16  C   UNL     1      -7.807   5.945  68.103  1.00  0.00    -0.105 A  
BRANCH  10  17
HETATM   17  C   UNL     1      -6.550   3.994  71.213  1.00  0.00    -0.026 C  
HETATM   18  O   UNL     1      -6.413   2.797  70.957  1.00  0.00    -0.022 OA 
HETATM   19  C   UNL     1      -5.908   5.944  72.754  1.00  0.00    -0.036 C  
HETATM   20  N   UNL     1      -5.969   4.537  72.376  1.00  0.00    -0.015 N  
BRANCH  20  21
HETATM   21  C   UNL     1      -5.330   3.611  73.352  1.00  0.00     0.000 C  
BRANCH  21  22
HETATM   22  C   UNL     1      -6.298   3.160  74.476  1.00  0.00    -0.021 C  
HETATM   23  H   UNL     1      -8.066   3.708  75.195  1.00  0.00     0.000 HD 
HETATM   24  O   UNL     1      -7.473   3.985  74.505  1.00  0.00    -0.072 OA 
BRANCH  22  25
HETATM   25  C   UNL     1      -6.749   1.700  74.324  1.00  0.00    -0.021 C  
HETATM   26  H   UNL     1      -8.372   0.724  73.764  1.00  0.00     0.000 HD 
HETATM   27  O   UNL     1      -8.093   1.626  73.858  1.00  0.00    -0.044 OA 
ENDBRANCH  22  25
ENDBRANCH  21  22
ENDBRANCH  20  21
ENDBRANCH  10  17
BRANCH  16  28
HETATM   28  C   UNL     1      -7.243   6.535  66.849  1.00  0.00    -0.078 C  
HETATM   29  H   UNL     1      -6.668   8.280  67.863  1.00  0.00     0.000 HD 
HETATM   30  O   UNL     1      -7.287   5.947  65.781  1.00  0.00    -0.073 OA 
HETATM   31  N   UNL     1      -6.734   7.829  66.951  1.00  0.00    -0.065 N  
BRANCH  31  32
HETATM   32  C   UNL     1      -6.296   8.536  65.754  1.00  0.00    -0.052 C  
BRANCH  32  33
HETATM   33  C   UNL     1      -7.277   9.633  65.330  1.00  0.00    -0.113 C  
HETATM   34  O   UNL     1      -6.610  10.529  64.427  1.00  0.00    -0.323 OA 
HETATM   35  H   UNL     1      -7.219  11.210  64.164  1.00  0.00     0.000 HD 
BRANCH  33  36
HETATM   36  C   UNL     1      -8.531   9.033  64.671  1.00  0.00    -0.177 C  
HETATM   37  O   UNL     1      -8.204   7.945  63.810  1.00  0.00    -0.312 OA 
HETATM   38  H   UNL     1      -8.979   7.574  63.403  1.00  0.00     0.000 HD 
ENDBRANCH  33  36
ENDBRANCH  32  33
ENDBRANCH  31  32
ENDBRANCH  16  28
ENDBRANCH   6   8
ENDBRANCH   3   4
ENDBRANCH   2   3
TORSDOF 11
ENDMDL
MODEL      160
REMARK 921   NORMALIZED FREE ENERGY PREDICTED BY IDOCK:    3.07 KCAL/MOL
REMARK 922        TOTAL FREE ENERGY PREDICTED BY IDOCK:    3.91 KCAL/MOL
REMARK 923 INTER-LIGAND FREE ENERGY PREDICTED BY IDOCK:   -1.69 KCAL/MOL
REMARK 924 INTRA-LIGAND FREE ENERGY PREDICTED BY IDOCK:    5.61 KCAL/MOL
REMARK 927      BINDING AFFINITY PREDICTED BY RF-SCORE:    0.00 PKD
ROOT
HETATM    1  C   UNL     1      -5.125   5.349  72.214  1.00  0.00    -0.012 C  
HETATM    2  O   UNL     1      -5.700   4.235  71.536  1.00  0.00    -0.010 OA 
ENDROOT
BRANCH   2   3
HETATM    3  C   UNL     1      -5.977   4.512  70.169  1.00  0.00    -0.017 C  
BRANCH   3   4
HETATM    4  C   UNL     1      -7.074   5.571  69.961  1.00  0.00    -0.066 C  
HETATM    5  O   UNL     1      -7.567   6.181  70.906  1.00  0.00    -0.092 OA 
HETATM    6  N   UNL     1      -7.426   5.786  68.624  1.00  0.00    -0.083 N  
HETATM    7  H   UNL     1      -7.015   5.235  67.870  1.00  0.00     0.000 HD 
BRANCH   6   8
HETATM    8  C   UNL     1      -8.385   6.809  68.360  1.00  0.00    -0.123 A  
HETATM    9  C   UNL     1      -9.684   6.752  68.923  1.00  0.00    -0.137 A  
HETATM   10  C   UNL     1     -10.543   7.890  68.912  1.00  0.00    -0.165 A  
HETATM   11  I   UNL     1     -10.249   4.876  69.814  1.00  0.00     0.154 I  
HETATM   12  C   UNL     1      -8.015   7.927  67.578  1.00  0.00    -0.123 A  
HETATM   13  C   UNL     1     -10.033   9.071  68.310  1.00  0.00    -0.173 A  
HETATM   14  I   UNL     1     -10.750  11.006  68.952  1.00  0.00    -0.305 I  
HETATM   15  I   UNL     1      -6.223   7.751  66.383  1.00  0.00    -0.047 I  
HETATM   16  C   UNL     1      -8.857   9.053  67.510  1.00  0.00    -0.128 A  
BRANCH  10  17
HETATM   17  C   UNL     1     -11.859   7.837  69.649  1.00  0.00     0.734 C  
HETATM   18  O   UNL     1     -12.620   6.912  69.358  1.00  0.00     1.289 OA 
HETATM   19  C   UNL     1     -11.443   9.880  71.145  1.00  0.00    -0.383 C  
HETATM   20  N   UNL     1     -12.261   8.813  70.581  1.00  0.00    -0.026 N  
BRANCH  20  21
HETATM   21  C   UNL     1     -13.663   8.786  71.080  1.00  0.00    -0.047 C  
BRANCH  21  22
HETATM   22  C   UNL     1     -13.899   9.757  72.266  1.00  0.00    -0.146 C  
HETATM   23  H   UNL     1     -13.314   9.932  74.155  1.00  0.00     0.000 HD 
HETATM   24  O   UNL     1     -13.169   9.337  73.429  1.00  0.00     0.412 OA 
BRANCH  22  25
HETATM   25  C   UNL     1     -13.485  11.201  71.945  1.00  0.00    -0.180 C  
HETATM   26  H   UNL     1     -13.937  13.022  72.562  1.00  0.00     0.000 HD 
HETATM   27  O   UNL     1     -14.193  12.130  72.761  1.00  0.00     0.343 OA 
ENDBRANCH  22  25
ENDBRANCH  21  22
ENDBRANCH  20  21
ENDBRANCH  10  17
BRANCH  16  28
HETATM   28  C   UNL     1      -8.529  10.179  66.581  1.00  0.00    -0.126 C  
HETATM   29  H   UNL     1     -10.017   9.571  65.231  1.00  0.00     0.000 HD 
HETATM   30  O   UNL     1      -7.637  10.975  66.821  1.00  0.00    -0.126 OA 
HETATM   31  N   UNL     1      -9.247  10.221  65.387  1.00  0.00    -0.178 N  
BRANCH  31  32
HETATM   32  C   UNL     1      -8.896  11.195  64.361  1.00  0.00     0.102 C  
BRANCH  32  33
HETATM   33  C   UNL     1     -10.069  11.512  63.428  1.00  0.00    -0.420 C  
HETATM   34  O   UNL     1     -10.126  10.513  62.398  1.00  0.00    -0.746 OA 
HETATM   35  H   UNL     1     -10.854  10.710  61.819  1.00  0.00     0.000 HD 
BRANCH  33  36
HETATM   36  C   UNL     1     -11.395  11.568  64.204  1.00  0.00    -0.267 C  
HETATM   37  O   UNL     1     -12.429  12.182  63.436  1.00  0.00    -0.598 OA 
HETATM   38  H   UNL     1     -13.249  12.217  63.915  1.00  0.00     0.000 HD 
ENDBRANCH  33  36
ENDBRANCH  32  33
ENDBRANCH  31  32
ENDBRANCH  16  28
ENDBRANCH   6   8
ENDBRANCH   3   4
ENDBRANCH   2   3
TORSDOF 11
ENDMDL
MODEL      161
REMARK 921   NORMALIZED FREE ENERGY PREDICTED BY IDOCK:    3.97 KCAL/MOL
REMARK 922        TOTAL FREE ENERGY PREDICTED BY IDOCK:    5.41 KCAL/MOL
REMARK 923 INTER-LIGAND FREE ENERGY PREDICTED BY IDOCK:    0.03 KCAL/MOL
REMARK 924 INTRA-LIGAND FREE ENERGY PREDICTED BY IDOCK:    5.38 KCAL/MOL
REMARK 927      BINDING AFFINITY PREDICTED BY RF-SCORE:    0.00 PKD
ROOT
HETATM    1  C   UNL     1      -6.721  14.723  70.951  1.00  0.00     0.473 C  
HETATM    2  O   UNL     1      -6.423  15.463  69.770  1.00  0.00    -0.155 OA 
ENDROOT
BRANCH   2   3
HETATM    3  C   UNL     1      -6.178  14.625  68.648  1.00  0.00    -0.086 C  
BRANCH   3   4
HETATM    4  C   UNL     1      -6.715  13.194  68.815  1.00  0.00    -0.100 C  
HETATM    5  O   UNL     1      -7.847  12.884  68.453  1.00  0.00    -0.133 OA 
HETATM    6  N   UNL     1      -5.802  12.295  69.379  1.00  0.00    -0.083 N  
HETATM    7  H   UNL     1      -4.881  12.600  69.696  1.00  0.00     0.000 HD 
BRANCH   6   8
HETATM    8  C   UNL     1      -6.215  10.933  69.492  1.00  0.00    -0.073 A  
HETATM    9  C   UNL     1      -6.822  10.264  68.400  1.00  0.00    -0.061 A  
HETATM   10  C   UNL     1      -6.970   8.846  68.395  1.00  0.00    -0.065 A  
HETATM   11  I   UNL     1      -7.459  11.506  66.762  1.00  0.00     0.048 I  
HETATM   12  C   UNL     1      -5.959  10.223  70.686  1.00  0.00    -0.106 A  
HETATM   13  C   UNL     1      -6.485   8.147  69.532  1.00  0.00    -0.034 A  
HETATM   14  I   UNL     1      -5.828   6.097  69.341  1.00  0.00    -0.019 I  
HETATM   15  I   UNL     1      -5.470  11.383  72.443  1.00  0.00     1.568 I  
HETATM   16  C   UNL     1      -6.133   8.827  70.731  1.00  0.00    -0.037 A  
BRANCH  10  17
HETATM   17  C   UNL     1      -7.486   8.155  67.156  1.00  0.00    -0.089 C  
HETATM   18  O   UNL     1      -8.619   7.674  67.222  1.00  0.00    -0.120 OA 
HETATM   19  C   UNL     1      -5.433   8.612  65.686  1.00  0.00    -0.035 C  
HETATM   20  N   UNL     1      -6.718   7.993  65.987  1.00  0.00    -0.053 N  
BRANCH  20  21
HETATM   21  C   UNL     1      -7.239   7.106  64.910  1.00  0.00    -0.071 C  
BRANCH  21  22
HETATM   22  C   UNL     1      -7.073   7.718  63.494  1.00  0.00    -0.075 C  
HETATM   23  H   UNL     1      -6.658   7.078  61.662  1.00  0.00     0.000 HD 
HETATM   24  O   UNL     1      -6.760   6.702  62.529  1.00  0.00    -0.041 OA 
BRANCH  22  25
HETATM   25  C   UNL     1      -8.331   8.456  63.013  1.00  0.00    -0.102 C  
HETATM   26  H   UNL     1      -8.777  10.187  62.173  1.00  0.00     0.000 HD 
HETATM   27  O   UNL     1      -8.000   9.731  62.471  1.00  0.00    -0.114 OA 
ENDBRANCH  22  25
ENDBRANCH  21  22
ENDBRANCH  20  21
ENDBRANCH  10  17
BRANCH  16  28
HETATM   28  C   UNL     1      -5.989   8.096  72.029  1.00  0.00    -0.045 C  
HETATM   29  H   UNL     1      -4.742   6.658  71.142  1.00  0.00     0.000 HD 
HETATM   30  O   UNL     1      -6.551   8.466  73.046  1.00  0.00    -0.096 OA 
HETATM   31  N   UNL     1      -5.238   6.921  71.993  1.00  0.00    -0.031 N  
BRANCH  31  32
HETATM   32  C   UNL     1      -5.163   6.069  73.173  1.00  0.00    -0.027 C  
BRANCH  32  33
HETATM   33  C   UNL     1      -6.228   4.968  73.170  1.00  0.00    -0.038 C  
HETATM   34  O   UNL     1      -5.599   3.714  72.870  1.00  0.00     0.000 OA 
HETATM   35  H   UNL     1      -6.259   3.030  72.868  1.00  0.00     0.000 HD 
BRANCH  33  36
HETATM   36  C   UNL     1      -6.959   4.899  74.522  1.00  0.00    -0.073 C  
HETATM   37  O   UNL     1      -8.375   4.923  74.357  1.00  0.00    -0.101 OA 
HETATM   38  H   UNL     1      -8.826   4.880  75.193  1.00  0.00     0.000 HD 
ENDBRANCH  33  36
ENDBRANCH  32  33
ENDBRANCH  31  32
ENDBRANCH  16  28
ENDBRANCH   6   8
ENDBRANCH   3   4
ENDBRANCH   2   3
TORSDOF 11
ENDMDL
MODEL      162
REMARK 921   NORMALIZED FREE ENERGY PREDICTED BY IDOCK:    4.49 KCAL/MOL
REMARK 922        TOTAL FREE ENERGY PREDICTED BY IDOCK:    6.26 KCAL/MOL
REMARK 923 INTER-LIGAND FREE ENERGY PREDICTED BY IDOCK:    3.38 KCAL/MOL
REMARK 924 INTRA-LIGAND FREE ENERGY PREDICTED BY IDOCK:    2.88 KCAL/MOL
REMARK 927      BINDING AFFINITY PREDICTED BY RF-SCORE:    0.00 PKD
ROOT
HETATM    1  C   UNL     1      -9.835   9.262  62.343  1.00  0.00     1.479 C  
HETATM    2  O   UNL     1     -10.557  10.277  63.035  1.00  0.00     0.622 OA 
ENDROOT
BRANCH   2   3
HETATM    3  C   UNL     1      -9.740  11.386  63.385  1.00  0.00    -0.365 C  
BRANCH   3   4
HETATM    4  C   UNL     1      -9.951  11.880  64.826  1.00  0.00    -0.235 C  
HETATM    5  O   UNL     1      -9.384  11.350  65.778  1.00  0.00    -0.221 OA 
HETATM    6  N   UNL     1     -10.806  12.983  64.942  1.00  0.00    -0.308 N  
HETATM    7  H   UNL     1     -11.282  13.375  64.129  1.00  0.00     0.000 HD 
BRANCH   6   8
HETATM    8  C   UNL     1     -10.983  13.534  66.246  1.00  0.00    -0.289 A  
HETATM    9  C   UNL     1     -11.341  12.711  67.342  1.00  0.00    -0.313 A  
HETATM   10  C   UNL     1     -11.236  13.183  68.684  1.00  0.00    -0.314 A  
HETATM   11  I   UNL     1     -12.006  10.722  66.857  1.00  0.00     3.567 I  
HETATM   12  C   UNL     1     -10.736  14.909  66.462  1.00  0.00    -0.309 A  
HETATM   13  C   UNL     1     -10.762  14.509  68.861  1.00  0.00    -0.254 A  
HETATM   14  I   UNL     1      -9.738  15.056  70.684  1.00  0.00     2.293 I  
HETATM   15  I   UNL     1     -10.651  16.185  64.719  1.00  0.00     0.927 I  
HETATM   16  C   UNL     1     -10.667  15.419  67.772  1.00  0.00    -0.289 A  
BRANCH  10  17
HETATM   17  C   UNL     1     -11.486  12.233  69.829  1.00  0.00    -0.166 C  
HETATM   18  O   UNL     1     -12.327  12.577  70.661  1.00  0.00    -0.355 OA 
HETATM   19  C   UNL     1      -9.854  10.408  69.061  1.00  0.00    -0.212 C  
HETATM   20  N   UNL     1     -10.769  11.034  70.008  1.00  0.00    -0.018 N  
BRANCH  20  21
HETATM   21  C   UNL     1     -10.938  10.286  71.284  1.00  0.00     0.391 C  
BRANCH  21  22
HETATM   22  C   UNL     1     -12.168   9.341  71.269  1.00  0.00    -0.334 C  
HETATM   23  H   UNL     1     -13.943   9.261  70.383  1.00  0.00     0.000 HD 
HETATM   24  O   UNL     1     -13.189   9.840  70.392  1.00  0.00     0.007 OA 
BRANCH  22  25
HETATM   25  C   UNL     1     -11.818   7.914  70.823  1.00  0.00    -0.176 C  
HETATM   26  H   UNL     1     -10.489   6.526  71.277  1.00  0.00     0.000 HD 
HETATM   27  O   UNL     1     -10.705   7.408  71.553  1.00  0.00    -0.221 OA 
ENDBRANCH  22  25
ENDBRANCH  21  22
ENDBRANCH  20  21
ENDBRANCH  10  17
BRANCH  16  28
HETATM   28  C   UNL     1     -10.537  16.893  67.995  1.00  0.00    -0.367 C  
HETATM   29  H   UNL     1      -8.513  16.854  67.439  1.00  0.00     0.000 HD 
HETATM   30  O   UNL     1     -11.471  17.572  68.386  1.00  0.00     0.283 OA 
HETATM   31  N   UNL     1      -9.265  17.435  67.809  1.00  0.00    -0.245 N  
BRANCH  31  32
HETATM   32  C   UNL     1      -9.013  18.831  68.142  1.00  0.00    -0.308 C  
BRANCH  32  33
HETATM   33  C   UNL     1      -7.523  19.125  68.343  1.00  0.00    -0.307 C  
HETATM   34  O   UNL     1      -7.337  19.720  69.636  1.00  0.00    -0.246 OA 
HETATM   35  H   UNL     1      -6.412  19.903  69.761  1.00  0.00     0.000 HD 
BRANCH  33  36
HETATM   36  C   UNL     1      -6.681  17.846  68.207  1.00  0.00    -0.205 C  
HETATM   37  O   UNL     1      -5.562  18.040  67.345  1.00  0.00    -0.133 OA 
HETATM   38  H   UNL     1      -5.041  17.249  67.262  1.00  0.00     0.000 HD 
ENDBRANCH  33  36
ENDBRANCH  32  33
ENDBRANCH  31  32
ENDBRANCH  16  28
ENDBRANCH   6   8
ENDBRANCH   3   4
ENDBRANCH   2   3
TORSDOF 11
ENDMDL
MODEL      163
REMARK 921   NORMALIZED FREE ENERGY PREDICTED BY IDOCK:    4.60 KCAL/MOL
REMARK 922        TOTAL FREE ENERGY PREDICTED BY IDOCK:    6.43 KCAL/MOL
REMARK 923 INTER-LIGAND FREE ENERGY PREDICTED BY IDOCK:   -4.06 KCAL/MOL
REMARK 924 INTRA-LIGAND FREE ENERGY PREDICTED BY IDOCK:   10.49 KCAL/MOL
REMARK 927      BINDING AFFINITY PREDICTED BY RF-SCORE:    0.00 PKD
ROOT
HETATM    1  C   UNL     1      -5.837   5.486  63.565  1.00  0.00    -0.017 C  
HETATM    2  O   UNL     1      -5.126   6.703  63.353  1.00  0.00    -0.024 OA 
ENDROOT
BRANCH   2   3
HETATM    3  C   UNL     1      -5.701   7.799  64.052  1.00  0.00    -0.052 C  
BRANCH   3   4
HETATM    4  C   UNL     1      -6.524   7.385  65.284  1.00  0.00    -0.041 C  
HETATM    5  O   UNL     1      -7.326   6.456  65.240  1.00  0.00    -0.071 OA 
HETATM    6  N   UNL     1      -6.258   8.133  66.437  1.00  0.00    -0.045 N  
HETATM    7  H   UNL     1      -5.607   8.918  66.423  1.00  0.00     0.000 HD 
BRANCH   6   8
HETATM    8  C   UNL     1      -6.936   7.749  67.632  1.00  0.00    -0.081 A  
HETATM    9  C   UNL     1      -7.735   8.676  68.346  1.00  0.00    -0.100 A  
HETATM   10  C   UNL     1      -8.640   8.243  69.359  1.00  0.00    -0.134 A  
HETATM   11  I   UNL     1      -7.522  10.742  67.783  1.00  0.00    -0.100 I  
HETATM   12  C   UNL     1      -6.861   6.409  68.077  1.00  0.00    -0.070 A  
HETATM   13  C   UNL     1      -8.695   6.847  69.614  1.00  0.00    -0.141 A  
HETATM   14  I   UNL     1     -10.507   5.962  70.392  1.00  0.00    -0.370 I  
HETATM   15  I   UNL     1      -5.295   5.174  67.244  1.00  0.00    -0.013 I  
HETATM   16  C   UNL     1      -7.711   5.956  69.103  1.00  0.00    -0.091 A  
BRANCH  10  17
HETATM   17  C   UNL     1      -9.578   9.239  69.995  1.00  0.00    -0.209 C  
HETATM   18  O   UNL     1      -9.320   9.584  71.150  1.00  0.00    -0.222 OA 
HETATM   19  C   UNL     1     -11.115   9.536  67.962  1.00  0.00     0.005 C  
HETATM   20  N   UNL     1     -10.737   9.723  69.357  1.00  0.00    -0.220 N  
BRANCH  20  21
HETATM   21  C   UNL     1     -11.706  10.525  70.154  1.00  0.00    -0.326 C  
BRANCH  21  22
HETATM   22  C   UNL     1     -12.150  11.823  69.431  1.00  0.00    -0.238 C  
HETATM   23  H   UNL     1     -12.269  13.762  69.842  1.00  0.00     0.000 HD 
HETATM   24  O   UNL     1     -11.996  12.967  70.285  1.00  0.00    -0.341 OA 
BRANCH  22  25
HETATM   25  C   UNL     1     -11.360  12.087  68.141  1.00  0.00    -0.291 C  
HETATM   26  H   UNL     1     -11.363  13.404  66.669  1.00  0.00     0.000 HD 
HETATM   27  O   UNL     1     -11.852  13.241  67.466  1.00  0.00    -0.346 OA 
ENDBRANCH  22  25
ENDBRANCH  21  22
ENDBRANCH  20  21
ENDBRANCH  10  17
BRANCH  16  28
HETATM   28  C   UNL     1      -7.542   4.578  69.662  1.00  0.00    -0.054 C  
HETATM   29  H   UNL     1      -5.861   4.235  68.452  1.00  0.00     0.000 HD 
HETATM   30  O   UNL     1      -8.303   4.121  70.498  1.00  0.00    -0.065 OA 
HETATM   31  N   UNL     1      -6.510   3.814  69.116  1.00  0.00    -0.033 N  
BRANCH  31  32
HETATM   32  C   UNL     1      -6.361   2.415  69.495  1.00  0.00    -0.029 C  
BRANCH  32  33
HETATM   33  C   UNL     1      -7.617   1.853  70.170  1.00  0.00    -0.042 C  
HETATM   34  O   UNL     1      -7.560   2.147  71.574  1.00  0.00    -0.039 OA 
HETATM   35  H   UNL     1      -8.339   1.798  71.992  1.00  0.00     0.000 HD 
BRANCH  33  36
HETATM   36  C   UNL     1      -8.893   2.439  69.543  1.00  0.00    -0.091 C  
HETATM   37  O   UNL     1      -9.446   1.566  68.560  1.00  0.00    -0.164 OA 
HETATM   38  H   UNL     1     -10.235   1.929  68.173  1.00  0.00     0.000 HD 
ENDBRANCH  33  36
ENDBRANCH  32  33
ENDBRANCH  31  32
ENDBRANCH  16  28
ENDBRANCH   6   8
ENDBRANCH   3   4
ENDBRANCH   2   3
TORSDOF 11
ENDMDL
MODEL      164
REMARK 921   NORMALIZED FREE ENERGY PREDICTED BY IDOCK:    5.50 KCAL/MOL
REMARK 922        TOTAL FREE ENERGY PREDICTED BY IDOCK:    7.92 KCAL/MOL
REMARK 923 INTER-LIGAND FREE ENERGY PREDICTED BY IDOCK:    3.73 KCAL/MOL
REMARK 924 INTRA-LIGAND FREE ENERGY PREDICTED BY IDOCK:    4.19 KCAL/MOL
REMARK 927      BINDING AFFINITY PREDICTED BY RF-SCORE:    0.00 PKD
ROOT
HETATM    1  C   UNL     1     -10.167   4.843  69.356  1.00  0.00    -0.159 C  
HETATM    2  O   UNL     1     -10.144   6.206  68.941  1.00  0.00    -0.153 OA 
ENDROOT
BRANCH   2   3
HETATM    3  C   UNL     1      -9.867   7.098  70.012  1.00  0.00    -0.178 C  
BRANCH   3   4
HETATM    4  C   UNL     1      -9.681   8.559  69.569  1.00  0.00    -0.176 C  
HETATM    5  O   UNL     1      -9.954   9.498  70.314  1.00  0.00    -0.225 OA 
HETATM    6  N   UNL     1      -9.159   8.712  68.280  1.00  0.00    -0.141 N  
HETATM    7  H   UNL     1      -8.976   7.907  67.681  1.00  0.00     0.000 HD 
BRANCH   6   8
HETATM    8  C   UNL     1      -8.894  10.043  67.839  1.00  0.00    -0.125 A  
HETATM    9  C   UNL     1      -9.708  10.661  66.857  1.00  0.00    -0.179 A  
HETATM   10  C   UNL     1      -9.641  12.065  66.622  1.00  0.00    -0.225 A  
HETATM   11  I   UNL     1     -11.055   9.365  65.791  1.00  0.00     4.396 I  
HETATM   12  C   UNL     1      -7.844  10.779  68.434  1.00  0.00    -0.120 A  
HETATM   13  C   UNL     1      -8.723  12.804  67.413  1.00  0.00    -0.196 A  
HETATM   14  I   UNL     1      -9.092  14.893  67.829  1.00  0.00    -0.211 I  
HETATM   15  I   UNL     1      -6.371   9.669  69.561  1.00  0.00    -0.055 I  
HETATM   16  C   UNL     1      -7.722  12.160  68.192  1.00  0.00    -0.129 A  
BRANCH  10  17
HETATM   17  C   UNL     1     -10.624  12.709  65.675  1.00  0.00    -0.273 C  
HETATM   18  O   UNL     1     -10.216  12.961  64.540  1.00  0.00    -0.345 OA 
HETATM   19  C   UNL     1     -12.619  12.733  67.289  1.00  0.00     1.038 C  
HETATM   20  N   UNL     1     -11.931  13.078  66.051  1.00  0.00    -0.421 N  
BRANCH  20  21
HETATM   21  C   UNL     1     -12.737  13.904  65.111  1.00  0.00    -0.398 C  
BRANCH  21  22
HETATM   22  C   UNL     1     -12.808  13.295  63.686  1.00  0.00     0.306 C  
HETATM   23  H   UNL     1     -11.775  13.402  61.994  1.00  0.00     0.000 HD 
HETATM   24  O   UNL     1     -11.731  13.774  62.867  1.00  0.00     0.369 OA 
BRANCH  22  25
HETATM   25  C   UNL     1     -12.751  11.760  63.690  1.00  0.00    -0.290 C  
HETATM   26  H   UNL     1     -13.856  10.259  64.343  1.00  0.00     0.000 HD 
HETATM   27  O   UNL     1     -13.891  11.208  64.341  1.00  0.00     2.240 OA 
ENDBRANCH  22  25
ENDBRANCH  21  22
ENDBRANCH  20  21
ENDBRANCH  10  17
BRANCH  16  28
HETATM   28  C   UNL     1      -6.538  12.910  68.715  1.00  0.00    -0.090 C  
HETATM   29  H   UNL     1      -7.448  14.753  68.288  1.00  0.00     0.000 HD 
HETATM   30  O   UNL     1      -5.550  12.340  69.146  1.00  0.00    -0.063 OA 
HETATM   31  N   UNL     1      -6.593  14.300  68.610  1.00  0.00    -0.084 N  
BRANCH  31  32
HETATM   32  C   UNL     1      -5.429  15.103  68.960  1.00  0.00    -0.097 C  
BRANCH  32  33
HETATM   33  C   UNL     1      -5.183  16.244  67.968  1.00  0.00    -0.112 C  
HETATM   34  O   UNL     1      -5.276  15.726  66.632  1.00  0.00     0.150 OA 
HETATM   35  H   UNL     1      -5.124  16.433  66.016  1.00  0.00     0.000 HD 
BRANCH  33  36
HETATM   36  C   UNL     1      -6.190  17.388  68.177  1.00  0.00    -0.155 C  
HETATM   37  O   UNL     1      -5.739  18.602  67.581  1.00  0.00    -0.173 OA 
HETATM   38  H   UNL     1      -6.361  19.309  67.710  1.00  0.00     0.000 HD 
ENDBRANCH  33  36
ENDBRANCH  32  33
ENDBRANCH  31  32
ENDBRANCH  16  28
ENDBRANCH   6   8
ENDBRANCH   3   4
ENDBRANCH   2   3
TORSDOF 11
ENDMDL
MODEL      165
REMARK 921   NORMALIZED FREE ENERGY PREDICTED BY IDOCK:    6.10 KCAL/MOL
REMARK 922        TOTAL FREE ENERGY PREDICTED BY IDOCK:    8.90 KCAL/MOL
REMARK 923 INTER-LIGAND FREE ENERGY PREDICTED BY IDOCK:    5.70 KCAL/MOL
REMARK 924 INTRA-LIGAND FREE ENERGY PREDICTED BY IDOCK:    3.20 KCAL/MOL
REMARK 927      BINDING AFFINITY PREDICTED BY RF-SCORE:    0.00 PKD
ROOT
HETATM    1  C   UNL     1     -13.366  20.502  66.668  1.00  0.00     6.771 C  
HETATM    2  O   UNL     1     -12.404  19.702  67.351  1.00  0.00     2.134 OA 
ENDROOT
BRANCH   2   3
HETATM    3  C   UNL     1     -11.593  18.947  66.460  1.00  0.00     1.532 C  
BRANCH   3   4
HETATM    4  C   UNL     1     -10.775  17.844  67.153  1.00  0.00    -0.230 C  
HETATM    5  O   UNL     1     -10.651  17.804  68.374  1.00  0.00    -0.357 OA 
HETATM    6  N   UNL     1     -10.223  16.898  66.281  1.00  0.00    -0.321 N  
HETATM    7  H   UNL     1     -10.322  16.985  65.269  1.00  0.00     0.000 HD 
BRANCH   6   8
HETATM    8  C   UNL     1      -9.515  15.807  66.869  1.00  0.00    -0.228 A  
HETATM    9  C   UNL     1      -9.939  14.470  66.667  1.00  0.00    -0.270 A  
HETATM   10  C   UNL     1      -9.092  13.371  66.994  1.00  0.00    -0.245 A  
HETATM   11  I   UNL     1     -11.898  14.216  65.812  1.00  0.00    -0.414 I  
HETATM   12  C   UNL     1      -8.338  16.058  67.611  1.00  0.00    -0.151 A  
HETATM   13  C   UNL     1      -7.815  13.684  67.531  1.00  0.00    -0.177 A  
HETATM   14  I   UNL     1      -6.164  12.317  67.256  1.00  0.00     0.068 I  
HETATM   15  I   UNL     1      -7.997  18.087  68.272  1.00  0.00    -0.311 I  
HETATM   16  C   UNL     1      -7.498  14.993  67.987  1.00  0.00    -0.130 A  
BRANCH  10  17
HETATM   17  C   UNL     1      -9.517  11.969  66.630  1.00  0.00    -0.217 C  
HETATM   18  O   UNL     1      -9.614  11.714  65.428  1.00  0.00    -0.226 OA 
HETATM   19  C   UNL     1      -9.664  11.073  69.030  1.00  0.00    -0.134 C  
HETATM   20  N   UNL     1      -9.856  10.993  67.587  1.00  0.00    -0.171 N  
BRANCH  20  21
HETATM   21  C   UNL     1     -10.472   9.721  67.120  1.00  0.00    -0.250 C  
BRANCH  21  22
HETATM   22  C   UNL     1      -9.639   8.471  67.505  1.00  0.00    -0.154 C  
HETATM   23  H   UNL     1      -9.921   6.512  67.657  1.00  0.00     0.000 HD 
HETATM   24  O   UNL     1     -10.432   7.278  67.421  1.00  0.00    -0.229 OA 
BRANCH  22  25
HETATM   25  C   UNL     1      -8.403   8.281  66.614  1.00  0.00    -0.111 C  
HETATM   26  H   UNL     1      -7.970   8.328  64.687  1.00  0.00     0.000 HD 
HETATM   27  O   UNL     1      -8.734   8.446  65.238  1.00  0.00    -0.170 OA 
ENDBRANCH  22  25
ENDBRANCH  21  22
ENDBRANCH  20  21
ENDBRANCH  10  17
BRANCH  16  28
HETATM   28  C   UNL     1      -6.325  15.244  68.882  1.00  0.00    -0.095 C  
HETATM   29  H   UNL     1      -7.585  15.781  70.473  1.00  0.00     0.000 HD 
HETATM   30  O   UNL     1      -5.177  15.109  68.496  1.00  0.00    -0.090 OA 
HETATM   31  N   UNL     1      -6.616  15.719  70.160  1.00  0.00    -0.028 N  
BRANCH  31  32
HETATM   32  C   UNL     1      -5.536  16.127  71.049  1.00  0.00     0.055 C  
BRANCH  32  33
HETATM   33  C   UNL     1      -5.156  17.601  70.872  1.00  0.00    -0.246 C  
HETATM   34  O   UNL     1      -5.479  18.006  69.533  1.00  0.00    -0.189 OA 
HETATM   35  H   UNL     1      -5.243  18.921  69.423  1.00  0.00     0.000 HD 
BRANCH  33  36
HETATM   36  C   UNL     1      -5.881  18.488  71.898  1.00  0.00     0.746 C  
HETATM   37  O   UNL     1      -5.314  19.795  71.958  1.00  0.00    -0.466 OA 
HETATM   38  H   UNL     1      -5.762  20.343  72.592  1.00  0.00     0.000 HD 
ENDBRANCH  33  36
ENDBRANCH  32  33
ENDBRANCH  31  32
ENDBRANCH  16  28
ENDBRANCH   6   8
ENDBRANCH   3   4
ENDBRANCH   2   3
TORSDOF 11
ENDMDL
MODEL      166
REMARK 921   NORMALIZED FREE ENERGY PREDICTED BY IDOCK:    6.58 KCAL/MOL
REMARK 922        TOTAL FREE ENERGY PREDICTED BY IDOCK:    9.68 KCAL/MOL
REMARK 923 INTER-LIGAND FREE ENERGY PREDICTED BY IDOCK:    1.36 KCAL/MOL
REMARK 924 INTRA-LIGAND FREE ENERGY PREDICTED BY IDOCK:    8.32 KCAL/MOL
REMARK 927      BINDING AFFINITY PREDICTED BY RF-SCORE:    0.00 PKD
ROOT
HETATM    1  C   UNL     1      -6.424  12.230  62.594  1.00  0.00     3.828 C  
HETATM    2  O   UNL     1      -5.960  10.885  62.658  1.00  0.00    -0.127 OA 
ENDROOT
BRANCH   2   3
HETATM    3  C   UNL     1      -6.975   9.976  63.063  1.00  0.00    -0.130 C  
BRANCH   3   4
HETATM    4  C   UNL     1      -7.235   9.973  64.579  1.00  0.00    -0.139 C  
HETATM    5  O   UNL     1      -6.316   9.894  65.390  1.00  0.00    -0.076 OA 
HETATM    6  N   UNL     1      -8.583  10.095  64.936  1.00  0.00    -0.167 N  
HETATM    7  H   UNL     1      -9.320  10.125  64.231  1.00  0.00     0.000 HD 
BRANCH   6   8
HETATM    8  C   UNL     1      -8.882  10.173  66.329  1.00  0.00    -0.148 A  
HETATM    9  C   UNL     1      -9.411  11.360  66.895  1.00  0.00    -0.179 A  
HETATM   10  C   UNL     1      -9.982  11.363  68.201  1.00  0.00    -0.196 A  
HETATM   11  I   UNL     1      -9.331  13.118  65.656  1.00  0.00     0.713 I  
HETATM   12  C   UNL     1      -8.708   9.033  67.146  1.00  0.00    -0.116 A  
HETATM   13  C   UNL     1      -9.989  10.127  68.900  1.00  0.00    -0.199 A  
HETATM   14  I   UNL     1     -11.505   9.737  70.390  1.00  0.00    -0.311 I  
HETATM   15  I   UNL     1      -7.488   7.430  66.362  1.00  0.00    -0.088 I  
HETATM   16  C   UNL     1      -9.222   9.015  68.456  1.00  0.00    -0.136 A  
BRANCH  10  17
HETATM   17  C   UNL     1     -10.666  12.608  68.712  1.00  0.00    -0.207 C  
HETATM   18  O   UNL     1     -10.422  13.658  68.117  1.00  0.00    -0.234 OA 
HETATM   19  C   UNL     1     -12.006  11.463  70.578  1.00  0.00    -0.356 C  
HETATM   20  N   UNL     1     -11.499  12.619  69.848  1.00  0.00    -0.152 N  
BRANCH  20  21
HETATM   21  C   UNL     1     -11.942  13.932  70.394  1.00  0.00    -0.323 C  
BRANCH  21  22
HETATM   22  C   UNL     1     -11.291  14.265  71.761  1.00  0.00     1.072 C  
HETATM   23  H   UNL     1     -10.549  15.861  72.680  1.00  0.00     0.000 HD 
HETATM   24  O   UNL     1     -10.948  15.657  71.842  1.00  0.00    -0.165 OA 
BRANCH  22  25
HETATM   25  C   UNL     1     -12.203  13.934  72.952  1.00  0.00     0.525 C  
HETATM   26  H   UNL     1     -13.769  12.787  73.318  1.00  0.00     0.000 HD 
HETATM   27  O   UNL     1     -13.205  12.992  72.582  1.00  0.00    -0.393 OA 
ENDBRANCH  22  25
ENDBRANCH  21  22
ENDBRANCH  20  21
ENDBRANCH  10  17
BRANCH  16  28
HETATM   28  C   UNL     1      -8.924   7.862  69.362  1.00  0.00    -0.145 C  
HETATM   29  H   UNL     1      -7.305   8.884  70.221  1.00  0.00     0.000 HD 
HETATM   30  O   UNL     1      -9.578   6.832  69.335  1.00  0.00    -0.147 OA 
HETATM   31  N   UNL     1      -7.807   7.997  70.185  1.00  0.00    -0.097 N  
BRANCH  31  32
HETATM   32  C   UNL     1      -7.357   6.872  70.994  1.00  0.00    -0.078 C  
BRANCH  32  33
HETATM   33  C   UNL     1      -7.824   6.972  72.450  1.00  0.00    -0.094 C  
HETATM   34  O   UNL     1      -7.050   6.065  73.249  1.00  0.00    -0.083 OA 
HETATM   35  H   UNL     1      -7.340   6.127  74.152  1.00  0.00     0.000 HD 
BRANCH  33  36
HETATM   36  C   UNL     1      -7.690   8.411  72.977  1.00  0.00    -0.069 C  
HETATM   37  O   UNL     1      -6.337   8.732  73.295  1.00  0.00    -0.221 OA 
HETATM   38  H   UNL     1      -6.254   9.621  73.621  1.00  0.00     0.000 HD 
ENDBRANCH  33  36
ENDBRANCH  32  33
ENDBRANCH  31  32
ENDBRANCH  16  28
ENDBRANCH   6   8
ENDBRANCH   3   4
ENDBRANCH   2   3
TORSDOF 11
ENDMDL
MODEL      167
REMARK 921   NORMALIZED FREE ENERGY PREDICTED BY IDOCK:    6.69 KCAL/MOL
REMARK 922        TOTAL FREE ENERGY PREDICTED BY IDOCK:    9.87 KCAL/MOL
REMARK 923 INTER-LIGAND FREE ENERGY PREDICTED BY IDOCK:    9.67 KCAL/MOL
REMARK 924 INTRA-LIGAND FREE ENERGY PREDICTED BY IDOCK:    0.20 KCAL/MOL
REMARK 927      BINDING AFFINITY PREDICTED BY RF-SCORE:    0.00 PKD
ROOT
HETATM    1  C   UNL     1      -6.865  14.701  72.713  1.00  0.00     2.759 C  
HETATM    2  O   UNL     1      -7.333  13.930  71.610  1.00  0.00     2.446 OA 
ENDROOT
BRANCH   2   3
HETATM    3  C   UNL     1      -6.605  12.720  71.442  1.00  0.00     2.879 C  
BRANCH   3   4
HETATM    4  C   UNL     1      -7.136  11.831  70.305  1.00  0.00     1.252 C  
HETATM    5  O   UNL     1      -8.340  11.653  70.134  1.00  0.00     1.718 OA 
HETATM    6  N   UNL     1      -6.142  11.280  69.488  1.00  0.00    -0.073 N  
HETATM    7  H   UNL     1      -5.151  11.426  69.683  1.00  0.00     0.000 HD 
BRANCH   6   8
HETATM    8  C   UNL     1      -6.574  10.505  68.370  1.00  0.00    -0.055 A  
HETATM    9  C   UNL     1      -6.427   9.096  68.361  1.00  0.00    -0.055 A  
HETATM   10  C   UNL     1      -7.107   8.290  67.401  1.00  0.00    -0.080 A  
HETATM   11  I   UNL     1      -5.160   8.264  69.889  1.00  0.00    -0.022 I  
HETATM   12  C   UNL     1      -7.215  11.144  67.284  1.00  0.00    -0.113 A  
HETATM   13  C   UNL     1      -7.928   8.968  66.462  1.00  0.00    -0.103 A  
HETATM   14  I   UNL     1      -9.625   7.958  65.583  1.00  0.00     1.118 I  
HETATM   15  I   UNL     1      -7.004  13.289  67.132  1.00  0.00     0.961 I  
HETATM   16  C   UNL     1      -7.862  10.379  66.295  1.00  0.00    -0.132 A  
BRANCH  10  17
HETATM   17  C   UNL     1      -7.043   6.786  67.511  1.00  0.00    -0.085 C  
HETATM   18  O   UNL     1      -6.146   6.222  66.882  1.00  0.00    -0.023 OA 
HETATM   19  C   UNL     1      -9.007   6.526  69.142  1.00  0.00    -0.130 C  
HETATM   20  N   UNL     1      -7.981   6.025  68.235  1.00  0.00    -0.106 N  
BRANCH  20  21
HETATM   21  C   UNL     1      -7.956   4.543  68.095  1.00  0.00    -0.080 C  
BRANCH  21  22
HETATM   22  C   UNL     1      -6.837   3.879  68.939  1.00  0.00    -0.046 C  
HETATM   23  H   UNL     1      -6.694   2.486  70.346  1.00  0.00     0.000 HD 
HETATM   24  O   UNL     1      -7.380   2.892  69.829  1.00  0.00    -0.044 OA 
BRANCH  22  25
HETATM   25  C   UNL     1      -5.765   3.196  68.075  1.00  0.00    -0.019 C  
HETATM   26  H   UNL     1      -5.450   1.420  67.272  1.00  0.00     0.000 HD 
HETATM   27  O   UNL     1      -6.112   1.842  67.806  1.00  0.00    -0.023 OA 
ENDBRANCH  22  25
ENDBRANCH  21  22
ENDBRANCH  20  21
ENDBRANCH  10  17
BRANCH  16  28
HETATM   28  C   UNL     1      -8.426  11.049  65.081  1.00  0.00     0.038 C  
HETATM   29  H   UNL     1      -9.462  12.440  66.262  1.00  0.00     0.000 HD 
HETATM   30  O   UNL     1      -8.181  10.654  63.953  1.00  0.00    -0.112 OA 
HETATM   31  N   UNL     1      -9.310  12.101  65.313  1.00  0.00     0.027 N  
BRANCH  31  32
HETATM   32  C   UNL     1     -10.017  12.717  64.197  1.00  0.00    -0.170 C  
BRANCH  32  33
HETATM   33  C   UNL     1     -11.424  13.184  64.580  1.00  0.00    -0.333 C  
HETATM   34  O   UNL     1     -11.400  14.603  64.795  1.00  0.00    -0.378 OA 
HETATM   35  H   UNL     1     -12.274  14.893  65.033  1.00  0.00     0.000 HD 
BRANCH  33  36
HETATM   36  C   UNL     1     -12.447  12.817  63.492  1.00  0.00    -0.379 C  
HETATM   37  O   UNL     1     -12.249  11.490  63.008  1.00  0.00    -0.968 OA 
HETATM   38  H   UNL     1     -12.881  11.264  62.336  1.00  0.00     0.000 HD 
ENDBRANCH  33  36
ENDBRANCH  32  33
ENDBRANCH  31  32
ENDBRANCH  16  28
ENDBRANCH   6   8
ENDBRANCH   3   4
ENDBRANCH   2   3
TORSDOF 11
ENDMDL
MODEL      168
REMARK 921   NORMALIZED FREE ENERGY PREDICTED BY IDOCK:    7.10 KCAL/MOL
REMARK 922        TOTAL FREE ENERGY PREDICTED BY IDOCK:   10.55 KCAL/MOL
REMARK 923 INTER-LIGAND FREE ENERGY PREDICTED BY IDOCK:    9.51 KCAL/MOL
REMARK 924 INTRA-LIGAND FREE ENERGY PREDICTED BY IDOCK:    1.03 KCAL/MOL
REMARK 927      BINDING AFFINITY PREDICTED BY RF-SCORE:    0.00 PKD
ROOT
HETATM    1  C   UNL     1     -12.998  17.222  66.964  1.00  0.00     7.003 C  
HETATM    2  O   UNL     1     -12.051  16.458  66.223  1.00  0.00     1.538 OA 
ENDROOT
BRANCH   2   3
HETATM    3  C   UNL     1     -12.213  15.059  66.410  1.00  0.00     0.269 C  
BRANCH   3   4
HETATM    4  C   UNL     1     -10.885  14.298  66.570  1.00  0.00    -0.304 C  
HETATM    5  O   UNL     1      -9.802  14.848  66.393  1.00  0.00    -0.247 OA 
HETATM    6  N   UNL     1     -11.027  12.959  66.954  1.00  0.00    -0.261 N  
HETATM    7  H   UNL     1     -11.947  12.530  67.060  1.00  0.00     0.000 HD 
BRANCH   6   8
HETATM    8  C   UNL     1      -9.830  12.220  67.190  1.00  0.00    -0.203 A  
HETATM    9  C   UNL     1      -9.532  11.056  66.439  1.00  0.00    -0.193 A  
HETATM   10  C   UNL     1      -8.227  10.481  66.456  1.00  0.00    -0.133 A  
HETATM   11  I   UNL     1     -11.144  10.249  65.263  1.00  0.00     2.526 I  
HETATM   12  C   UNL     1      -8.897  12.689  68.143  1.00  0.00    -0.194 A  
HETATM   13  C   UNL     1      -7.252  11.130  67.260  1.00  0.00    -0.113 A  
HETATM   14  I   UNL     1      -5.158  10.979  66.749  1.00  0.00    -0.112 I  
HETATM   15  I   UNL     1      -9.587  14.168  69.561  1.00  0.00     1.121 I  
HETATM   16  C   UNL     1      -7.612  12.119  68.216  1.00  0.00    -0.132 A  
BRANCH  10  17
HETATM   17  C   UNL     1      -7.908   9.331  65.533  1.00  0.00    -0.099 C  
HETATM   18  O   UNL     1      -8.166   9.491  64.339  1.00  0.00    -0.129 OA 
HETATM   19  C   UNL     1      -6.907   7.787  67.321  1.00  0.00    -0.069 C  
HETATM   20  N   UNL     1      -7.399   8.098  65.985  1.00  0.00    -0.075 N  
BRANCH  20  21
HETATM   21  C   UNL     1      -7.330   6.961  65.025  1.00  0.00    -0.086 C  
BRANCH  21  22
HETATM   22  C   UNL     1      -7.572   5.587  65.701  1.00  0.00    -0.083 C  
HETATM   23  H   UNL     1      -9.123   4.459  66.212  1.00  0.00     0.000 HD 
HETATM   24  O   UNL     1      -8.976   5.301  65.798  1.00  0.00    -0.147 OA 
BRANCH  22  25
HETATM   25  C   UNL     1      -6.905   4.426  64.948  1.00  0.00    -0.049 C  
HETATM   26  H   UNL     1      -6.136   2.658  65.375  1.00  0.00     0.000 HD 
HETATM   27  O   UNL     1      -6.549   3.375  65.841  1.00  0.00    -0.038 OA 
ENDBRANCH  22  25
ENDBRANCH  21  22
ENDBRANCH  20  21
ENDBRANCH  10  17
BRANCH  16  28
HETATM   28  C   UNL     1      -6.673  12.526  69.308  1.00  0.00    -0.060 C  
HETATM   29  H   UNL     1      -6.564  14.483  68.559  1.00  0.00     0.000 HD 
HETATM   30  O   UNL     1      -6.292  11.740  70.160  1.00  0.00    -0.142 OA 
HETATM   31  N   UNL     1      -6.195  13.834  69.254  1.00  0.00    -0.099 N  
BRANCH  31  32
HETATM   32  C   UNL     1      -5.168  14.274  70.190  1.00  0.00    -0.092 C  
BRANCH  32  33
HETATM   33  C   UNL     1      -5.321  15.748  70.578  1.00  0.00    -0.159 C  
HETATM   34  O   UNL     1      -6.470  16.288  69.908  1.00  0.00    -0.188 OA 
HETATM   35  H   UNL     1      -6.564  17.203  70.149  1.00  0.00     0.000 HD 
BRANCH  33  36
HETATM   36  C   UNL     1      -5.453  15.910  72.101  1.00  0.00     0.609 C  
HETATM   37  O   UNL     1      -5.365  14.656  72.775  1.00  0.00    -0.145 OA 
HETATM   38  H   UNL     1      -5.447  14.757  73.716  1.00  0.00     0.000 HD 
ENDBRANCH  33  36
ENDBRANCH  32  33
ENDBRANCH  31  32
ENDBRANCH  16  28
ENDBRANCH   6   8
ENDBRANCH   3   4
ENDBRANCH   2   3
TORSDOF 11
ENDMDL
MODEL      169
REMARK 921   NORMALIZED FREE ENERGY PREDICTED BY IDOCK:    7.24 KCAL/MOL
REMARK 922        TOTAL FREE ENERGY PREDICTED BY IDOCK:   10.77 KCAL/MOL
REMARK 923 INTER-LIGAND FREE ENERGY PREDICTED BY IDOCK:    9.32 KCAL/MOL
REMARK 924 INTRA-LIGAND FREE ENERGY PREDICTED BY IDOCK:    1.45 KCAL/MOL
REMARK 927      BINDING AFFINITY PREDICTED BY RF-SCORE:    0.00 PKD
ROOT
HETATM    1  C   UNL     1     -14.280   8.707  69.525  1.00  0.00     6.127 C  
HETATM    2  O   UNL     1     -13.812   7.366  69.405  1.00  0.00     5.103 OA 
ENDROOT
BRANCH   2   3
HETATM    3  C   UNL     1     -12.932   6.999  70.459  1.00  0.00     0.403 C  
BRANCH   3   4
HETATM    4  C   UNL     1     -11.776   7.990  70.674  1.00  0.00    -0.150 C  
HETATM    5  O   UNL     1     -11.792   8.810  71.589  1.00  0.00    -0.288 OA 
HETATM    6  N   UNL     1     -10.718   7.851  69.768  1.00  0.00    -0.257 N  
HETATM    7  H   UNL     1     -10.757   7.178  69.003  1.00  0.00     0.000 HD 
BRANCH   6   8
HETATM    8  C   UNL     1      -9.581   8.693  69.962  1.00  0.00    -0.170 A  
HETATM    9  C   UNL     1      -8.555   8.333  70.870  1.00  0.00    -0.137 A  
HETATM   10  C   UNL     1      -7.295   8.999  70.860  1.00  0.00    -0.119 A  
HETATM   11  I   UNL     1      -9.005   6.714  72.216  1.00  0.00    -0.140 I  
HETATM   12  C   UNL     1      -9.446   9.870  69.192  1.00  0.00    -0.196 A  
HETATM   13  C   UNL     1      -7.126  10.035  69.904  1.00  0.00    -0.130 A  
HETATM   14  I   UNL     1      -5.152  10.509  69.163  1.00  0.00    -0.036 I  
HETATM   15  I   UNL     1     -11.212  10.605  68.186  1.00  0.00    -0.199 I  
HETATM   16  C   UNL     1      -8.229  10.578  69.189  1.00  0.00    -0.152 A  
BRANCH  10  17
HETATM   17  C   UNL     1      -6.177   8.493  71.740  1.00  0.00    -0.064 C  
HETATM   18  O   UNL     1      -5.216   7.974  71.170  1.00  0.00    -0.029 OA 
HETATM   19  C   UNL     1      -7.201   9.235  73.973  1.00  0.00     0.782 C  
HETATM   20  N   UNL     1      -6.223   8.537  73.147  1.00  0.00    -0.101 N  
BRANCH  20  21
HETATM   21  C   UNL     1      -5.174   7.814  73.916  1.00  0.00    -0.045 C  
BRANCH  21  22
HETATM   22  C   UNL     1      -5.689   6.489  74.537  1.00  0.00    -0.059 C  
HETATM   23  H   UNL     1      -7.437   5.609  74.868  1.00  0.00     0.000 HD 
HETATM   24  O   UNL     1      -7.122   6.421  74.487  1.00  0.00    -0.089 OA 
BRANCH  22  25
HETATM   25  C   UNL     1      -5.132   5.244  73.831  1.00  0.00    -0.017 C  
HETATM   26  H   UNL     1      -5.773   3.876  72.559  1.00  0.00     0.000 HD 
HETATM   27  O   UNL     1      -6.118   4.646  72.996  1.00  0.00    -0.019 OA 
ENDBRANCH  22  25
ENDBRANCH  21  22
ENDBRANCH  20  21
ENDBRANCH  10  17
BRANCH  16  28
HETATM   28  C   UNL     1      -8.129  11.892  68.480  1.00  0.00    -0.130 C  
HETATM   29  H   UNL     1      -8.260  12.942  70.292  1.00  0.00     0.000 HD 
HETATM   30  O   UNL     1      -8.035  11.965  67.266  1.00  0.00    -0.154 OA 
HETATM   31  N   UNL     1      -8.228  13.031  69.277  1.00  0.00     0.585 N  
BRANCH  31  32
HETATM   32  C   UNL     1      -8.285  14.350  68.658  1.00  0.00    -0.148 C  
BRANCH  32  33
HETATM   33  C   UNL     1      -9.448  15.195  69.186  1.00  0.00    -0.221 C  
HETATM   34  O   UNL     1      -8.951  16.492  69.549  1.00  0.00    -0.058 OA 
HETATM   35  H   UNL     1      -9.673  17.017  69.877  1.00  0.00     0.000 HD 
BRANCH  33  36
HETATM   36  C   UNL     1     -10.567  15.316  68.138  1.00  0.00    -0.254 C  
HETATM   37  O   UNL     1     -10.551  16.589  67.494  1.00  0.00    -0.316 OA 
HETATM   38  H   UNL     1     -11.242  16.663  66.847  1.00  0.00     0.000 HD 
ENDBRANCH  33  36
ENDBRANCH  32  33
ENDBRANCH  31  32
ENDBRANCH  16  28
ENDBRANCH   6   8
ENDBRANCH   3   4
ENDBRANCH   2   3
TORSDOF 11
ENDMDL
MODEL      170
REMARK 921   NORMALIZED FREE ENERGY PREDICTED BY IDOCK:    7.63 KCAL/MOL
REMARK 922        TOTAL FREE ENERGY PREDICTED BY IDOCK:   11.40 KCAL/MOL
REMARK 923 INTER-LIGAND FREE ENERGY PREDICTED BY IDOCK:    0.36 KCAL/MOL
REMARK 924 INTRA-LIGAND FREE ENERGY PREDICTED BY IDOCK:   11.05 KCAL/MOL
REMARK 927      BINDING AFFINITY PREDICTED BY RF-SCORE:    0.00 PKD
ROOT
HETATM    1  C   UNL     1      -9.057  14.685  64.697  1.00  0.00     3.379 C  
HETATM    2  O   UNL     1      -9.488  13.832  65.754  1.00  0.00    -0.131 OA 
ENDROOT
BRANCH   2   3
HETATM    3  C   UNL     1      -9.998  12.592  65.281  1.00  0.00    -0.197 C  
BRANCH   3   4
HETATM    4  C   UNL     1      -9.918  11.455  66.314  1.00  0.00    -0.224 C  
HETATM    5  O   UNL     1     -10.439  11.553  67.422  1.00  0.00    -0.198 OA 
HETATM    6  N   UNL     1      -9.236  10.316  65.870  1.00  0.00    -0.160 N  
HETATM    7  H   UNL     1      -8.789  10.286  64.953  1.00  0.00     0.000 HD 
BRANCH   6   8
HETATM    8  C   UNL     1      -9.192   9.198  66.756  1.00  0.00    -0.155 A  
HETATM    9  C   UNL     1      -8.401   8.061  66.456  1.00  0.00    -0.121 A  
HETATM   10  C   UNL     1      -8.117   7.078  67.448  1.00  0.00    -0.116 A  
HETATM   11  I   UNL     1      -7.638   7.942  64.446  1.00  0.00    -0.129 I  
HETATM   12  C   UNL     1      -9.897   9.249  67.980  1.00  0.00    -0.163 A  
HETATM   13  C   UNL     1      -8.666   7.294  68.739  1.00  0.00    -0.125 A  
HETATM   14  I   UNL     1      -7.682   6.478  70.482  1.00  0.00    -0.109 I  
HETATM   15  I   UNL     1     -11.427  10.764  68.179  1.00  0.00     0.015 I  
HETATM   16  C   UNL     1      -9.673   8.272  68.967  1.00  0.00    -0.167 A  
BRANCH  10  17
HETATM   17  C   UNL     1      -7.153   5.960  67.134  1.00  0.00    -0.070 C  
HETATM   18  O   UNL     1      -6.076   6.282  66.629  1.00  0.00    -0.027 OA 
HETATM   19  C   UNL     1      -8.607   4.052  68.045  1.00  0.00    -0.096 C  
HETATM   20  N   UNL     1      -7.457   4.599  67.335  1.00  0.00    -0.077 N  
BRANCH  20  21
HETATM   21  C   UNL     1      -6.528   3.573  66.788  1.00  0.00    -0.040 C  
BRANCH  21  22
HETATM   22  C   UNL     1      -6.793   3.258  65.292  1.00  0.00    -0.048 C  
HETATM   23  H   UNL     1      -8.047   3.848  63.871  1.00  0.00     0.000 HD 
HETATM   24  O   UNL     1      -7.885   4.041  64.787  1.00  0.00    -0.084 OA 
BRANCH  22  25
HETATM   25  C   UNL     1      -5.570   3.523  64.402  1.00  0.00    -0.010 C  
HETATM   26  H   UNL     1      -4.920   4.949  63.199  1.00  0.00     0.000 HD 
HETATM   27  O   UNL     1      -5.676   4.785  63.750  1.00  0.00    -0.016 OA 
ENDBRANCH  22  25
ENDBRANCH  21  22
ENDBRANCH  20  21
ENDBRANCH  10  17
BRANCH  16  28
HETATM   28  C   UNL     1     -10.513   8.252  70.206  1.00  0.00    -0.218 C  
HETATM   29  H   UNL     1     -12.254   7.905  69.085  1.00  0.00     0.000 HD 
HETATM   30  O   UNL     1     -10.036   8.430  71.314  1.00  0.00    -0.183 OA 
HETATM   31  N   UNL     1     -11.886   8.097  70.016  1.00  0.00     0.290 N  
BRANCH  31  32
HETATM   32  C   UNL     1     -12.795   8.210  71.150  1.00  0.00    -0.088 C  
BRANCH  32  33
HETATM   33  C   UNL     1     -12.735   9.588  71.815  1.00  0.00    -0.404 C  
HETATM   34  O   UNL     1     -11.376  10.051  71.803  1.00  0.00    -0.112 OA 
HETATM   35  H   UNL     1     -11.339  10.907  72.216  1.00  0.00     0.000 HD 
BRANCH  33  36
HETATM   36  C   UNL     1     -13.656  10.590  71.099  1.00  0.00     0.166 C  
HETATM   37  O   UNL     1     -13.710  11.840  71.784  1.00  0.00    -0.024 OA 
HETATM   38  H   UNL     1     -14.279  12.459  71.342  1.00  0.00     0.000 HD 
ENDBRANCH  33  36
ENDBRANCH  32  33
ENDBRANCH  31  32
ENDBRANCH  16  28
ENDBRANCH   6   8
ENDBRANCH   3   4
ENDBRANCH   2   3
TORSDOF 11
ENDMDL
MODEL      171
REMARK 921   NORMALIZED FREE ENERGY PREDICTED BY IDOCK:    7.71 KCAL/MOL
REMARK 922        TOTAL FREE ENERGY PREDICTED BY IDOCK:   11.55 KCAL/MOL
REMARK 923 INTER-LIGAND FREE ENERGY PREDICTED BY IDOCK:   10.81 KCAL/MOL
REMARK 924 INTRA-LIGAND FREE ENERGY PREDICTED BY IDOCK:    0.75 KCAL/MOL
REMARK 927      BINDING AFFINITY PREDICTED BY RF-SCORE:    0.00 PKD
ROOT
HETATM    1  C   UNL     1     -13.758  17.093  67.552  1.00  0.00     9.010 C  
HETATM    2  O   UNL     1     -12.837  16.337  66.770  1.00  0.00     3.170 OA 
ENDROOT
BRANCH   2   3
HETATM    3  C   UNL     1     -12.743  14.984  67.197  1.00  0.00     1.394 C  
BRANCH   3   4
HETATM    4  C   UNL     1     -11.303  14.443  67.225  1.00  0.00    -0.342 C  
HETATM    5  O   UNL     1     -10.389  15.011  66.632  1.00  0.00    -0.267 OA 
HETATM    6  N   UNL     1     -11.134  13.286  67.996  1.00  0.00    -0.246 N  
HETATM    7  H   UNL     1     -11.925  12.827  68.447  1.00  0.00     0.000 HD 
BRANCH   6   8
HETATM    8  C   UNL     1      -9.807  12.778  68.122  1.00  0.00    -0.226 A  
HETATM    9  C   UNL     1      -9.486  11.465  67.694  1.00  0.00    -0.162 A  
HETATM   10  C   UNL     1      -8.130  11.051  67.542  1.00  0.00    -0.117 A  
HETATM   11  I   UNL     1     -11.153  10.176  67.258  1.00  0.00     0.508 I  
HETATM   12  C   UNL     1      -8.784  13.614  68.624  1.00  0.00    -0.027 A  
HETATM   13  C   UNL     1      -7.129  12.011  67.843  1.00  0.00    -0.097 A  
HETATM   14  I   UNL     1      -5.198  11.898  66.879  1.00  0.00     0.156 I  
HETATM   15  I   UNL     1      -9.392  15.401  69.676  1.00  0.00     0.233 I  
HETATM   16  C   UNL     1      -7.436  13.219  68.529  1.00  0.00    -0.115 A  
BRANCH  10  17
HETATM   17  C   UNL     1      -7.827   9.698  66.945  1.00  0.00    -0.102 C  
HETATM   18  O   UNL     1      -7.989   9.580  65.729  1.00  0.00    -0.108 OA 
HETATM   19  C   UNL     1      -7.065   8.577  69.124  1.00  0.00    -0.064 C  
HETATM   20  N   UNL     1      -7.439   8.584  67.715  1.00  0.00    -0.096 N  
BRANCH  20  21
HETATM   21  C   UNL     1      -7.382   7.249  67.058  1.00  0.00    -0.093 C  
BRANCH  21  22
HETATM   22  C   UNL     1      -8.781   6.718  66.654  1.00  0.00    -0.127 C  
HETATM   23  H   UNL     1      -9.644   5.939  65.044  1.00  0.00     0.000 HD 
HETATM   24  O   UNL     1      -8.786   6.265  65.291  1.00  0.00    -0.069 OA 
BRANCH  22  25
HETATM   25  C   UNL     1      -9.256   5.555  67.539  1.00  0.00    -0.110 C  
HETATM   26  H   UNL     1     -10.780   4.302  67.611  1.00  0.00     0.000 HD 
HETATM   27  O   UNL     1     -10.487   5.020  67.064  1.00  0.00    -0.211 OA 
ENDBRANCH  22  25
ENDBRANCH  21  22
ENDBRANCH  20  21
ENDBRANCH  10  17
BRANCH  16  28
HETATM   28  C   UNL     1      -6.367  14.042  69.176  1.00  0.00    -0.108 C  
HETATM   29  H   UNL     1      -6.925  15.736  68.068  1.00  0.00     0.000 HD 
HETATM   30  O   UNL     1      -5.601  13.574  70.001  1.00  0.00    -0.098 OA 
HETATM   31  N   UNL     1      -6.244  15.356  68.725  1.00  0.00    -0.096 N  
BRANCH  31  32
HETATM   32  C   UNL     1      -5.141  16.186  69.193  1.00  0.00    -0.109 C  
BRANCH  32  33
HETATM   33  C   UNL     1      -5.149  17.582  68.562  1.00  0.00    -0.140 C  
HETATM   34  O   UNL     1      -6.255  17.674  67.652  1.00  0.00    -0.155 OA 
HETATM   35  H   UNL     1      -6.260  18.540  67.260  1.00  0.00     0.000 HD 
BRANCH  33  36
HETATM   36  C   UNL     1      -5.239  18.677  69.639  1.00  0.00    -0.188 C  
HETATM   37  O   UNL     1      -5.329  19.978  69.061  1.00  0.00    -0.193 OA 
HETATM   38  H   UNL     1      -5.385  20.654  69.726  1.00  0.00     0.000 HD 
ENDBRANCH  33  36
ENDBRANCH  32  33
ENDBRANCH  31  32
ENDBRANCH  16  28
ENDBRANCH   6   8
ENDBRANCH   3   4
ENDBRANCH   2   3
TORSDOF 11
ENDMDL
MODEL      172
REMARK 921   NORMALIZED FREE ENERGY PREDICTED BY IDOCK:    8.64 KCAL/MOL
REMARK 922        TOTAL FREE ENERGY PREDICTED BY IDOCK:   13.08 KCAL/MOL
REMARK 923 INTER-LIGAND FREE ENERGY PREDICTED BY IDOCK:    3.39 KCAL/MOL
REMARK 924 INTRA-LIGAND FREE ENERGY PREDICTED BY IDOCK:    9.68 KCAL/MOL
REMARK 927      BINDING AFFINITY PREDICTED BY RF-SCORE:    0.00 PKD
ROOT
HETATM    1  C   UNL     1      -9.573  13.164  63.334  1.00  0.00     2.827 C  
HETATM    2  O   UNL     1      -9.731  12.415  64.536  1.00  0.00    -0.107 OA 
ENDROOT
BRANCH   2   3
HETATM    3  C   UNL     1     -10.666  11.353  64.398  1.00  0.00    -0.342 C  
BRANCH   3   4
HETATM    4  C   UNL     1     -10.408  10.174  65.351  1.00  0.00    -0.106 C  
HETATM    5  O   UNL     1     -11.330   9.568  65.891  1.00  0.00     1.593 OA 
HETATM    6  N   UNL     1      -9.057   9.847  65.518  1.00  0.00    -0.174 N  
HETATM    7  H   UNL     1      -8.319  10.396  65.076  1.00  0.00     0.000 HD 
BRANCH   6   8
HETATM    8  C   UNL     1      -8.757   8.714  66.331  1.00  0.00    -0.130 A  
HETATM    9  C   UNL     1      -9.057   8.713  67.717  1.00  0.00    -0.135 A  
HETATM   10  C   UNL     1      -9.037   7.505  68.474  1.00  0.00    -0.134 A  
HETATM   11  I   UNL     1      -9.573  10.617  68.577  1.00  0.00    -0.210 I  
HETATM   12  C   UNL     1      -8.211   7.554  65.738  1.00  0.00    -0.137 A  
HETATM   13  C   UNL     1      -8.700   6.316  67.774  1.00  0.00    -0.113 A  
HETATM   14  I   UNL     1      -9.447   4.409  68.464  1.00  0.00    -0.159 I  
HETATM   15  I   UNL     1      -7.356   7.759  63.764  1.00  0.00    -0.115 I  
HETATM   16  C   UNL     1      -8.137   6.353  66.469  1.00  0.00    -0.111 A  
BRANCH  10  17
HETATM   17  C   UNL     1      -9.503   7.518  69.909  1.00  0.00    -0.160 C  
HETATM   18  O   UNL     1     -10.084   6.509  70.312  1.00  0.00    -0.176 OA 
HETATM   19  C   UNL     1      -8.577   9.837  70.500  1.00  0.00     0.051 C  
HETATM   20  N   UNL     1      -9.355   8.632  70.758  1.00  0.00    -0.177 N  
BRANCH  20  21
HETATM   21  C   UNL     1     -10.045   8.618  72.078  1.00  0.00    -0.331 C  
BRANCH  21  22
HETATM   22  C   UNL     1     -10.071   7.210  72.728  1.00  0.00    -0.196 C  
HETATM   23  H   UNL     1      -8.772   5.949  73.542  1.00  0.00     0.000 HD 
HETATM   24  O   UNL     1      -8.756   6.811  73.144  1.00  0.00    -0.122 OA 
BRANCH  22  25
HETATM   25  C   UNL     1     -10.995   7.137  73.953  1.00  0.00     0.448 C  
HETATM   26  H   UNL     1     -12.636   8.025  74.600  1.00  0.00     0.000 HD 
HETATM   27  O   UNL     1     -12.065   8.071  73.843  1.00  0.00     1.969 OA 
ENDBRANCH  22  25
ENDBRANCH  21  22
ENDBRANCH  20  21
ENDBRANCH  10  17
BRANCH  16  28
HETATM   28  C   UNL     1      -7.441   5.163  65.886  1.00  0.00    -0.082 C  
HETATM   29  H   UNL     1      -9.144   4.644  64.774  1.00  0.00     0.000 HD 
HETATM   30  O   UNL     1      -6.294   4.875  66.183  1.00  0.00    -0.034 OA 
HETATM   31  N   UNL     1      -8.203   4.356  65.042  1.00  0.00    -0.102 N  
BRANCH  31  32
HETATM   32  C   UNL     1      -7.654   3.101  64.544  1.00  0.00    -0.076 C  
BRANCH  32  33
HETATM   33  C   UNL     1      -6.165   3.208  64.200  1.00  0.00    -0.022 C  
HETATM   34  O   UNL     1      -5.766   4.584  64.286  1.00  0.00    -0.013 OA 
HETATM   35  H   UNL     1      -4.842   4.650  64.073  1.00  0.00     0.000 HD 
BRANCH  33  36
HETATM   36  C   UNL     1      -5.315   2.336  65.140  1.00  0.00    -0.008 C  
HETATM   37  O   UNL     1      -5.673   2.532  66.507  1.00  0.00    -0.020 OA 
HETATM   38  H   UNL     1      -5.147   1.993  67.088  1.00  0.00     0.000 HD 
ENDBRANCH  33  36
ENDBRANCH  32  33
ENDBRANCH  31  32
ENDBRANCH  16  28
ENDBRANCH   6   8
ENDBRANCH   3   4
ENDBRANCH   2   3
TORSDOF 11
ENDMDL
MODEL      173
REMARK 921   NORMALIZED FREE ENERGY PREDICTED BY IDOCK:    8.82 KCAL/MOL
REMARK 922        TOTAL FREE ENERGY PREDICTED BY IDOCK:   13.37 KCAL/MOL
REMARK 923 INTER-LIGAND FREE ENERGY PREDICTED BY IDOCK:    8.75 KCAL/MOL
REMARK 924 INTRA-LIGAND FREE ENERGY PREDICTED BY IDOCK:    4.62 KCAL/MOL
REMARK 927      BINDING AFFINITY PREDICTED BY RF-SCORE:    0.00 PKD
ROOT
HETATM    1  C   UNL     1     -11.407  16.951  72.595  1.00  0.00     0.889 C  
HETATM    2  O   UNL     1     -12.395  16.298  71.801  1.00  0.00    -0.404 OA 
ENDROOT
BRANCH   2   3
HETATM    3  C   UNL     1     -12.164  14.901  71.684  1.00  0.00    -0.345 C  
BRANCH   3   4
HETATM    4  C   UNL     1     -11.652  14.472  70.298  1.00  0.00    -0.268 C  
HETATM    5  O   UNL     1     -12.424  14.160  69.394  1.00  0.00    -0.277 OA 
HETATM    6  N   UNL     1     -10.259  14.498  70.161  1.00  0.00    -0.212 N  
HETATM    7  H   UNL     1      -9.652  14.733  70.946  1.00  0.00     0.000 HD 
BRANCH   6   8
HETATM    8  C   UNL     1      -9.727  14.182  68.875  1.00  0.00    -0.080 A  
HETATM    9  C   UNL     1      -9.413  12.845  68.526  1.00  0.00    -0.096 A  
HETATM   10  C   UNL     1      -9.162  12.477  67.171  1.00  0.00    -0.205 A  
HETATM   11  I   UNL     1      -9.379  11.425  70.143  1.00  0.00     4.017 I  
HETATM   12  C   UNL     1      -9.567  15.206  67.915  1.00  0.00    -0.203 A  
HETATM   13  C   UNL     1      -9.239  13.511  66.202  1.00  0.00     0.029 A  
HETATM   14  I   UNL     1      -9.760  13.040  64.158  1.00  0.00     1.788 I  
HETATM   15  I   UNL     1      -9.613  17.247  68.626  1.00  0.00    -0.222 I  
HETATM   16  C   UNL     1      -9.279  14.883  66.576  1.00  0.00    -0.314 A  
BRANCH  10  17
HETATM   17  C   UNL     1      -8.976  11.022  66.817  1.00  0.00    -0.157 C  
HETATM   18  O   UNL     1      -9.968  10.297  66.913  1.00  0.00    -0.191 OA 
HETATM   19  C   UNL     1      -6.503  11.193  66.153  1.00  0.00    -0.038 C  
HETATM   20  N   UNL     1      -7.733  10.469  66.452  1.00  0.00    -0.129 N  
BRANCH  20  21
HETATM   21  C   UNL     1      -7.616   8.989  66.341  1.00  0.00    -0.092 C  
BRANCH  21  22
HETATM   22  C   UNL     1      -8.674   8.373  65.388  1.00  0.00    -0.141 C  
HETATM   23  H   UNL     1     -10.587   7.849  65.465  1.00  0.00     0.000 HD 
HETATM   24  O   UNL     1      -9.939   8.227  66.049  1.00  0.00    -0.104 OA 
BRANCH  22  25
HETATM   25  C   UNL     1      -8.897   9.213  64.122  1.00  0.00    -0.089 C  
HETATM   26  H   UNL     1      -7.823  10.349  62.914  1.00  0.00     0.000 HD 
HETATM   27  O   UNL     1      -7.685   9.829  63.697  1.00  0.00    -0.125 OA 
ENDBRANCH  22  25
ENDBRANCH  21  22
ENDBRANCH  20  21
ENDBRANCH  10  17
BRANCH  16  28
HETATM   28  C   UNL     1      -8.982  15.969  65.590  1.00  0.00     0.158 C  
HETATM   29  H   UNL     1      -8.527  17.319  67.132  1.00  0.00     0.000 HD 
HETATM   30  O   UNL     1      -9.088  15.798  64.387  1.00  0.00     2.617 OA 
HETATM   31  N   UNL     1      -8.653  17.214  66.126  1.00  0.00    -0.226 N  
BRANCH  31  32
HETATM   32  C   UNL     1      -8.489  18.364  65.246  1.00  0.00     1.861 C  
BRANCH  32  33
HETATM   33  C   UNL     1      -9.753  19.225  65.165  1.00  0.00     1.763 C  
HETATM   34  O   UNL     1     -10.785  18.610  65.950  1.00  0.00    -0.420 OA 
HETATM   35  H   UNL     1     -11.570  19.144  65.900  1.00  0.00     0.000 HD 
BRANCH  33  36
HETATM   36  C   UNL     1      -9.481  20.658  65.653  1.00  0.00     0.596 C  
HETATM   37  O   UNL     1      -9.728  20.795  67.051  1.00  0.00    -0.633 OA 
HETATM   38  H   UNL     1      -9.560  21.680  67.353  1.00  0.00     0.000 HD 
ENDBRANCH  33  36
ENDBRANCH  32  33
ENDBRANCH  31  32
ENDBRANCH  16  28
ENDBRANCH   6   8
ENDBRANCH   3   4
ENDBRANCH   2   3
TORSDOF 11
ENDMDL
MODEL      174
REMARK 921   NORMALIZED FREE ENERGY PREDICTED BY IDOCK:    8.93 KCAL/MOL
REMARK 922        TOTAL FREE ENERGY PREDICTED BY IDOCK:   13.54 KCAL/MOL
REMARK 923 INTER-LIGAND FREE ENERGY PREDICTED BY IDOCK:   13.10 KCAL/MOL
REMARK 924 INTRA-LIGAND FREE ENERGY PREDICTED BY IDOCK:    0.44 KCAL/MOL
REMARK 927      BINDING AFFINITY PREDICTED BY RF-SCORE:    0.00 PKD
ROOT
HETATM    1  C   UNL     1     -11.321  18.345  71.668  1.00  0.00     4.386 C  
HETATM    2  O   UNL     1     -11.471  16.932  71.566  1.00  0.00    -0.030 OA 
ENDROOT
BRANCH   2   3
HETATM    3  C   UNL     1     -12.526  16.557  70.690  1.00  0.00     1.539 C  
BRANCH   3   4
HETATM    4  C   UNL     1     -12.300  15.206  69.990  1.00  0.00    -0.315 C  
HETATM    5  O   UNL     1     -13.024  14.827  69.073  1.00  0.00     0.504 OA 
HETATM    6  N   UNL     1     -11.201  14.483  70.467  1.00  0.00    -0.491 N  
HETATM    7  H   UNL     1     -10.643  14.818  71.253  1.00  0.00     0.000 HD 
BRANCH   6   8
HETATM    8  C   UNL     1     -10.894  13.255  69.807  1.00  0.00     0.407 A  
HETATM    9  C   UNL     1     -11.385  12.021  70.301  1.00  0.00     0.310 A  
HETATM   10  C   UNL     1     -11.337  10.838  69.507  1.00  0.00    -0.355 A  
HETATM   11  I   UNL     1     -12.227  12.059  72.282  1.00  0.00     4.031 I  
HETATM   12  C   UNL     1     -10.144  13.275  68.610  1.00  0.00    -0.146 A  
HETATM   13  C   UNL     1     -10.775  10.960  68.209  1.00  0.00    -0.204 A  
HETATM   14  I   UNL     1     -11.393   9.618  66.632  1.00  0.00     3.083 I  
HETATM   15  I   UNL     1      -9.047  15.082  68.158  1.00  0.00    -0.194 I  
HETATM   16  C   UNL     1     -10.040  12.115  67.820  1.00  0.00    -0.203 A  
BRANCH  10  17
HETATM   17  C   UNL     1     -12.000   9.577  70.007  1.00  0.00     0.182 C  
HETATM   18  O   UNL     1     -13.195   9.656  70.295  1.00  0.00     0.222 OA 
HETATM   19  C   UNL     1      -9.943   8.058  69.793  1.00  0.00    -0.191 C  
HETATM   20  N   UNL     1     -11.305   8.368  70.209  1.00  0.00    -0.190 N  
BRANCH  20  21
HETATM   21  C   UNL     1     -12.001   7.256  70.912  1.00  0.00    -0.305 C  
BRANCH  21  22
HETATM   22  C   UNL     1     -11.044   6.405  71.787  1.00  0.00    -0.265 C  
HETATM   23  H   UNL     1     -10.676   6.137  73.719  1.00  0.00     0.000 HD 
HETATM   24  O   UNL     1     -11.263   6.658  73.184  1.00  0.00    -0.208 OA 
BRANCH  22  25
HETATM   25  C   UNL     1     -11.204   4.896  71.550  1.00  0.00     0.537 C  
HETATM   26  H   UNL     1     -10.540   3.214  72.345  1.00  0.00     0.000 HD 
HETATM   27  O   UNL     1     -10.441   4.147  72.492  1.00  0.00    -0.178 OA 
ENDBRANCH  22  25
ENDBRANCH  21  22
ENDBRANCH  20  21
ENDBRANCH  10  17
BRANCH  16  28
HETATM   28  C   UNL     1      -9.141  12.101  66.624  1.00  0.00    -0.206 C  
HETATM   29  H   UNL     1     -10.429  13.381  65.572  1.00  0.00     0.000 HD 
HETATM   30  O   UNL     1      -8.109  11.450  66.599  1.00  0.00    -0.157 OA 
HETATM   31  N   UNL     1      -9.586  12.810  65.510  1.00  0.00    -0.069 N  
BRANCH  31  32
HETATM   32  C   UNL     1      -8.848  12.735  64.256  1.00  0.00     2.404 C  
BRANCH  32  33
HETATM   33  C   UNL     1      -9.331  11.591  63.359  1.00  0.00    -0.174 C  
HETATM   34  O   UNL     1      -9.022  10.341  63.993  1.00  0.00    -0.196 OA 
HETATM   35  H   UNL     1      -9.322   9.631  63.437  1.00  0.00     0.000 HD 
BRANCH  33  36
HETATM   36  C   UNL     1     -10.839  11.702  63.082  1.00  0.00    -0.203 C  
HETATM   37  O   UNL     1     -11.613  11.177  64.159  1.00  0.00    -0.221 OA 
HETATM   38  H   UNL     1     -12.545  11.245  63.987  1.00  0.00     0.000 HD 
ENDBRANCH  33  36
ENDBRANCH  32  33
ENDBRANCH  31  32
ENDBRANCH  16  28
ENDBRANCH   6   8
ENDBRANCH   3   4
ENDBRANCH   2   3
TORSDOF 11
ENDMDL
MODEL      175
REMARK 921   NORMALIZED FREE ENERGY PREDICTED BY IDOCK:    9.02 KCAL/MOL
REMARK 922        TOTAL FREE ENERGY PREDICTED BY IDOCK:   13.70 KCAL/MOL
REMARK 923 INTER-LIGAND FREE ENERGY PREDICTED BY IDOCK:    7.36 KCAL/MOL
REMARK 924 INTRA-LIGAND FREE ENERGY PREDICTED BY IDOCK:    6.35 KCAL/MOL
REMARK 927      BINDING AFFINITY PREDICTED BY RF-SCORE:    0.00 PKD
ROOT
HETATM    1  C   UNL     1      -9.536   7.642  74.131  1.00  0.00     0.054 C  
HETATM    2  O   UNL     1     -10.905   7.252  74.191  1.00  0.00    -0.076 OA 
ENDROOT
BRANCH   2   3
HETATM    3  C   UNL     1     -11.625   7.607  73.018  1.00  0.00    -0.131 C  
BRANCH   3   4
HETATM    4  C   UNL     1     -10.907   8.647  72.141  1.00  0.00    -0.354 C  
HETATM    5  O   UNL     1      -9.852   9.168  72.493  1.00  0.00     0.029 OA 
HETATM    6  N   UNL     1     -11.541   8.914  70.922  1.00  0.00    -0.283 N  
HETATM    7  H   UNL     1     -12.435   8.484  70.681  1.00  0.00     0.000 HD 
BRANCH   6   8
HETATM    8  C   UNL     1     -10.885   9.815  70.031  1.00  0.00    -0.278 A  
HETATM    9  C   UNL     1     -11.037  11.217  70.171  1.00  0.00     0.060 A  
HETATM   10  C   UNL     1     -10.173  12.124  69.489  1.00  0.00     0.663 A  
HETATM   11  I   UNL     1     -12.609  11.874  71.487  1.00  0.00     0.199 I  
HETATM   12  C   UNL     1     -10.021   9.306  69.035  1.00  0.00    -0.182 A  
HETATM   13  C   UNL     1      -9.164  11.553  68.669  1.00  0.00    -0.132 A  
HETATM   14  I   UNL     1      -7.326  12.631  68.310  1.00  0.00    -0.141 I  
HETATM   15  I   UNL     1     -10.180   7.202  68.568  1.00  0.00    -0.219 I  
HETATM   16  C   UNL     1      -9.183  10.176  68.313  1.00  0.00    -0.130 A  
BRANCH  10  17
HETATM   17  C   UNL     1     -10.270  13.603  69.775  1.00  0.00     0.930 C  
HETATM   18  O   UNL     1      -9.583  14.034  70.702  1.00  0.00     2.551 OA 
HETATM   19  C   UNL     1     -11.906  14.163  67.878  1.00  0.00    -0.370 C  
HETATM   20  N   UNL     1     -11.139  14.467  69.080  1.00  0.00    -0.251 N  
BRANCH  20  21
HETATM   21  C   UNL     1     -11.318  15.855  69.587  1.00  0.00    -0.342 C  
BRANCH  21  22
HETATM   22  C   UNL     1     -10.907  16.010  71.075  1.00  0.00     0.108 C  
HETATM   23  H   UNL     1      -9.408  15.444  72.247  1.00  0.00     0.000 HD 
HETATM   24  O   UNL     1      -9.659  15.350  71.335  1.00  0.00     1.665 OA 
BRANCH  22  25
HETATM   25  C   UNL     1     -10.764  17.477  71.504  1.00  0.00     2.512 C  
HETATM   26  H   UNL     1     -10.086  19.165  70.734  1.00  0.00     0.000 HD 
HETATM   27  O   UNL     1     -10.175  18.258  70.469  1.00  0.00     1.273 OA 
ENDBRANCH  22  25
ENDBRANCH  21  22
ENDBRANCH  20  21
ENDBRANCH  10  17
BRANCH  16  28
HETATM   28  C   UNL     1      -8.367   9.654  67.172  1.00  0.00    -0.121 C  
HETATM   29  H   UNL     1     -10.075   9.463  65.967  1.00  0.00     0.000 HD 
HETATM   30  O   UNL     1      -7.161   9.498  67.258  1.00  0.00    -0.084 OA 
HETATM   31  N   UNL     1      -9.074   9.281  66.030  1.00  0.00    -0.174 N  
BRANCH  31  32
HETATM   32  C   UNL     1      -8.381   8.630  64.925  1.00  0.00    -0.164 C  
BRANCH  32  33
HETATM   33  C   UNL     1      -8.354   7.105  65.067  1.00  0.00    -0.046 C  
HETATM   34  O   UNL     1      -9.671   6.592  64.814  1.00  0.00     0.897 OA 
HETATM   35  H   UNL     1      -9.654   5.646  64.902  1.00  0.00     0.000 HD 
BRANCH  33  36
HETATM   36  C   UNL     1      -7.332   6.476  64.105  1.00  0.00    -0.077 C  
HETATM   37  O   UNL     1      -5.997   6.623  64.584  1.00  0.00    -0.033 OA 
HETATM   38  H   UNL     1      -5.366   6.234  63.990  1.00  0.00     0.000 HD 
ENDBRANCH  33  36
ENDBRANCH  32  33
ENDBRANCH  31  32
ENDBRANCH  16  28
ENDBRANCH   6   8
ENDBRANCH   3   4
ENDBRANCH   2   3
TORSDOF 11
ENDMDL
MODEL      176
REMARK 921   NORMALIZED FREE ENERGY PREDICTED BY IDOCK:    9.08 KCAL/MOL
REMARK 922        TOTAL FREE ENERGY PREDICTED BY IDOCK:   13.79 KCAL/MOL
REMARK 923 INTER-LIGAND FREE ENERGY PREDICTED BY IDOCK:    2.61 KCAL/MOL
REMARK 924 INTRA-LIGAND FREE ENERGY PREDICTED BY IDOCK:   11.18 KCAL/MOL
REMARK 927      BINDING AFFINITY PREDICTED BY RF-SCORE:    0.00 PKD
ROOT
HETATM    1  C   UNL     1      -9.035  14.692  64.673  1.00  0.00     4.029 C  
HETATM    2  O   UNL     1      -9.566  13.945  65.764  1.00  0.00    -0.208 OA 
ENDROOT
BRANCH   2   3
HETATM    3  C   UNL     1     -10.125  12.704  65.354  1.00  0.00    -0.261 C  
BRANCH   3   4
HETATM    4  C   UNL     1     -10.264  11.681  66.495  1.00  0.00    -0.214 C  
HETATM    5  O   UNL     1     -10.904  11.934  67.512  1.00  0.00    -0.219 OA 
HETATM    6  N   UNL     1      -9.632  10.455  66.255  1.00  0.00    -0.175 N  
HETATM    7  H   UNL     1      -9.083  10.296  65.409  1.00  0.00     0.000 HD 
BRANCH   6   8
HETATM    8  C   UNL     1      -9.788   9.438  67.243  1.00  0.00    -0.179 A  
HETATM    9  C   UNL     1      -9.077   8.216  67.149  1.00  0.00    -0.140 A  
HETATM   10  C   UNL     1      -8.994   7.324  68.258  1.00  0.00    -0.125 A  
HETATM   11  I   UNL     1      -8.115   7.821  65.264  1.00  0.00    -0.096 I  
HETATM   12  C   UNL     1     -10.614   9.676  68.365  1.00  0.00    -0.225 A  
HETATM   13  C   UNL     1      -9.659   7.720  69.449  1.00  0.00    -0.156 A  
HETATM   14  I   UNL     1      -8.949   7.018  71.366  1.00  0.00    -0.142 I  
HETATM   15  I   UNL     1     -12.009  11.322  68.236  1.00  0.00     0.509 I  
HETATM   16  C   UNL     1     -10.590   8.795  69.462  1.00  0.00    -0.224 A  
BRANCH  10  17
HETATM   17  C   UNL     1      -8.109   6.105  68.169  1.00  0.00    -0.111 C  
HETATM   18  O   UNL     1      -8.651   5.051  67.833  1.00  0.00    -0.104 OA 
HETATM   19  C   UNL     1      -5.916   7.286  68.784  1.00  0.00    -0.026 C  
HETATM   20  N   UNL     1      -6.742   6.118  68.508  1.00  0.00    -0.062 N  
BRANCH  20  21
HETATM   21  C   UNL     1      -6.019   4.819  68.598  1.00  0.00    -0.026 C  
BRANCH  21  22
HETATM   22  C   UNL     1      -5.292   4.628  69.955  1.00  0.00    -0.007 C  
HETATM   23  H   UNL     1      -5.042   5.648  71.639  1.00  0.00     0.000 HD 
HETATM   24  O   UNL     1      -5.488   5.765  70.808  1.00  0.00    -0.012 OA 
BRANCH  22  25
HETATM   25  C   UNL     1      -5.766   3.380  70.714  1.00  0.00    -0.013 C  
HETATM   26  H   UNL     1      -7.009   2.951  72.187  1.00  0.00     0.000 HD 
HETATM   27  O   UNL     1      -6.716   3.723  71.718  1.00  0.00    -0.021 OA 
ENDBRANCH  22  25
ENDBRANCH  21  22
ENDBRANCH  20  21
ENDBRANCH  10  17
BRANCH  16  28
HETATM   28  C   UNL     1     -11.557   8.975  70.589  1.00  0.00    -0.224 C  
HETATM   29  H   UNL     1     -13.191   8.663  69.308  1.00  0.00     0.000 HD 
HETATM   30  O   UNL     1     -11.189   9.226  71.724  1.00  0.00    -0.362 OA 
HETATM   31  N   UNL     1     -12.910   8.919  70.255  1.00  0.00     0.801 N  
BRANCH  31  32
HETATM   32  C   UNL     1     -13.921   9.225  71.258  1.00  0.00    -0.079 C  
BRANCH  32  33
HETATM   33  C   UNL     1     -13.795  10.651  71.802  1.00  0.00     0.279 C  
HETATM   34  O   UNL     1     -13.084  10.612  73.048  1.00  0.00     0.530 OA 
HETATM   35  H   UNL     1     -13.005  11.498  73.386  1.00  0.00     0.000 HD 
BRANCH  33  36
HETATM   36  C   UNL     1     -13.078  11.567  70.796  1.00  0.00     0.152 C  
HETATM   37  O   UNL     1     -13.071  12.925  71.231  1.00  0.00    -0.281 OA 
HETATM   38  H   UNL     1     -12.628  13.491  70.610  1.00  0.00     0.000 HD 
ENDBRANCH  33  36
ENDBRANCH  32  33
ENDBRANCH  31  32
ENDBRANCH  16  28
ENDBRANCH   6   8
ENDBRANCH   3   4
ENDBRANCH   2   3
TORSDOF 11
ENDMDL
MODEL      177
REMARK 921   NORMALIZED FREE ENERGY PREDICTED BY IDOCK:    9.42 KCAL/MOL
REMARK 922        TOTAL FREE ENERGY PREDICTED BY IDOCK:   14.35 KCAL/MOL
REMARK 923 INTER-LIGAND FREE ENERGY PREDICTED BY IDOCK:    4.67 KCAL/MOL
REMARK 924 INTRA-LIGAND FREE ENERGY PREDICTED BY IDOCK:    9.68 KCAL/MOL
REMARK 927      BINDING AFFINITY PREDICTED BY RF-SCORE:    0.00 PKD
ROOT
HETATM    1  C   UNL     1      -8.466  13.137  63.205  1.00  0.00     7.839 C  
HETATM    2  O   UNL     1      -9.826  13.012  63.614  1.00  0.00    -0.084 OA 
ENDROOT
BRANCH   2   3
HETATM    3  C   UNL     1     -10.052  11.857  64.411  1.00  0.00    -0.279 C  
BRANCH   3   4
HETATM    4  C   UNL     1      -9.440  11.946  65.819  1.00  0.00    -0.196 C  
HETATM    5  O   UNL     1      -9.424  13.000  66.449  1.00  0.00    -0.256 OA 
HETATM    6  N   UNL     1      -8.943  10.734  66.313  1.00  0.00    -0.165 N  
HETATM    7  H   UNL     1      -8.946   9.886  65.745  1.00  0.00     0.000 HD 
BRANCH   6   8
HETATM    8  C   UNL     1      -8.430  10.735  67.644  1.00  0.00    -0.119 A  
HETATM    9  C   UNL     1      -8.474   9.566  68.443  1.00  0.00    -0.119 A  
HETATM   10  C   UNL     1      -7.715   9.466  69.646  1.00  0.00    -0.098 A  
HETATM   11  I   UNL     1      -9.711   7.964  67.711  1.00  0.00    -0.242 I  
HETATM   12  C   UNL     1      -7.813  11.901  68.153  1.00  0.00    -0.134 A  
HETATM   13  C   UNL     1      -6.924  10.590  70.000  1.00  0.00    -0.146 A  
HETATM   14  I   UNL     1      -5.139  10.324  71.189  1.00  0.00    -0.065 I  
HETATM   15  I   UNL     1      -8.176  13.754  67.102  1.00  0.00     0.147 I  
HETATM   16  C   UNL     1      -7.089  11.850  69.359  1.00  0.00     0.055 A  
BRANCH  10  17
HETATM   17  C   UNL     1      -7.672   8.155  70.393  1.00  0.00    -0.085 C  
HETATM   18  O   UNL     1      -8.288   8.104  71.459  1.00  0.00    -0.107 OA 
HETATM   19  C   UNL     1      -6.264   6.879  68.668  1.00  0.00    -0.027 C  
HETATM   20  N   UNL     1      -6.925   7.043  69.957  1.00  0.00    -0.060 N  
BRANCH  20  21
HETATM   21  C   UNL     1      -6.773   5.882  70.877  1.00  0.00    -0.057 C  
BRANCH  21  22
HETATM   22  C   UNL     1      -6.770   4.521  70.133  1.00  0.00    -0.036 C  
HETATM   23  H   UNL     1      -5.950   2.728  70.362  1.00  0.00     0.000 HD 
HETATM   24  O   UNL     1      -5.952   3.562  70.818  1.00  0.00    -0.016 OA 
BRANCH  22  25
HETATM   25  C   UNL     1      -8.176   3.921  69.983  1.00  0.00    -0.056 C  
HETATM   26  H   UNL     1      -9.830   4.309  68.975  1.00  0.00     0.000 HD 
HETATM   27  O   UNL     1      -8.961   4.679  69.067  1.00  0.00    -0.101 OA 
ENDBRANCH  22  25
ENDBRANCH  21  22
ENDBRANCH  20  21
ENDBRANCH  10  17
BRANCH  16  28
HETATM   28  C   UNL     1      -6.549  13.108  69.962  1.00  0.00     0.183 C  
HETATM   29  H   UNL     1      -7.474  14.278  68.485  1.00  0.00     0.000 HD 
HETATM   30  O   UNL     1      -5.836  13.097  70.952  1.00  0.00    -0.187 OA 
HETATM   31  N   UNL     1      -6.839  14.291  69.283  1.00  0.00    -0.120 N  
BRANCH  31  32
HETATM   32  C   UNL     1      -6.237  15.545  69.715  1.00  0.00    -0.159 C  
BRANCH  32  33
HETATM   33  C   UNL     1      -6.991  16.770  69.189  1.00  0.00    -0.231 C  
HETATM   34  O   UNL     1      -6.235  17.357  68.119  1.00  0.00    -0.150 OA 
HETATM   35  H   UNL     1      -6.703  18.117  67.792  1.00  0.00     0.000 HD 
BRANCH  33  36
HETATM   36  C   UNL     1      -8.403  16.390  68.711  1.00  0.00    -0.242 C  
HETATM   37  O   UNL     1      -9.407  17.161  69.368  1.00  0.00    -0.014 OA 
HETATM   38  H   UNL     1     -10.279  16.926  69.072  1.00  0.00     0.000 HD 
ENDBRANCH  33  36
ENDBRANCH  32  33
ENDBRANCH  31  32
ENDBRANCH  16  28
ENDBRANCH   6   8
ENDBRANCH   3   4
ENDBRANCH   2   3
TORSDOF 11
ENDMDL
MODEL      178
REMARK 921   NORMALIZED FREE ENERGY PREDICTED BY IDOCK:    9.80 KCAL/MOL
REMARK 922        TOTAL FREE ENERGY PREDICTED BY IDOCK:   14.97 KCAL/MOL
REMARK 923 INTER-LIGAND FREE ENERGY PREDICTED BY IDOCK:    2.78 KCAL/MOL
REMARK 924 INTRA-LIGAND FREE ENERGY PREDICTED BY IDOCK:   12.19 KCAL/MOL
REMARK 927      BINDING AFFINITY PREDICTED BY RF-SCORE:    0.00 PKD
ROOT
HETATM    1  C   UNL     1     -10.740   6.961  66.756  1.00  0.00    -0.226 C  
HETATM    2  O   UNL     1     -10.860   7.530  65.455  1.00  0.00     3.104 OA 
ENDROOT
BRANCH   2   3
HETATM    3  C   UNL     1     -10.352   8.856  65.391  1.00  0.00     1.561 C  
BRANCH   3   4
HETATM    4  C   UNL     1      -9.753   9.355  66.717  1.00  0.00    -0.198 C  
HETATM    5  O   UNL     1      -9.561   8.596  67.663  1.00  0.00    -0.148 OA 
HETATM    6  N   UNL     1      -9.430  10.717  66.731  1.00  0.00    -0.160 N  
HETATM    7  H   UNL     1      -9.635  11.321  65.934  1.00  0.00     0.000 HD 
BRANCH   6   8
HETATM    8  C   UNL     1      -8.801  11.224  67.907  1.00  0.00    -0.142 A  
HETATM    9  C   UNL     1      -8.384  10.352  68.944  1.00  0.00    -0.138 A  
HETATM   10  C   UNL     1      -7.507  10.799  69.975  1.00  0.00     0.199 A  
HETATM   11  I   UNL     1      -9.122   8.333  68.838  1.00  0.00    -0.145 I  
HETATM   12  C   UNL     1      -8.534  12.608  68.015  1.00  0.00    -0.177 A  
HETATM   13  C   UNL     1      -7.079  12.152  69.910  1.00  0.00     0.637 A  
HETATM   14  I   UNL     1      -5.183  12.728  70.773  1.00  0.00    -0.156 I  
HETATM   15  I   UNL     1      -9.580  13.927  66.659  1.00  0.00    -0.263 I  
HETATM   16  C   UNL     1      -7.705  13.091  69.044  1.00  0.00     0.195 A  
BRANCH  10  17
HETATM   17  C   UNL     1      -6.968   9.807  70.977  1.00  0.00     0.110 C  
HETATM   18  O   UNL     1      -7.532   9.765  72.072  1.00  0.00     0.526 OA 
HETATM   19  C   UNL     1      -5.148   8.817  69.463  1.00  0.00    -0.031 C  
HETATM   20  N   UNL     1      -5.840   8.999  70.733  1.00  0.00    -0.035 N  
BRANCH  20  21
HETATM   21  C   UNL     1      -5.263   8.222  71.864  1.00  0.00    -0.035 C  
BRANCH  21  22
HETATM   22  C   UNL     1      -5.783   6.762  71.918  1.00  0.00    -0.037 C  
HETATM   23  H   UNL     1      -7.475   5.826  72.366  1.00  0.00     0.000 HD 
HETATM   24  O   UNL     1      -7.157   6.720  72.332  1.00  0.00    -0.070 OA 
BRANCH  22  25
HETATM   25  C   UNL     1      -5.675   6.041  70.567  1.00  0.00    -0.014 C  
HETATM   26  H   UNL     1      -6.690   4.686  69.549  1.00  0.00     0.000 HD 
HETATM   27  O   UNL     1      -6.757   5.132  70.384  1.00  0.00    -0.037 OA 
ENDBRANCH  22  25
ENDBRANCH  21  22
ENDBRANCH  20  21
ENDBRANCH  10  17
BRANCH  16  28
HETATM   28  C   UNL     1      -7.529  14.565  69.234  1.00  0.00    -0.102 C  
HETATM   29  H   UNL     1      -9.599  14.840  69.446  1.00  0.00     0.000 HD 
HETATM   30  O   UNL     1      -6.431  15.095  69.200  1.00  0.00    -0.105 OA 
HETATM   31  N   UNL     1      -8.698  15.312  69.375  1.00  0.00    -0.235 N  
BRANCH  31  32
HETATM   32  C   UNL     1      -8.631  16.767  69.421  1.00  0.00     0.201 C  
BRANCH  32  33
HETATM   33  C   UNL     1      -9.462  17.427  68.317  1.00  0.00    -0.290 C  
HETATM   34  O   UNL     1     -10.851  17.345  68.669  1.00  0.00    -0.288 OA 
HETATM   35  H   UNL     1     -11.367  17.754  67.983  1.00  0.00     0.000 HD 
BRANCH  33  36
HETATM   36  C   UNL     1      -9.042  18.891  68.106  1.00  0.00    -0.313 C  
HETATM   37  O   UNL     1     -10.170  19.741  67.914  1.00  0.00    -0.402 OA 
HETATM   38  H   UNL     1      -9.910  20.646  67.783  1.00  0.00     0.000 HD 
ENDBRANCH  33  36
ENDBRANCH  32  33
ENDBRANCH  31  32
ENDBRANCH  16  28
ENDBRANCH   6   8
ENDBRANCH   3   4
ENDBRANCH   2   3
TORSDOF 11
ENDMDL
MODEL      179
REMARK 921   NORMALIZED FREE ENERGY PREDICTED BY IDOCK:   10.13 KCAL/MOL
REMARK 922        TOTAL FREE ENERGY PREDICTED BY IDOCK:   15.51 KCAL/MOL
REMARK 923 INTER-LIGAND FREE ENERGY PREDICTED BY IDOCK:   11.12 KCAL/MOL
REMARK 924 INTRA-LIGAND FREE ENERGY PREDICTED BY IDOCK:    4.40 KCAL/MOL
REMARK 927      BINDING AFFINITY PREDICTED BY RF-SCORE:    0.00 PKD
ROOT
HETATM    1  C   UNL     1     -14.266  20.557  67.078  1.00  0.00     6.217 C  
HETATM    2  O   UNL     1     -13.371  19.596  67.631  1.00  0.00     4.342 OA 
ENDROOT
BRANCH   2   3
HETATM    3  C   UNL     1     -12.298  19.282  66.754  1.00  0.00     4.162 C  
BRANCH   3   4
HETATM    4  C   UNL     1     -11.109  18.596  67.449  1.00  0.00     0.023 C  
HETATM    5  O   UNL     1     -10.494  19.143  68.361  1.00  0.00    -0.355 OA 
HETATM    6  N   UNL     1     -10.822  17.311  66.974  1.00  0.00    -0.132 N  
HETATM    7  H   UNL     1     -11.337  16.906  66.192  1.00  0.00     0.000 HD 
BRANCH   6   8
HETATM    8  C   UNL     1      -9.777  16.594  67.630  1.00  0.00    -0.250 A  
HETATM    9  C   UNL     1      -9.899  15.206  67.890  1.00  0.00    -0.216 A  
HETATM   10  C   UNL     1      -8.768  14.426  68.271  1.00  0.00    -0.180 A  
HETATM   11  I   UNL     1     -11.864  14.364  67.640  1.00  0.00    -0.215 I  
HETATM   12  C   UNL     1      -8.578  17.261  67.968  1.00  0.00    -0.234 A  
HETATM   13  C   UNL     1      -7.527  15.106  68.377  1.00  0.00    -0.115 A  
HETATM   14  I   UNL     1      -5.677  14.033  68.066  1.00  0.00    -0.041 I  
HETATM   15  I   UNL     1      -8.616  19.422  67.979  1.00  0.00    -0.382 I  
HETATM   16  C   UNL     1      -7.453  16.527  68.387  1.00  0.00    -0.186 A  
BRANCH  10  17
HETATM   17  C   UNL     1      -8.906  12.928  68.397  1.00  0.00    -0.120 C  
HETATM   18  O   UNL     1      -8.926  12.468  69.540  1.00  0.00     1.092 OA 
HETATM   19  C   UNL     1      -9.077  12.434  65.885  1.00  0.00     0.099 C  
HETATM   20  N   UNL     1      -8.947  12.061  67.288  1.00  0.00    -0.174 N  
BRANCH  20  21
HETATM   21  C   UNL     1      -8.859  10.594  67.527  1.00  0.00    -0.132 C  
BRANCH  21  22
HETATM   22  C   UNL     1     -10.135   9.834  67.080  1.00  0.00    -0.218 C  
HETATM   23  H   UNL     1     -10.585   8.080  66.266  1.00  0.00     0.000 HD 
HETATM   24  O   UNL     1      -9.804   8.545  66.541  1.00  0.00    -0.237 OA 
BRANCH  22  25
HETATM   25  C   UNL     1     -11.136   9.623  68.225  1.00  0.00    -0.046 C  
HETATM   26  H   UNL     1     -12.266  10.737  69.401  1.00  0.00     0.000 HD 
HETATM   27  O   UNL     1     -11.648  10.867  68.693  1.00  0.00    -0.287 OA 
ENDBRANCH  22  25
ENDBRANCH  21  22
ENDBRANCH  20  21
ENDBRANCH  10  17
BRANCH  16  28
HETATM   28  C   UNL     1      -6.230  17.241  68.870  1.00  0.00    -0.185 C  
HETATM   29  H   UNL     1      -7.018  17.394  70.809  1.00  0.00     0.000 HD 
HETATM   30  O   UNL     1      -5.298  17.501  68.127  1.00  0.00    -0.135 OA 
HETATM   31  N   UNL     1      -6.247  17.664  70.198  1.00  0.00    -0.043 N  
BRANCH  31  32
HETATM   32  C   UNL     1      -5.163  18.490  70.713  1.00  0.00    -0.266 C  
BRANCH  32  33
HETATM   33  C   UNL     1      -5.654  19.844  71.235  1.00  0.00    -0.325 C  
HETATM   34  O   UNL     1      -5.224  20.002  72.595  1.00  0.00     0.155 OA 
HETATM   35  H   UNL     1      -5.530  20.842  72.919  1.00  0.00     0.000 HD 
BRANCH  33  36
HETATM   36  C   UNL     1      -5.131  20.998  70.363  1.00  0.00    -0.261 C  
HETATM   37  O   UNL     1      -5.269  20.712  68.973  1.00  0.00    -0.239 OA 
HETATM   38  H   UNL     1      -4.946  21.426  68.434  1.00  0.00     0.000 HD 
ENDBRANCH  33  36
ENDBRANCH  32  33
ENDBRANCH  31  32
ENDBRANCH  16  28
ENDBRANCH   6   8
ENDBRANCH   3   4
ENDBRANCH   2   3
TORSDOF 11
ENDMDL
MODEL      180
REMARK 921   NORMALIZED FREE ENERGY PREDICTED BY IDOCK:   10.56 KCAL/MOL
REMARK 922        TOTAL FREE ENERGY PREDICTED BY IDOCK:   16.23 KCAL/MOL
REMARK 923 INTER-LIGAND FREE ENERGY PREDICTED BY IDOCK:    3.27 KCAL/MOL
REMARK 924 INTRA-LIGAND FREE ENERGY PREDICTED BY IDOCK:   12.96 KCAL/MOL
REMARK 927      BINDING AFFINITY PREDICTED BY RF-SCORE:    0.00 PKD
ROOT
HETATM    1  C   UNL     1      -6.803  13.199  68.250  1.00  0.00    -0.103 C  
HETATM    2  O   UNL     1      -6.210  12.952  66.978  1.00  0.00    -0.242 OA 
ENDROOT
BRANCH   2   3
HETATM    3  C   UNL     1      -6.947  12.014  66.205  1.00  0.00     0.706 C  
BRANCH   3   4
HETATM    4  C   UNL     1      -8.275  11.586  66.852  1.00  0.00    -0.167 C  
HETATM    5  O   UNL     1      -9.109  10.928  66.236  1.00  0.00    -0.166 OA 
HETATM    6  N   UNL     1      -8.426  11.986  68.185  1.00  0.00    -0.165 N  
HETATM    7  H   UNL     1      -7.724  12.560  68.651  1.00  0.00     0.000 HD 
BRANCH   6   8
HETATM    8  C   UNL     1      -9.606  11.555  68.863  1.00  0.00    -0.030 A  
HETATM    9  C   UNL     1      -9.986  10.190  68.867  1.00  0.00    -0.199 A  
HETATM   10  C   UNL     1     -10.979   9.705  69.768  1.00  0.00    -0.266 A  
HETATM   11  I   UNL     1      -8.955   8.914  67.474  1.00  0.00    -0.156 I  
HETATM   12  C   UNL     1     -10.372  12.492  69.593  1.00  0.00     0.920 A  
HETATM   13  C   UNL     1     -11.564  10.653  70.649  1.00  0.00    -0.336 A  
HETATM   14  I   UNL     1     -12.351  10.012  72.557  1.00  0.00     2.233 I  
HETATM   15  I   UNL     1     -10.029  14.586  69.184  1.00  0.00     0.124 I  
HETATM   16  C   UNL     1     -11.388  12.052  70.462  1.00  0.00     0.643 A  
BRANCH  10  17
HETATM   17  C   UNL     1     -11.254   8.223  69.845  1.00  0.00    -0.028 C  
HETATM   18  O   UNL     1     -12.277   7.819  69.289  1.00  0.00     1.520 OA 
HETATM   19  C   UNL     1      -9.135   7.598  71.151  1.00  0.00    -0.146 C  
HETATM   20  N   UNL     1     -10.440   7.324  70.562  1.00  0.00    -0.214 N  
BRANCH  20  21
HETATM   21  C   UNL     1     -10.922   5.929  70.758  1.00  0.00    -0.273 C  
BRANCH  21  22
HETATM   22  C   UNL     1     -10.849   5.079  69.463  1.00  0.00     0.557 C  
HETATM   23  H   UNL     1     -11.164   5.341  67.520  1.00  0.00     0.000 HD 
HETATM   24  O   UNL     1     -11.209   5.861  68.314  1.00  0.00    -0.189 OA 
BRANCH  22  25
HETATM   25  C   UNL     1      -9.452   4.491  69.214  1.00  0.00    -0.172 C  
HETATM   26  H   UNL     1      -8.661   2.966  68.239  1.00  0.00     0.000 HD 
HETATM   27  O   UNL     1      -9.525   3.330  68.392  1.00  0.00    -0.181 OA 
ENDBRANCH  22  25
ENDBRANCH  21  22
ENDBRANCH  20  21
ENDBRANCH  10  17
BRANCH  16  28
HETATM   28  C   UNL     1     -12.283  13.046  71.132  1.00  0.00    -0.042 C  
HETATM   29  H   UNL     1     -13.132  13.603  69.295  1.00  0.00     0.000 HD 
HETATM   30  O   UNL     1     -12.255  13.231  72.338  1.00  0.00     0.472 OA 
HETATM   31  N   UNL     1     -13.095  13.808  70.294  1.00  0.00     0.091 N  
BRANCH  31  32
HETATM   32  C   UNL     1     -13.892  14.898  70.844  1.00  0.00    -0.146 C  
BRANCH  32  33
HETATM   33  C   UNL     1     -13.477  15.264  72.272  1.00  0.00    -0.450 C  
HETATM   34  O   UNL     1     -14.292  14.528  73.196  1.00  0.00     0.003 OA 
HETATM   35  H   UNL     1     -14.034  14.755  74.083  1.00  0.00     0.000 HD 
BRANCH  33  36
HETATM   36  C   UNL     1     -11.986  14.970  72.510  1.00  0.00    -0.333 C  
HETATM   37  O   UNL     1     -11.522  15.547  73.729  1.00  0.00     0.009 OA 
HETATM   38  H   UNL     1     -10.601  15.365  73.875  1.00  0.00     0.000 HD 
ENDBRANCH  33  36
ENDBRANCH  32  33
ENDBRANCH  31  32
ENDBRANCH  16  28
ENDBRANCH   6   8
ENDBRANCH   3   4
ENDBRANCH   2   3
TORSDOF 11
ENDMDL
MODEL      181
REMARK 921   NORMALIZED FREE ENERGY PREDICTED BY IDOCK:   10.69 KCAL/MOL
REMARK 922        TOTAL FREE ENERGY PREDICTED BY IDOCK:   16.44 KCAL/MOL
REMARK 923 INTER-LIGAND FREE ENERGY PREDICTED BY IDOCK:    3.87 KCAL/MOL
REMARK 924 INTRA-LIGAND FREE ENERGY PREDICTED BY IDOCK:   12.57 KCAL/MOL
REMARK 927      BINDING AFFINITY PREDICTED BY RF-SCORE:    0.00 PKD
ROOT
HETATM    1  C   UNL     1     -13.212   8.589  73.553  1.00  0.00     2.263 C  
HETATM    2  O   UNL     1     -12.174   9.514  73.240  1.00  0.00     1.332 OA 
ENDROOT
BRANCH   2   3
HETATM    3  C   UNL     1     -12.494  10.337  72.126  1.00  0.00     0.054 C  
BRANCH   3   4
HETATM    4  C   UNL     1     -11.641  10.050  70.878  1.00  0.00    -0.378 C  
HETATM    5  O   UNL     1     -10.854  10.880  70.431  1.00  0.00    -0.060 OA 
HETATM    6  N   UNL     1     -11.823   8.773  70.333  1.00  0.00    -0.472 N  
HETATM    7  H   UNL     1     -12.511   8.124  70.716  1.00  0.00     0.000 HD 
BRANCH   6   8
HETATM    8  C   UNL     1     -11.005   8.420  69.219  1.00  0.00     0.046 A  
HETATM    9  C   UNL     1     -10.855   9.299  68.117  1.00  0.00    -0.090 A  
HETATM   10  C   UNL     1      -9.829   9.098  67.148  1.00  0.00    -0.253 A  
HETATM   11  I   UNL     1     -12.231  10.952  68.030  1.00  0.00     2.687 I  
HETATM   12  C   UNL     1     -10.284   7.204  69.239  1.00  0.00    -0.190 A  
HETATM   13  C   UNL     1      -8.977   7.978  67.340  1.00  0.00    -0.134 A  
HETATM   14  I   UNL     1      -6.958   8.012  66.569  1.00  0.00    -0.073 I  
HETATM   15  I   UNL     1     -10.892   5.717  70.686  1.00  0.00    -0.157 I  
HETATM   16  C   UNL     1      -9.292   6.952  68.273  1.00  0.00    -0.125 A  
BRANCH  10  17
HETATM   17  C   UNL     1      -9.607  10.133  66.072  1.00  0.00    -0.210 C  
HETATM   18  O   UNL     1     -10.610  10.688  65.622  1.00  0.00    -0.204 OA 
HETATM   19  C   UNL     1      -7.045   9.984  66.044  1.00  0.00    -0.111 C  
HETATM   20  N   UNL     1      -8.337  10.432  65.540  1.00  0.00    -0.164 N  
BRANCH  20  21
HETATM   21  C   UNL     1      -8.258  11.303  64.335  1.00  0.00     0.675 C  
BRANCH  21  22
HETATM   22  C   UNL     1      -7.965  10.508  63.036  1.00  0.00    -0.102 C  
HETATM   23  H   UNL     1      -6.825   8.983  62.477  1.00  0.00     0.000 HD 
HETATM   24  O   UNL     1      -7.003   9.469  63.274  1.00  0.00    -0.099 OA 
BRANCH  22  25
HETATM   25  C   UNL     1      -9.223   9.859  62.439  1.00  0.00    -0.284 C  
HETATM   26  H   UNL     1     -11.149   9.745  62.862  1.00  0.00     0.000 HD 
HETATM   27  O   UNL     1     -10.372  10.146  63.231  1.00  0.00     0.407 OA 
ENDBRANCH  22  25
ENDBRANCH  21  22
ENDBRANCH  20  21
ENDBRANCH  10  17
BRANCH  16  28
HETATM   28  C   UNL     1      -8.624   5.615  68.217  1.00  0.00    -0.107 C  
HETATM   29  H   UNL     1      -6.743   6.506  67.944  1.00  0.00     0.000 HD 
HETATM   30  O   UNL     1      -9.252   4.573  68.311  1.00  0.00    -0.118 OA 
HETATM   31  N   UNL     1      -7.251   5.622  67.973  1.00  0.00    -0.071 N  
BRANCH  31  32
HETATM   32  C   UNL     1      -6.543   4.366  67.760  1.00  0.00    -0.046 C  
BRANCH  32  33
HETATM   33  C   UNL     1      -7.086   3.231  68.633  1.00  0.00    -0.049 C  
HETATM   34  O   UNL     1      -6.454   2.002  68.244  1.00  0.00    -0.028 OA 
HETATM   35  H   UNL     1      -6.791   1.298  68.785  1.00  0.00     0.000 HD 
BRANCH  33  36
HETATM   36  C   UNL     1      -6.847   3.515  70.126  1.00  0.00    -0.034 C  
HETATM   37  O   UNL     1      -6.672   4.909  70.375  1.00  0.00    -0.034 OA 
HETATM   38  H   UNL     1      -6.524   5.084  71.298  1.00  0.00     0.000 HD 
ENDBRANCH  33  36
ENDBRANCH  32  33
ENDBRANCH  31  32
ENDBRANCH  16  28
ENDBRANCH   6   8
ENDBRANCH   3   4
ENDBRANCH   2   3
TORSDOF 11
ENDMDL
MODEL      182
REMARK 921   NORMALIZED FREE ENERGY PREDICTED BY IDOCK:   11.15 KCAL/MOL
REMARK 922        TOTAL FREE ENERGY PREDICTED BY IDOCK:   17.19 KCAL/MOL
REMARK 923 INTER-LIGAND FREE ENERGY PREDICTED BY IDOCK:    8.75 KCAL/MOL
REMARK 924 INTRA-LIGAND FREE ENERGY PREDICTED BY IDOCK:    8.44 KCAL/MOL
REMARK 927      BINDING AFFINITY PREDICTED BY RF-SCORE:    0.00 PKD
ROOT
HETATM    1  C   UNL     1      -5.275  13.332  70.904  1.00  0.00    -0.148 C  
HETATM    2  O   UNL     1      -5.647  14.314  71.867  1.00  0.00    -0.200 OA 
ENDROOT
BRANCH   2   3
HETATM    3  C   UNL     1      -7.050  14.545  71.896  1.00  0.00     2.707 C  
BRANCH   3   4
HETATM    4  C   UNL     1      -7.638  14.958  70.536  1.00  0.00     0.907 C  
HETATM    5  O   UNL     1      -7.901  16.130  70.278  1.00  0.00     0.903 OA 
HETATM    6  N   UNL     1      -7.814  13.901  69.636  1.00  0.00    -0.078 N  
HETATM    7  H   UNL     1      -7.613  12.937  69.901  1.00  0.00     0.000 HD 
BRANCH   6   8
HETATM    8  C   UNL     1      -8.287  14.231  68.330  1.00  0.00    -0.164 A  
HETATM    9  C   UNL     1      -8.949  13.267  67.530  1.00  0.00    -0.208 A  
HETATM   10  C   UNL     1      -9.676  13.650  66.365  1.00  0.00    -0.300 A  
HETATM   11  I   UNL     1      -8.817  11.226  68.202  1.00  0.00    -0.171 I  
HETATM   12  C   UNL     1      -8.149  15.554  67.852  1.00  0.00    -0.139 A  
HETATM   13  C   UNL     1      -9.698  15.034  66.050  1.00  0.00    -0.328 A  
HETATM   14  I   UNL     1     -11.362  15.865  64.949  1.00  0.00     0.112 I  
HETATM   15  I   UNL     1      -6.753  16.841  68.885  1.00  0.00    -0.222 I  
HETATM   16  C   UNL     1      -8.820  15.957  66.682  1.00  0.00    -0.316 A  
BRANCH  10  17
HETATM   17  C   UNL     1     -10.488  12.618  65.622  1.00  0.00    -0.275 C  
HETATM   18  O   UNL     1      -9.859  11.774  64.981  1.00  0.00    -0.246 OA 
HETATM   19  C   UNL     1     -12.792  13.448  66.387  1.00  0.00     0.340 C  
HETATM   20  N   UNL     1     -11.896  12.624  65.585  1.00  0.00    -0.416 N  
BRANCH  20  21
HETATM   21  C   UNL     1     -12.589  11.699  64.646  1.00  0.00     0.635 C  
BRANCH  21  22
HETATM   22  C   UNL     1     -12.442  12.128  63.162  1.00  0.00    -0.243 C  
HETATM   23  H   UNL     1     -12.351  13.820  62.129  1.00  0.00     0.000 HD 
HETATM   24  O   UNL     1     -12.440  13.558  63.038  1.00  0.00    -0.709 OA 
BRANCH  22  25
HETATM   25  C   UNL     1     -11.156  11.596  62.513  1.00  0.00     1.278 C  
HETATM   26  H   UNL     1     -10.061   9.953  62.571  1.00  0.00     0.000 HD 
HETATM   27  O   UNL     1     -10.856  10.282  62.973  1.00  0.00     1.062 OA 
ENDBRANCH  22  25
ENDBRANCH  21  22
ENDBRANCH  20  21
ENDBRANCH  10  17
BRANCH  16  28
HETATM   28  C   UNL     1      -8.570  17.315  66.106  1.00  0.00    -0.172 C  
HETATM   29  H   UNL     1      -9.515  18.240  67.736  1.00  0.00     0.000 HD 
HETATM   30  O   UNL     1      -8.006  17.470  65.036  1.00  0.00     1.406 OA 
HETATM   31  N   UNL     1      -9.088  18.393  66.823  1.00  0.00    -0.284 N  
BRANCH  31  32
HETATM   32  C   UNL     1      -9.019  19.739  66.267  1.00  0.00    -0.376 C  
BRANCH  32  33
HETATM   33  C   UNL     1     -10.383  20.435  66.246  1.00  0.00    -0.123 C  
HETATM   34  O   UNL     1     -10.444  21.370  67.333  1.00  0.00     0.938 OA 
HETATM   35  H   UNL     1     -11.290  21.803  67.320  1.00  0.00     0.000 HD 
BRANCH  33  36
HETATM   36  C   UNL     1     -10.622  21.147  64.903  1.00  0.00     2.834 C  
HETATM   37  O   UNL     1     -11.531  20.423  64.077  1.00  0.00     0.742 OA 
HETATM   38  H   UNL     1     -11.678  20.863  63.248  1.00  0.00     0.000 HD 
ENDBRANCH  33  36
ENDBRANCH  32  33
ENDBRANCH  31  32
ENDBRANCH  16  28
ENDBRANCH   6   8
ENDBRANCH   3   4
ENDBRANCH   2   3
TORSDOF 11
ENDMDL
MODEL      183
REMARK 921   NORMALIZED FREE ENERGY PREDICTED BY IDOCK:   11.23 KCAL/MOL
REMARK 922        TOTAL FREE ENERGY PREDICTED BY IDOCK:   17.32 KCAL/MOL
REMARK 923 INTER-LIGAND FREE ENERGY PREDICTED BY IDOCK:   14.93 KCAL/MOL
REMARK 924 INTRA-LIGAND FREE ENERGY PREDICTED BY IDOCK:    2.39 KCAL/MOL
REMARK 927      BINDING AFFINITY PREDICTED BY RF-SCORE:    0.00 PKD
ROOT
HETATM    1  C   UNL     1     -11.722  17.178  64.246  1.00  0.00     2.041 C  
HETATM    2  O   UNL     1     -11.461  17.529  65.602  1.00  0.00     0.712 OA 
ENDROOT
BRANCH   2   3
HETATM    3  C   UNL     1     -12.392  16.948  66.505  1.00  0.00     3.882 C  
BRANCH   3   4
HETATM    4  C   UNL     1     -11.743  16.045  67.568  1.00  0.00     0.305 C  
HETATM    5  O   UNL     1     -11.795  16.319  68.764  1.00  0.00    -0.278 OA 
HETATM    6  N   UNL     1     -11.127  14.897  67.056  1.00  0.00    -0.331 N  
HETATM    7  H   UNL     1     -11.077  14.722  66.052  1.00  0.00     0.000 HD 
BRANCH   6   8
HETATM    8  C   UNL     1     -10.571  13.982  67.999  1.00  0.00    -0.247 A  
HETATM    9  C   UNL     1     -11.375  13.402  69.012  1.00  0.00    -0.287 A  
HETATM   10  C   UNL     1     -10.916  12.282  69.766  1.00  0.00     0.214 A  
HETATM   11  I   UNL     1     -13.316  14.284  69.303  1.00  0.00     4.328 I  
HETATM   12  C   UNL     1      -9.215  13.600  67.885  1.00  0.00    -0.203 A  
HETATM   13  C   UNL     1      -9.623  11.786  69.454  1.00  0.00     0.709 A  
HETATM   14  I   UNL     1      -9.148   9.707  69.806  1.00  0.00    -0.241 I  
HETATM   15  I   UNL     1      -7.939  14.832  66.650  1.00  0.00     1.145 I  
HETATM   16  C   UNL     1      -8.716  12.525  68.644  1.00  0.00     0.047 A  
BRANCH  10  17
HETATM   17  C   UNL     1     -11.854  11.600  70.732  1.00  0.00    -0.015 C  
HETATM   18  O   UNL     1     -11.703  11.860  71.927  1.00  0.00     1.701 OA 
HETATM   19  C   UNL     1     -13.231  10.342  68.969  1.00  0.00     3.101 C  
HETATM   20  N   UNL     1     -12.823  10.658  70.332  1.00  0.00    -0.281 N  
BRANCH  20  21
HETATM   21  C   UNL     1     -13.539   9.885  71.383  1.00  0.00    -0.223 C  
BRANCH  21  22
HETATM   22  C   UNL     1     -12.611   8.905  72.147  1.00  0.00    -0.399 C  
HETATM   23  H   UNL     1     -12.715   7.739  73.750  1.00  0.00     0.000 HD 
HETATM   24  O   UNL     1     -13.284   8.339  73.282  1.00  0.00     0.293 OA 
BRANCH  22  25
HETATM   25  C   UNL     1     -12.113   7.748  71.268  1.00  0.00    -0.306 C  
HETATM   26  H   UNL     1     -12.851   6.102  70.464  1.00  0.00     0.000 HD 
HETATM   27  O   UNL     1     -13.159   6.817  71.007  1.00  0.00    -0.215 OA 
ENDBRANCH  22  25
ENDBRANCH  21  22
ENDBRANCH  20  21
ENDBRANCH  10  17
BRANCH  16  28
HETATM   28  C   UNL     1      -7.254  12.206  68.620  1.00  0.00    -0.109 C  
HETATM   29  H   UNL     1      -7.339  11.713  66.582  1.00  0.00     0.000 HD 
HETATM   30  O   UNL     1      -6.557  12.290  69.618  1.00  0.00    -0.103 OA 
HETATM   31  N   UNL     1      -6.746  11.731  67.412  1.00  0.00    -0.107 N  
BRANCH  31  32
HETATM   32  C   UNL     1      -5.369  11.260  67.335  1.00  0.00    -0.048 C  
BRANCH  32  33
HETATM   33  C   UNL     1      -5.225   9.797  67.762  1.00  0.00    -0.036 C  
HETATM   34  O   UNL     1      -5.862   9.620  69.037  1.00  0.00    -0.036 OA 
HETATM   35  H   UNL     1      -5.772   8.712  69.302  1.00  0.00     0.000 HD 
BRANCH  33  36
HETATM   36  C   UNL     1      -5.835   8.850  66.715  1.00  0.00    -0.052 C  
HETATM   37  O   UNL     1      -5.833   7.496  67.164  1.00  0.00    -0.029 OA 
HETATM   38  H   UNL     1      -6.210   6.911  66.517  1.00  0.00     0.000 HD 
ENDBRANCH  33  36
ENDBRANCH  32  33
ENDBRANCH  31  32
ENDBRANCH  16  28
ENDBRANCH   6   8
ENDBRANCH   3   4
ENDBRANCH   2   3
TORSDOF 11
ENDMDL
MODEL      184
REMARK 921   NORMALIZED FREE ENERGY PREDICTED BY IDOCK:   11.58 KCAL/MOL
REMARK 922        TOTAL FREE ENERGY PREDICTED BY IDOCK:   17.90 KCAL/MOL
REMARK 923 INTER-LIGAND FREE ENERGY PREDICTED BY IDOCK:   10.47 KCAL/MOL
REMARK 924 INTRA-LIGAND FREE ENERGY PREDICTED BY IDOCK:    7.43 KCAL/MOL
REMARK 927      BINDING AFFINITY PREDICTED BY RF-SCORE:    0.00 PKD
ROOT
HETATM    1  C   UNL     1      -9.642  14.775  65.681  1.00  0.00    -0.200 C  
HETATM    2  O   UNL     1      -9.738  14.039  64.465  1.00  0.00     0.020 OA 
ENDROOT
BRANCH   2   3
HETATM    3  C   UNL     1      -8.607  13.208  64.239  1.00  0.00     4.701 C  
BRANCH   3   4
HETATM    4  C   UNL     1      -8.376  12.162  65.343  1.00  0.00     1.251 C  
HETATM    5  O   UNL     1      -8.316  12.479  66.528  1.00  0.00    -0.026 OA 
HETATM    6  N   UNL     1      -8.273  10.845  64.881  1.00  0.00    -0.370 N  
HETATM    7  H   UNL     1      -8.297  10.627  63.884  1.00  0.00     0.000 HD 
BRANCH   6   8
HETATM    8  C   UNL     1      -8.134   9.820  65.863  1.00  0.00    -0.114 A  
HETATM    9  C   UNL     1      -8.710   8.540  65.668  1.00  0.00    -0.181 A  
HETATM   10  C   UNL     1      -8.340   7.432  66.486  1.00  0.00    -0.124 A  
HETATM   11  I   UNL     1     -10.128   8.375  64.057  1.00  0.00     7.626 I  
HETATM   12  C   UNL     1      -7.357  10.062  67.019  1.00  0.00    -0.091 A  
HETATM   13  C   UNL     1      -7.375   7.678  67.498  1.00  0.00    -0.095 A  
HETATM   14  I   UNL     1      -6.100   6.075  68.187  1.00  0.00    -0.023 I  
HETATM   15  I   UNL     1      -6.899  12.121  67.491  1.00  0.00    -0.131 I  
HETATM   16  C   UNL     1      -7.007   8.999  67.873  1.00  0.00    -0.078 A  
BRANCH  10  17
HETATM   17  C   UNL     1      -8.862   6.055  66.156  1.00  0.00    -0.148 C  
HETATM   18  O   UNL     1      -8.222   5.403  65.329  1.00  0.00    -0.120 OA 
HETATM   19  C   UNL     1     -10.849   6.096  67.780  1.00  0.00    -0.325 C  
HETATM   20  N   UNL     1     -10.053   5.532  66.697  1.00  0.00    -0.187 N  
BRANCH  20  21
HETATM   21  C   UNL     1     -10.591   4.262  66.137  1.00  0.00     0.273 C  
BRANCH  21  22
HETATM   22  C   UNL     1      -9.495   3.378  65.487  1.00  0.00    -0.127 C  
HETATM   23  H   UNL     1      -8.697   1.584  65.776  1.00  0.00     0.000 HD 
HETATM   24  O   UNL     1      -9.369   2.124  66.175  1.00  0.00    -0.029 OA 
BRANCH  22  25
HETATM   25  C   UNL     1      -9.771   3.079  64.006  1.00  0.00    -0.148 C  
HETATM   26  H   UNL     1     -11.262   3.285  62.728  1.00  0.00     0.000 HD 
HETATM   27  O   UNL     1     -11.091   3.470  63.643  1.00  0.00    -0.271 OA 
ENDBRANCH  22  25
ENDBRANCH  21  22
ENDBRANCH  20  21
ENDBRANCH  10  17
BRANCH  16  28
HETATM   28  C   UNL     1      -6.298   9.276  69.161  1.00  0.00    -0.042 C  
HETATM   29  H   UNL     1      -7.933   8.572  70.274  1.00  0.00     0.000 HD 
HETATM   30  O   UNL     1      -5.180   9.763  69.193  1.00  0.00    -0.036 OA 
HETATM   31  N   UNL     1      -7.019   9.020  70.328  1.00  0.00    -0.046 N  
BRANCH  31  32
HETATM   32  C   UNL     1      -6.464   9.394  71.623  1.00  0.00     0.100 C  
BRANCH  32  33
HETATM   33  C   UNL     1      -6.767   8.359  72.710  1.00  0.00    -0.084 C  
HETATM   34  O   UNL     1      -6.721   7.047  72.129  1.00  0.00    -0.056 OA 
HETATM   35  H   UNL     1      -6.909   6.404  72.804  1.00  0.00     0.000 HD 
BRANCH  33  36
HETATM   36  C   UNL     1      -5.770   8.471  73.876  1.00  0.00    -0.108 C  
HETATM   37  O   UNL     1      -5.763   9.781  74.440  1.00  0.00    -0.339 OA 
HETATM   38  H   UNL     1      -5.147   9.851  75.160  1.00  0.00     0.000 HD 
ENDBRANCH  33  36
ENDBRANCH  32  33
ENDBRANCH  31  32
ENDBRANCH  16  28
ENDBRANCH   6   8
ENDBRANCH   3   4
ENDBRANCH   2   3
TORSDOF 11
ENDMDL
MODEL      185
REMARK 921   NORMALIZED FREE ENERGY PREDICTED BY IDOCK:   12.36 KCAL/MOL
REMARK 922        TOTAL FREE ENERGY PREDICTED BY IDOCK:   19.18 KCAL/MOL
REMARK 923 INTER-LIGAND FREE ENERGY PREDICTED BY IDOCK:   13.93 KCAL/MOL
REMARK 924 INTRA-LIGAND FREE ENERGY PREDICTED BY IDOCK:    5.25 KCAL/MOL
REMARK 927      BINDING AFFINITY PREDICTED BY RF-SCORE:    0.00 PKD
ROOT
HETATM    1  C   UNL     1      -7.649   9.335  71.586  1.00  0.00     0.333 C  
HETATM    2  O   UNL     1      -8.576  10.036  72.410  1.00  0.00     3.059 OA 
ENDROOT
BRANCH   2   3
HETATM    3  C   UNL     1      -9.915   9.919  71.947  1.00  0.00     2.235 C  
BRANCH   3   4
HETATM    4  C   UNL     1     -10.169  10.625  70.604  1.00  0.00     1.107 C  
HETATM    5  O   UNL     1     -10.859  10.112  69.726  1.00  0.00    -0.240 OA 
HETATM    6  N   UNL     1      -9.578  11.889  70.492  1.00  0.00     3.882 N  
HETATM    7  H   UNL     1      -8.985  12.267  71.233  1.00  0.00     0.000 HD 
BRANCH   6   8
HETATM    8  C   UNL     1      -9.839  12.626  69.299  1.00  0.00     0.672 A  
HETATM    9  C   UNL     1     -10.272  13.975  69.356  1.00  0.00     0.199 A  
HETATM   10  C   UNL     1     -10.254  14.804  68.196  1.00  0.00    -0.228 A  
HETATM   11  I   UNL     1     -10.910  14.685  71.285  1.00  0.00     1.846 I  
HETATM   12  C   UNL     1      -9.603  12.026  68.042  1.00  0.00    -0.199 A  
HETATM   13  C   UNL     1      -9.788  14.212  66.993  1.00  0.00    -0.258 A  
HETATM   14  I   UNL     1      -8.886  15.443  65.463  1.00  0.00     2.541 I  
HETATM   15  I   UNL     1      -9.399   9.874  67.995  1.00  0.00    -0.151 I  
HETATM   16  C   UNL     1      -9.618  12.805  66.870  1.00  0.00    -0.235 A  
BRANCH  10  17
HETATM   17  C   UNL     1     -10.583  16.271  68.325  1.00  0.00    -0.300 C  
HETATM   18  O   UNL     1     -11.762  16.591  68.168  1.00  0.00    -0.062 OA 
HETATM   19  C   UNL     1      -8.207  17.056  68.897  1.00  0.00    -0.204 C  
HETATM   20  N   UNL     1      -9.608  17.263  68.550  1.00  0.00    -0.281 N  
BRANCH  20  21
HETATM   21  C   UNL     1     -10.008  18.693  68.438  1.00  0.00    -0.387 C  
BRANCH  21  22
HETATM   22  C   UNL     1      -9.201  19.461  67.359  1.00  0.00    -0.305 C  
HETATM   23  H   UNL     1      -9.464  20.063  65.486  1.00  0.00     0.000 HD 
HETATM   24  O   UNL     1      -9.959  19.592  66.147  1.00  0.00    -0.415 OA 
BRANCH  22  25
HETATM   25  C   UNL     1      -8.790  20.870  67.813  1.00  0.00     0.153 C  
HETATM   26  H   UNL     1      -8.559  21.847  69.514  1.00  0.00     0.000 HD 
HETATM   27  O   UNL     1      -8.813  20.976  69.233  1.00  0.00     1.893 OA 
ENDBRANCH  22  25
ENDBRANCH  21  22
ENDBRANCH  20  21
ENDBRANCH  10  17
BRANCH  16  28
HETATM   28  C   UNL     1      -9.498  12.148  65.531  1.00  0.00    -0.065 C  
HETATM   29  H   UNL     1      -9.181  10.273  66.420  1.00  0.00     0.000 HD 
HETATM   30  O   UNL     1      -9.585  12.779  64.491  1.00  0.00     0.059 OA 
HETATM   31  N   UNL     1      -9.203  10.785  65.538  1.00  0.00    -0.194 N  
BRANCH  31  32
HETATM   32  C   UNL     1      -8.927  10.094  64.286  1.00  0.00    -0.237 C  
BRANCH  32  33
HETATM   33  C   UNL     1      -7.467   9.645  64.173  1.00  0.00    -0.128 C  
HETATM   34  O   UNL     1      -7.087   9.641  62.789  1.00  0.00    -0.103 OA 
HETATM   35  H   UNL     1      -6.181   9.362  62.719  1.00  0.00     0.000 HD 
BRANCH  33  36
HETATM   36  C   UNL     1      -6.540  10.562  64.988  1.00  0.00    -0.014 C  
HETATM   37  O   UNL     1      -5.376   9.871  65.437  1.00  0.00    -0.046 OA 
HETATM   38  H   UNL     1      -4.803  10.438  65.940  1.00  0.00     0.000 HD 
ENDBRANCH  33  36
ENDBRANCH  32  33
ENDBRANCH  31  32
ENDBRANCH  16  28
ENDBRANCH   6   8
ENDBRANCH   3   4
ENDBRANCH   2   3
TORSDOF 11
ENDMDL
MODEL      186
REMARK 921   NORMALIZED FREE ENERGY PREDICTED BY IDOCK:   12.70 KCAL/MOL
REMARK 922        TOTAL FREE ENERGY PREDICTED BY IDOCK:   19.75 KCAL/MOL
REMARK 923 INTER-LIGAND FREE ENERGY PREDICTED BY IDOCK:   15.89 KCAL/MOL
REMARK 924 INTRA-LIGAND FREE ENERGY PREDICTED BY IDOCK:    3.86 KCAL/MOL
REMARK 927      BINDING AFFINITY PREDICTED BY RF-SCORE:    0.00 PKD
ROOT
HETATM    1  C   UNL     1      -6.979  13.343  62.461  1.00  0.00    12.310 C  
HETATM    2  O   UNL     1      -6.423  12.032  62.402  1.00  0.00     1.008 OA 
ENDROOT
BRANCH   2   3
HETATM    3  C   UNL     1      -7.370  11.022  62.724  1.00  0.00     0.264 C  
BRANCH   3   4
HETATM    4  C   UNL     1      -7.576  10.825  64.236  1.00  0.00     0.329 C  
HETATM    5  O   UNL     1      -6.628  10.654  64.998  1.00  0.00    -0.060 OA 
HETATM    6  N   UNL     1      -8.911  10.886  64.652  1.00  0.00    -0.333 N  
HETATM    7  H   UNL     1      -9.673  10.998  63.982  1.00  0.00     0.000 HD 
BRANCH   6   8
HETATM    8  C   UNL     1      -9.160  10.785  66.053  1.00  0.00    -0.185 A  
HETATM    9  C   UNL     1      -9.006   9.551  66.733  1.00  0.00    -0.138 A  
HETATM   10  C   UNL     1      -8.965   9.494  68.157  1.00  0.00    -0.123 A  
HETATM   11  I   UNL     1      -8.804   7.804  65.492  1.00  0.00     0.222 I  
HETATM   12  C   UNL     1      -9.505  11.943  66.786  1.00  0.00    -0.201 A  
HETATM   13  C   UNL     1      -9.088  10.727  68.851  1.00  0.00    -0.164 A  
HETATM   14  I   UNL     1      -8.202  10.958  70.809  1.00  0.00     5.394 I  
HETATM   15  I   UNL     1     -10.170  13.665  65.662  1.00  0.00    -0.254 I  
HETATM   16  C   UNL     1      -9.515  11.914  68.193  1.00  0.00    -0.195 A  
BRANCH  10  17
HETATM   17  C   UNL     1      -8.654   8.186  68.842  1.00  0.00    -0.130 C  
HETATM   18  O   UNL     1      -8.016   7.357  68.189  1.00  0.00    -0.119 OA 
HETATM   19  C   UNL     1      -9.740   8.765  71.093  1.00  0.00    -0.247 C  
HETATM   20  N   UNL     1      -9.106   7.866  70.137  1.00  0.00    -0.152 N  
BRANCH  20  21
HETATM   21  C   UNL     1      -8.933   6.471  70.627  1.00  0.00    -0.148 C  
BRANCH  21  22
HETATM   22  C   UNL     1     -10.253   5.656  70.603  1.00  0.00    -0.227 C  
HETATM   23  H   UNL     1     -10.803   3.766  70.351  1.00  0.00     0.000 HD 
HETATM   24  O   UNL     1      -9.994   4.264  70.365  1.00  0.00    -0.211 OA 
BRANCH  22  25
HETATM   25  C   UNL     1     -11.049   5.772  71.912  1.00  0.00    -0.248 C  
HETATM   26  H   UNL     1     -11.195   7.032  73.425  1.00  0.00     0.000 HD 
HETATM   27  O   UNL     1     -10.703   6.960  72.616  1.00  0.00    -0.219 OA 
ENDBRANCH  22  25
ENDBRANCH  21  22
ENDBRANCH  20  21
ENDBRANCH  10  17
BRANCH  16  28
HETATM   28  C   UNL     1     -10.005  13.099  68.964  1.00  0.00     0.223 C  
HETATM   29  H   UNL     1     -11.933  12.280  69.102  1.00  0.00     0.000 HD 
HETATM   30  O   UNL     1      -9.280  14.043  69.229  1.00  0.00     0.183 OA 
HETATM   31  N   UNL     1     -11.360  13.101  69.295  1.00  0.00    -0.268 N  
BRANCH  31  32
HETATM   32  C   UNL     1     -11.955  14.277  69.917  1.00  0.00    -0.339 C  
BRANCH  32  33
HETATM   33  C   UNL     1     -12.124  14.117  71.431  1.00  0.00    -0.227 C  
HETATM   34  O   UNL     1     -13.035  15.119  71.906  1.00  0.00    -0.316 OA 
HETATM   35  H   UNL     1     -13.139  15.020  72.846  1.00  0.00     0.000 HD 
BRANCH  33  36
HETATM   36  C   UNL     1     -12.631  12.709  71.788  1.00  0.00    -0.016 C  
HETATM   37  O   UNL     1     -14.026  12.571  71.527  1.00  0.00     0.471 OA 
HETATM   38  H   UNL     1     -14.340  11.701  71.747  1.00  0.00     0.000 HD 
ENDBRANCH  33  36
ENDBRANCH  32  33
ENDBRANCH  31  32
ENDBRANCH  16  28
ENDBRANCH   6   8
ENDBRANCH   3   4
ENDBRANCH   2   3
TORSDOF 11
ENDMDL
MODEL      187
REMARK 921   NORMALIZED FREE ENERGY PREDICTED BY IDOCK:   12.77 KCAL/MOL
REMARK 922        TOTAL FREE ENERGY PREDICTED BY IDOCK:   19.86 KCAL/MOL
REMARK 923 INTER-LIGAND FREE ENERGY PREDICTED BY IDOCK:   12.56 KCAL/MOL
REMARK 924 INTRA-LIGAND FREE ENERGY PREDICTED BY IDOCK:    7.30 KCAL/MOL
REMARK 927      BINDING AFFINITY PREDICTED BY RF-SCORE:    0.00 PKD
ROOT
HETATM    1  C   UNL     1     -13.756   8.305  72.777  1.00  0.00     0.181 C  
HETATM    2  O   UNL     1     -14.056   9.405  71.922  1.00  0.00    -0.270 OA 
ENDROOT
BRANCH   2   3
HETATM    3  C   UNL     1     -13.393   9.318  70.668  1.00  0.00     0.337 C  
BRANCH   3   4
HETATM    4  C   UNL     1     -12.845  10.664  70.162  1.00  0.00    -0.084 C  
HETATM    5  O   UNL     1     -13.573  11.492  69.620  1.00  0.00     1.637 OA 
HETATM    6  N   UNL     1     -11.480  10.859  70.398  1.00  0.00    -0.407 N  
HETATM    7  H   UNL     1     -10.903  10.132  70.823  1.00  0.00     0.000 HD 
BRANCH   6   8
HETATM    8  C   UNL     1     -10.928  12.119  70.018  1.00  0.00     0.582 A  
HETATM    9  C   UNL     1      -9.803  12.193  69.160  1.00  0.00     0.361 A  
HETATM   10  C   UNL     1      -9.425  13.422  68.544  1.00  0.00    -0.121 A  
HETATM   11  I   UNL     1      -8.744  10.349  68.825  1.00  0.00    -0.162 I  
HETATM   12  C   UNL     1     -11.549  13.312  70.453  1.00  0.00     0.062 A  
HETATM   13  C   UNL     1     -10.226  14.557  68.836  1.00  0.00    -0.229 A  
HETATM   14  I   UNL     1     -10.370  16.173  67.407  1.00  0.00    -0.284 I  
HETATM   15  I   UNL     1     -12.943  13.161  72.098  1.00  0.00    -0.095 I  
HETATM   16  C   UNL     1     -11.174  14.549  69.896  1.00  0.00    -0.247 A  
BRANCH  10  17
HETATM   17  C   UNL     1      -8.312  13.433  67.524  1.00  0.00    -0.190 C  
HETATM   18  O   UNL     1      -8.169  12.411  66.850  1.00  0.00    -0.164 OA 
HETATM   19  C   UNL     1      -7.530  15.836  67.966  1.00  0.00    -0.127 C  
HETATM   20  N   UNL     1      -7.422  14.513  67.365  1.00  0.00    -0.190 N  
BRANCH  20  21
HETATM   21  C   UNL     1      -6.232  14.331  66.490  1.00  0.00     3.335 C  
BRANCH  21  22
HETATM   22  C   UNL     1      -5.196  15.476  66.637  1.00  0.00     1.606 C  
HETATM   23  H   UNL     1      -4.776  17.195  65.739  1.00  0.00     0.000 HD 
HETATM   24  O   UNL     1      -5.411  16.494  65.648  1.00  0.00     1.078 OA 
BRANCH  22  25
HETATM   25  C   UNL     1      -5.238  16.143  68.020  1.00  0.00    -0.116 C  
HETATM   26  H   UNL     1      -5.345  17.973  68.756  1.00  0.00     0.000 HD 
HETATM   27  O   UNL     1      -5.319  17.560  67.901  1.00  0.00    -0.126 OA 
ENDBRANCH  22  25
ENDBRANCH  21  22
ENDBRANCH  20  21
ENDBRANCH  10  17
BRANCH  16  28
HETATM   28  C   UNL     1     -11.737  15.821  70.448  1.00  0.00    -0.370 C  
HETATM   29  H   UNL     1      -9.970  16.862  70.002  1.00  0.00     0.000 HD 
HETATM   30  O   UNL     1     -12.856  15.876  70.932  1.00  0.00    -0.439 OA 
HETATM   31  N   UNL     1     -10.883  16.923  70.452  1.00  0.00     0.099 N  
BRANCH  31  32
HETATM   32  C   UNL     1     -11.295  18.162  71.100  1.00  0.00     3.947 C  
BRANCH  32  33
HETATM   33  C   UNL     1     -10.551  19.384  70.554  1.00  0.00     2.014 C  
HETATM   34  O   UNL     1      -9.491  19.725  71.460  1.00  0.00     1.580 OA 
HETATM   35  H   UNL     1      -9.029  20.484  71.122  1.00  0.00     0.000 HD 
BRANCH  33  36
HETATM   36  C   UNL     1      -9.995  19.113  69.146  1.00  0.00    -0.274 C  
HETATM   37  O   UNL     1     -10.736  19.808  68.145  1.00  0.00    -0.362 OA 
HETATM   38  H   UNL     1     -10.393  19.641  67.274  1.00  0.00     0.000 HD 
ENDBRANCH  33  36
ENDBRANCH  32  33
ENDBRANCH  31  32
ENDBRANCH  16  28
ENDBRANCH   6   8
ENDBRANCH   3   4
ENDBRANCH   2   3
TORSDOF 11
ENDMDL
MODEL      188
REMARK 921   NORMALIZED FREE ENERGY PREDICTED BY IDOCK:   13.20 KCAL/MOL
REMARK 922        TOTAL FREE ENERGY PREDICTED BY IDOCK:   20.57 KCAL/MOL
REMARK 923 INTER-LIGAND FREE ENERGY PREDICTED BY IDOCK:   19.42 KCAL/MOL
REMARK 924 INTRA-LIGAND FREE ENERGY PREDICTED BY IDOCK:    1.14 KCAL/MOL
REMARK 927      BINDING AFFINITY PREDICTED BY RF-SCORE:    0.00 PKD
ROOT
HETATM    1  C   UNL     1      -6.967  13.472  62.331  1.00  0.00    12.720 C  
HETATM    2  O   UNL     1      -6.511  12.122  62.350  1.00  0.00     1.169 OA 
ENDROOT
BRANCH   2   3
HETATM    3  C   UNL     1      -7.537  11.204  62.704  1.00  0.00     0.238 C  
BRANCH   3   4
HETATM    4  C   UNL     1      -7.756  11.076  64.221  1.00  0.00     0.630 C  
HETATM    5  O   UNL     1      -6.834  10.799  64.985  1.00  0.00     0.032 OA 
HETATM    6  N   UNL     1      -9.068  11.326  64.640  1.00  0.00    -0.389 N  
HETATM    7  H   UNL     1      -9.813  11.522  63.971  1.00  0.00     0.000 HD 
BRANCH   6   8
HETATM    8  C   UNL     1      -9.319  11.296  66.045  1.00  0.00    -0.214 A  
HETATM    9  C   UNL     1      -9.306  10.072  66.760  1.00  0.00    -0.160 A  
HETATM   10  C   UNL     1      -9.263  10.053  68.185  1.00  0.00    -0.130 A  
HETATM   11  I   UNL     1      -9.317   8.278  65.571  1.00  0.00     0.624 I  
HETATM   12  C   UNL     1      -9.522  12.507  66.744  1.00  0.00    -0.231 A  
HETATM   13  C   UNL     1      -9.238  11.311  68.843  1.00  0.00    -0.064 A  
HETATM   14  I   UNL     1      -8.319  11.494  70.790  1.00  0.00     8.427 I  
HETATM   15  I   UNL     1      -9.989  14.261  65.571  1.00  0.00    -0.123 I  
HETATM   16  C   UNL     1      -9.527  12.520  68.151  1.00  0.00    -0.214 A  
BRANCH  10  17
HETATM   17  C   UNL     1      -9.103   8.737  68.908  1.00  0.00    -0.141 C  
HETATM   18  O   UNL     1      -9.908   8.499  69.810  1.00  0.00    -0.181 OA 
HETATM   19  C   UNL     1      -7.118   7.882  67.525  1.00  0.00    -0.083 C  
HETATM   20  N   UNL     1      -8.059   7.831  68.636  1.00  0.00    -0.125 N  
BRANCH  20  21
HETATM   21  C   UNL     1      -7.865   6.674  69.553  1.00  0.00    -0.106 C  
BRANCH  21  22
HETATM   22  C   UNL     1      -6.656   6.859  70.507  1.00  0.00    -0.052 C  
HETATM   23  H   UNL     1      -5.699   8.360  71.385  1.00  0.00     0.000 HD 
HETATM   24  O   UNL     1      -6.440   8.247  70.801  1.00  0.00    -0.036 OA 
BRANCH  22  25
HETATM   25  C   UNL     1      -6.830   6.116  71.840  1.00  0.00    -0.065 C  
HETATM   26  H   UNL     1      -5.855   4.760  72.895  1.00  0.00     0.000 HD 
HETATM   27  O   UNL     1      -5.747   5.220  72.071  1.00  0.00    -0.015 OA 
ENDBRANCH  22  25
ENDBRANCH  21  22
ENDBRANCH  20  21
ENDBRANCH  10  17
BRANCH  16  28
HETATM   28  C   UNL     1      -9.871  13.776  68.887  1.00  0.00     0.001 C  
HETATM   29  H   UNL     1     -11.880  13.191  69.058  1.00  0.00     0.000 HD 
HETATM   30  O   UNL     1      -9.040  14.638  69.120  1.00  0.00    -0.138 OA 
HETATM   31  N   UNL     1     -11.214  13.945  69.224  1.00  0.00    -0.258 N  
BRANCH  31  32
HETATM   32  C   UNL     1     -11.665  15.199  69.813  1.00  0.00    -0.319 C  
BRANCH  32  33
HETATM   33  C   UNL     1     -12.276  15.008  71.205  1.00  0.00    -0.320 C  
HETATM   34  O   UNL     1     -12.780  16.269  71.668  1.00  0.00    -0.501 OA 
HETATM   35  H   UNL     1     -13.159  16.150  72.532  1.00  0.00     0.000 HD 
BRANCH  33  36
HETATM   36  C   UNL     1     -13.393  13.952  71.180  1.00  0.00    -0.186 C  
HETATM   37  O   UNL     1     -12.969  12.721  71.764  1.00  0.00    -0.367 OA 
HETATM   38  H   UNL     1     -13.660  12.069  71.748  1.00  0.00     0.000 HD 
ENDBRANCH  33  36
ENDBRANCH  32  33
ENDBRANCH  31  32
ENDBRANCH  16  28
ENDBRANCH   6   8
ENDBRANCH   3   4
ENDBRANCH   2   3
TORSDOF 11
ENDMDL
MODEL      189
REMARK 921   NORMALIZED FREE ENERGY PREDICTED BY IDOCK:   14.63 KCAL/MOL
REMARK 922        TOTAL FREE ENERGY PREDICTED BY IDOCK:   22.91 KCAL/MOL
REMARK 923 INTER-LIGAND FREE ENERGY PREDICTED BY IDOCK:   18.93 KCAL/MOL
REMARK 924 INTRA-LIGAND FREE ENERGY PREDICTED BY IDOCK:    3.98 KCAL/MOL
REMARK 927      BINDING AFFINITY PREDICTED BY RF-SCORE:    0.00 PKD
ROOT
HETATM    1  C   UNL     1     -10.667  14.629  62.435  1.00  0.00    10.923 C  
HETATM    2  O   UNL     1     -10.674  15.640  63.439  1.00  0.00     1.957 OA 
ENDROOT
BRANCH   2   3
HETATM    3  C   UNL     1      -9.508  15.609  64.252  1.00  0.00     4.654 C  
BRANCH   3   4
HETATM    4  C   UNL     1      -9.478  14.435  65.246  1.00  0.00     0.364 C  
HETATM    5  O   UNL     1      -8.738  14.440  66.226  1.00  0.00    -0.019 OA 
HETATM    6  N   UNL     1     -10.372  13.400  64.947  1.00  0.00    -0.447 N  
HETATM    7  H   UNL     1     -10.947  13.419  64.105  1.00  0.00     0.000 HD 
BRANCH   6   8
HETATM    8  C   UNL     1     -10.444  12.316  65.872  1.00  0.00    -0.256 A  
HETATM    9  C   UNL     1      -9.921  11.041  65.542  1.00  0.00    -0.256 A  
HETATM   10  C   UNL     1      -9.721  10.044  66.543  1.00  0.00    -0.254 A  
HETATM   11  I   UNL     1      -9.421  10.728  63.472  1.00  0.00    -0.406 I  
HETATM   12  C   UNL     1     -10.987  12.531  67.159  1.00  0.00    -0.263 A  
HETATM   13  C   UNL     1     -10.074  10.393  67.873  1.00  0.00    -0.171 A  
HETATM   14  I   UNL     1      -9.076   9.444  69.539  1.00  0.00    -0.221 I  
HETATM   15  I   UNL     1     -12.169  14.318  67.448  1.00  0.00     0.340 I  
HETATM   16  C   UNL     1     -10.845  11.553  68.161  1.00  0.00    -0.259 A  
BRANCH  10  17
HETATM   17  C   UNL     1      -9.027   8.754  66.181  1.00  0.00    -0.185 C  
HETATM   18  O   UNL     1      -8.011   8.846  65.489  1.00  0.00    -0.100 OA 
HETATM   19  C   UNL     1     -10.611   7.197  67.465  1.00  0.00    -0.278 C  
HETATM   20  N   UNL     1      -9.521   7.485  66.542  1.00  0.00    -0.187 N  
BRANCH  20  21
HETATM   21  C   UNL     1      -8.884   6.277  65.948  1.00  0.00    -0.139 C  
BRANCH  21  22
HETATM   22  C   UNL     1      -9.526   5.862  64.598  1.00  0.00     0.989 C  
HETATM   23  H   UNL     1      -8.913   5.364  62.777  1.00  0.00     0.000 HD 
HETATM   24  O   UNL     1      -8.519   5.618  63.604  1.00  0.00    -0.090 OA 
BRANCH  22  25
HETATM   25  C   UNL     1     -10.392   4.599  64.714  1.00  0.00     0.156 C  
HETATM   26  H   UNL     1     -11.914   3.779  63.758  1.00  0.00     0.000 HD 
HETATM   27  O   UNL     1     -11.378   4.560  63.687  1.00  0.00     0.431 OA 
ENDBRANCH  22  25
ENDBRANCH  21  22
ENDBRANCH  20  21
ENDBRANCH  10  17
BRANCH  16  28
HETATM   28  C   UNL     1     -11.532  11.725  69.479  1.00  0.00    -0.295 C  
HETATM   29  H   UNL     1     -10.803  13.685  69.664  1.00  0.00     0.000 HD 
HETATM   30  O   UNL     1     -12.188  10.832  69.988  1.00  0.00    -0.312 OA 
HETATM   31  N   UNL     1     -11.317  12.938  70.132  1.00  0.00     0.097 N  
BRANCH  31  32
HETATM   32  C   UNL     1     -11.827  13.139  71.482  1.00  0.00     1.179 C  
BRANCH  32  33
HETATM   33  C   UNL     1     -13.354  13.036  71.553  1.00  0.00    -0.199 C  
HETATM   34  O   UNL     1     -13.773  11.855  70.854  1.00  0.00     0.921 OA 
HETATM   35  H   UNL     1     -14.720  11.790  70.898  1.00  0.00     0.000 HD 
BRANCH  33  36
HETATM   36  C   UNL     1     -13.840  13.004  73.012  1.00  0.00     1.148 C  
HETATM   37  O   UNL     1     -13.143  13.949  73.821  1.00  0.00     0.110 OA 
HETATM   38  H   UNL     1     -13.443  13.929  74.722  1.00  0.00     0.000 HD 
ENDBRANCH  33  36
ENDBRANCH  32  33
ENDBRANCH  31  32
ENDBRANCH  16  28
ENDBRANCH   6   8
ENDBRANCH   3   4
ENDBRANCH   2   3
TORSDOF 11
ENDMDL
MODEL      190
REMARK 921   NORMALIZED FREE ENERGY PREDICTED BY IDOCK:   15.67 KCAL/MOL
REMARK 922        TOTAL FREE ENERGY PREDICTED BY IDOCK:   24.63 KCAL/MOL
REMARK 923 INTER-LIGAND FREE ENERGY PREDICTED BY IDOCK:   16.41 KCAL/MOL
REMARK 924 INTRA-LIGAND FREE ENERGY PREDICTED BY IDOCK:    8.21 KCAL/MOL
REMARK 927      BINDING AFFINITY PREDICTED BY RF-SCORE:    0.00 PKD
ROOT
HETATM    1  C   UNL     1      -7.467   7.523  72.793  1.00  0.00    -0.080 C  
HETATM    2  O   UNL     1      -8.883   7.366  72.804  1.00  0.00    -0.123 OA 
ENDROOT
BRANCH   2   3
HETATM    3  C   UNL     1      -9.567   8.590  73.040  1.00  0.00    -0.025 C  
BRANCH   3   4
HETATM    4  C   UNL     1      -9.455   9.595  71.881  1.00  0.00     1.615 C  
HETATM    5  O   UNL     1      -8.407  10.190  71.643  1.00  0.00     1.689 OA 
HETATM    6  N   UNL     1     -10.624   9.742  71.126  1.00  0.00    -0.279 N  
HETATM    7  H   UNL     1     -11.484   9.253  71.376  1.00  0.00     0.000 HD 
BRANCH   6   8
HETATM    8  C   UNL     1     -10.562  10.604  69.992  1.00  0.00    -0.094 A  
HETATM    9  C   UNL     1     -10.160  10.114  68.724  1.00  0.00    -0.187 A  
HETATM   10  C   UNL     1     -10.370  10.876  67.538  1.00  0.00    -0.237 A  
HETATM   11  I   UNL     1      -9.261   8.158  68.707  1.00  0.00    -0.142 I  
HETATM   12  C   UNL     1     -10.966  11.953  70.117  1.00  0.00     0.678 A  
HETATM   13  C   UNL     1     -10.994  12.142  67.692  1.00  0.00    -0.243 A  
HETATM   14  I   UNL     1     -12.144  12.984  66.068  1.00  0.00    -0.281 I  
HETATM   15  I   UNL     1     -11.120  12.759  72.117  1.00  0.00    10.303 I  
HETATM   16  C   UNL     1     -11.145  12.748  68.970  1.00  0.00    -0.285 A  
BRANCH  10  17
HETATM   17  C   UNL     1     -10.064  10.262  66.194  1.00  0.00    -0.242 C  
HETATM   18  O   UNL     1      -8.998   9.651  66.094  1.00  0.00    -0.144 OA 
HETATM   19  C   UNL     1     -12.245  10.970  65.042  1.00  0.00     2.172 C  
HETATM   20  N   UNL     1     -10.898  10.411  65.069  1.00  0.00     0.206 N  
BRANCH  20  21
HETATM   21  C   UNL     1     -10.395   9.956  63.744  1.00  0.00     1.472 C  
BRANCH  21  22
HETATM   22  C   UNL     1     -10.252  11.116  62.724  1.00  0.00     0.002 C  
HETATM   23  H   UNL     1     -11.278  12.728  62.185  1.00  0.00     0.000 HD 
HETATM   24  O   UNL     1     -11.366  12.017  62.810  1.00  0.00     0.147 OA 
BRANCH  22  25
HETATM   25  C   UNL     1      -8.967  11.932  62.926  1.00  0.00     0.645 C  
HETATM   26  H   UNL     1      -7.960  12.723  64.430  1.00  0.00     0.000 HD 
HETATM   27  O   UNL     1      -8.755  12.218  64.305  1.00  0.00     1.139 OA 
ENDBRANCH  22  25
ENDBRANCH  21  22
ENDBRANCH  20  21
ENDBRANCH  10  17
BRANCH  16  28
HETATM   28  C   UNL     1     -11.445  14.208  69.110  1.00  0.00    -0.296 C  
HETATM   29  H   UNL     1      -9.596  14.554  70.041  1.00  0.00     0.000 HD 
HETATM   30  O   UNL     1     -12.497  14.691  68.728  1.00  0.00    -0.071 OA 
HETATM   31  N   UNL     1     -10.486  14.973  69.773  1.00  0.00    -0.219 N  
BRANCH  31  32
HETATM   32  C   UNL     1     -10.756  16.371  70.081  1.00  0.00    -0.207 C  
BRANCH  32  33
HETATM   33  C   UNL     1     -10.171  17.326  69.036  1.00  0.00    -0.318 C  
HETATM   34  O   UNL     1      -8.972  17.914  69.563  1.00  0.00     0.350 OA 
HETATM   35  H   UNL     1      -8.609  18.506  68.915  1.00  0.00     0.000 HD 
BRANCH  33  36
HETATM   36  C   UNL     1      -9.882  16.594  67.715  1.00  0.00    -0.252 C  
HETATM   37  O   UNL     1     -11.042  15.933  67.214  1.00  0.00    -0.281 OA 
HETATM   38  H   UNL     1     -10.863  15.480  66.398  1.00  0.00     0.000 HD 
ENDBRANCH  33  36
ENDBRANCH  32  33
ENDBRANCH  31  32
ENDBRANCH  16  28
ENDBRANCH   6   8
ENDBRANCH   3   4
ENDBRANCH   2   3
TORSDOF 11
ENDMDL
MODEL      191
REMARK 921   NORMALIZED FREE ENERGY PREDICTED BY IDOCK:   16.31 KCAL/MOL
REMARK 922        TOTAL FREE ENERGY PREDICTED BY IDOCK:   25.67 KCAL/MOL
REMARK 923 INTER-LIGAND FREE ENERGY PREDICTED BY IDOCK:    1.16 KCAL/MOL
REMARK 924 INTRA-LIGAND FREE ENERGY PREDICTED BY IDOCK:   24.51 KCAL/MOL
REMARK 927      BINDING AFFINITY PREDICTED BY RF-SCORE:    0.00 PKD
ROOT
HETATM    1  C   UNL     1      -6.628   7.676  68.836  1.00  0.00    -0.049 C  
HETATM    2  O   UNL     1      -6.390   7.888  67.447  1.00  0.00    -0.052 OA 
ENDROOT
BRANCH   2   3
HETATM    3  C   UNL     1      -5.712   9.110  67.190  1.00  0.00    -0.045 C  
BRANCH   3   4
HETATM    4  C   UNL     1      -6.633  10.235  66.687  1.00  0.00    -0.078 C  
HETATM    5  O   UNL     1      -7.375  10.077  65.720  1.00  0.00    -0.105 OA 
HETATM    6  N   UNL     1      -6.566  11.417  67.434  1.00  0.00    -0.081 N  
HETATM    7  H   UNL     1      -5.912  11.519  68.211  1.00  0.00     0.000 HD 
BRANCH   6   8
HETATM    8  C   UNL     1      -7.451  12.472  67.063  1.00  0.00    -0.003 A  
HETATM    9  C   UNL     1      -8.622  12.209  66.309  1.00  0.00     0.084 A  
HETATM   10  C   UNL     1      -9.652  13.187  66.183  1.00  0.00    -0.209 A  
HETATM   11  I   UNL     1      -8.756  10.256  65.416  1.00  0.00    -0.229 I  
HETATM   12  C   UNL     1      -7.191  13.789  67.504  1.00  0.00    -0.158 A  
HETATM   13  C   UNL     1      -9.443  14.427  66.842  1.00  0.00    -0.258 A  
HETATM   14  I   UNL     1     -11.135  15.604  67.493  1.00  0.00    -0.106 I  
HETATM   15  I   UNL     1      -5.201  14.215  68.233  1.00  0.00    -0.092 I  
HETATM   16  C   UNL     1      -8.169  14.791  67.359  1.00  0.00    -0.216 A  
BRANCH  10  17
HETATM   17  C   UNL     1     -10.946  12.822  65.498  1.00  0.00    -0.280 C  
HETATM   18  O   UNL     1     -11.655  13.755  65.117  1.00  0.00    -0.315 OA 
HETATM   19  C   UNL     1     -10.624  10.278  65.596  1.00  0.00     0.026 C  
HETATM   20  N   UNL     1     -11.387  11.493  65.339  1.00  0.00    -0.150 N  
BRANCH  20  21
HETATM   21  C   UNL     1     -12.774  11.256  64.852  1.00  0.00     2.509 C  
BRANCH  21  22
HETATM   22  C   UNL     1     -12.994  11.753  63.400  1.00  0.00    -0.037 C  
HETATM   23  H   UNL     1     -14.176  13.038  62.455  1.00  0.00     0.000 HD 
HETATM   24  O   UNL     1     -14.041  12.734  63.345  1.00  0.00     2.828 OA 
BRANCH  22  25
HETATM   25  C   UNL     1     -11.732  12.376  62.785  1.00  0.00     0.680 C  
HETATM   26  H   UNL     1     -10.313  13.638  63.327  1.00  0.00     0.000 HD 
HETATM   27  O   UNL     1     -11.093  13.253  63.707  1.00  0.00    -0.320 OA 
ENDBRANCH  22  25
ENDBRANCH  21  22
ENDBRANCH  20  21
ENDBRANCH  10  17
BRANCH  16  28
HETATM   28  C   UNL     1      -7.844  16.210  67.706  1.00  0.00    -0.143 C  
HETATM   29  H   UNL     1      -9.877  16.671  67.954  1.00  0.00     0.000 HD 
HETATM   30  O   UNL     1      -6.698  16.626  67.725  1.00  0.00    -0.127 OA 
HETATM   31  N   UNL     1      -8.932  17.053  67.931  1.00  0.00    -0.224 N  
BRANCH  31  32
HETATM   32  C   UNL     1      -8.717  18.481  68.133  1.00  0.00    -0.310 C  
BRANCH  32  33
HETATM   33  C   UNL     1      -9.209  19.321  66.951  1.00  0.00    -0.311 C  
HETATM   34  O   UNL     1      -9.852  18.457  66.002  1.00  0.00    -0.489 OA 
HETATM   35  H   UNL     1     -10.157  18.978  65.268  1.00  0.00     0.000 HD 
BRANCH  33  36
HETATM   36  C   UNL     1     -10.172  20.426  67.418  1.00  0.00    -0.287 C  
HETATM   37  O   UNL     1     -10.821  20.078  68.639  1.00  0.00    -0.292 OA 
HETATM   38  H   UNL     1     -11.415  20.761  68.928  1.00  0.00     0.000 HD 
ENDBRANCH  33  36
ENDBRANCH  32  33
ENDBRANCH  31  32
ENDBRANCH  16  28
ENDBRANCH   6   8
ENDBRANCH   3   4
ENDBRANCH   2   3
TORSDOF 11
ENDMDL
MODEL      192
REMARK 921   NORMALIZED FREE ENERGY PREDICTED BY IDOCK:   17.69 KCAL/MOL
REMARK 922        TOTAL FREE ENERGY PREDICTED BY IDOCK:   27.94 KCAL/MOL
REMARK 923 INTER-LIGAND FREE ENERGY PREDICTED BY IDOCK:   18.71 KCAL/MOL
REMARK 924 INTRA-LIGAND FREE ENERGY PREDICTED BY IDOCK:    9.24 KCAL/MOL
REMARK 927      BINDING AFFINITY PREDICTED BY RF-SCORE:    0.00 PKD
ROOT
HETATM    1  C   UNL     1     -13.668  19.193  66.519  1.00  0.00    12.186 C  
HETATM    2  O   UNL     1     -12.931  18.112  67.085  1.00  0.00     5.886 OA 
ENDROOT
BRANCH   2   3
HETATM    3  C   UNL     1     -12.095  17.465  66.136  1.00  0.00     3.915 C  
BRANCH   3   4
HETATM    4  C   UNL     1     -10.859  16.791  66.756  1.00  0.00    -0.009 C  
HETATM    5  O   UNL     1     -10.063  17.419  67.450  1.00  0.00    -0.299 OA 
HETATM    6  N   UNL     1     -10.746  15.423  66.484  1.00  0.00    -0.307 N  
HETATM    7  H   UNL     1     -11.412  14.945  65.876  1.00  0.00     0.000 HD 
BRANCH   6   8
HETATM    8  C   UNL     1      -9.661  14.726  67.093  1.00  0.00    -0.227 A  
HETATM    9  C   UNL     1      -9.668  13.312  67.193  1.00  0.00    -0.236 A  
HETATM   10  C   UNL     1      -8.483  12.591  67.525  1.00  0.00    -0.177 A  
HETATM   11  I   UNL     1     -11.544  12.341  66.779  1.00  0.00    -0.266 I  
HETATM   12  C   UNL     1      -8.534  15.448  67.547  1.00  0.00    -0.173 A  
HETATM   13  C   UNL     1      -7.309  13.357  67.751  1.00  0.00    -0.157 A  
HETATM   14  I   UNL     1      -5.365  12.486  67.389  1.00  0.00     0.111 I  
HETATM   15  I   UNL     1      -8.762  17.583  67.797  1.00  0.00    -0.246 I  
HETATM   16  C   UNL     1      -7.361  14.768  67.922  1.00  0.00    -0.162 A  
BRANCH  10  17
HETATM   17  C   UNL     1      -8.492  11.082  67.479  1.00  0.00    -0.127 C  
HETATM   18  O   UNL     1      -8.736  10.497  68.535  1.00  0.00    -0.126 OA 
HETATM   19  C   UNL     1      -8.009  10.861  64.968  1.00  0.00     0.181 C  
HETATM   20  N   UNL     1      -8.179  10.344  66.320  1.00  0.00    -0.138 N  
BRANCH  20  21
HETATM   21  C   UNL     1      -8.001   8.871  66.442  1.00  0.00    -0.103 C  
BRANCH  21  22
HETATM   22  C   UNL     1      -8.760   8.081  65.345  1.00  0.00    -0.068 C  
HETATM   23  H   UNL     1     -10.201   8.425  64.023  1.00  0.00     0.000 HD 
HETATM   24  O   UNL     1      -9.736   8.910  64.695  1.00  0.00     0.559 OA 
BRANCH  22  25
HETATM   25  C   UNL     1      -7.827   7.515  64.264  1.00  0.00    -0.133 C  
HETATM   26  H   UNL     1      -5.908   7.090  64.067  1.00  0.00     0.000 HD 
HETATM   27  O   UNL     1      -6.485   7.440  64.735  1.00  0.00    -0.037 OA 
ENDBRANCH  22  25
ENDBRANCH  21  22
ENDBRANCH  20  21
ENDBRANCH  10  17
BRANCH  16  28
HETATM   28  C   UNL     1      -6.218  15.523  68.525  1.00  0.00    -0.098 C  
HETATM   29  H   UNL     1      -7.370  16.034  70.203  1.00  0.00     0.000 HD 
HETATM   30  O   UNL     1      -5.141  15.624  67.962  1.00  0.00    -0.110 OA 
HETATM   31  N   UNL     1      -6.476  16.172  69.732  1.00  0.00    -0.190 N  
BRANCH  31  32
HETATM   32  C   UNL     1      -5.469  17.047  70.318  1.00  0.00    -0.225 C  
BRANCH  32  33
HETATM   33  C   UNL     1      -5.987  18.471  70.541  1.00  0.00     0.036 C  
HETATM   34  O   UNL     1      -5.747  18.844  71.906  1.00  0.00    -0.138 OA 
HETATM   35  H   UNL     1      -6.069  19.728  72.045  1.00  0.00     0.000 HD 
BRANCH  33  36
HETATM   36  C   UNL     1      -5.312  19.464  69.580  1.00  0.00    -0.201 C  
HETATM   37  O   UNL     1      -5.954  19.484  68.307  1.00  0.00    -0.212 OA 
HETATM   38  H   UNL     1      -5.537  20.098  67.713  1.00  0.00     0.000 HD 
ENDBRANCH  33  36
ENDBRANCH  32  33
ENDBRANCH  31  32
ENDBRANCH  16  28
ENDBRANCH   6   8
ENDBRANCH   3   4
ENDBRANCH   2   3
TORSDOF 11
ENDMDL
MODEL      193
REMARK 921   NORMALIZED FREE ENERGY PREDICTED BY IDOCK:   19.55 KCAL/MOL
REMARK 922        TOTAL FREE ENERGY PREDICTED BY IDOCK:   31.00 KCAL/MOL
REMARK 923 INTER-LIGAND FREE ENERGY PREDICTED BY IDOCK:   17.26 KCAL/MOL
REMARK 924 INTRA-LIGAND FREE ENERGY PREDICTED BY IDOCK:   13.74 KCAL/MOL
REMARK 927      BINDING AFFINITY PREDICTED BY RF-SCORE:    0.00 PKD
ROOT
HETATM    1  C   UNL     1      -5.146  14.149  70.462  1.00  0.00    -0.102 C  
HETATM    2  O   UNL     1      -5.554  14.957  71.563  1.00  0.00    -0.068 OA 
ENDROOT
BRANCH   2   3
HETATM    3  C   UNL     1      -6.960  15.165  71.596  1.00  0.00     2.153 C  
BRANCH   3   4
HETATM    4  C   UNL     1      -7.546  15.648  70.258  1.00  0.00     0.728 C  
HETATM    5  O   UNL     1      -7.689  16.843  70.011  1.00  0.00     0.854 OA 
HETATM    6  N   UNL     1      -7.867  14.622  69.362  1.00  0.00    -0.350 N  
HETATM    7  H   UNL     1      -7.763  13.639  69.618  1.00  0.00     0.000 HD 
BRANCH   6   8
HETATM    8  C   UNL     1      -8.346  15.008  68.075  1.00  0.00    -0.148 A  
HETATM    9  C   UNL     1      -8.908  14.054  67.190  1.00  0.00    -0.228 A  
HETATM   10  C   UNL     1      -9.647  14.461  66.040  1.00  0.00    -0.292 A  
HETATM   11  I   UNL     1      -8.609  11.987  67.710  1.00  0.00    -0.188 I  
HETATM   12  C   UNL     1      -8.317  16.371  67.699  1.00  0.00    -0.165 A  
HETATM   13  C   UNL     1      -9.785  15.858  65.829  1.00  0.00    -0.325 A  
HETATM   14  I   UNL     1     -11.497  16.624  64.755  1.00  0.00     1.408 I  
HETATM   15  I   UNL     1      -7.055  17.690  68.856  1.00  0.00    -0.141 I  
HETATM   16  C   UNL     1      -9.001  16.803  66.548  1.00  0.00    -0.304 A  
BRANCH  10  17
HETATM   17  C   UNL     1     -10.354  13.423  65.204  1.00  0.00    -0.336 C  
HETATM   18  O   UNL     1     -11.514  13.152  65.520  1.00  0.00    -0.304 OA 
HETATM   19  C   UNL     1      -8.433  13.018  63.551  1.00  0.00     6.324 C  
HETATM   20  N   UNL     1      -9.732  12.730  64.147  1.00  0.00     0.027 N  
BRANCH  20  21
HETATM   21  C   UNL     1     -10.445  11.575  63.535  1.00  0.00    -0.428 C  
BRANCH  21  22
HETATM   22  C   UNL     1     -11.611  11.053  64.415  1.00  0.00     0.678 C  
HETATM   23  H   UNL     1     -11.875  10.445  66.286  1.00  0.00     0.000 HD 
HETATM   24  O   UNL     1     -11.161  10.765  65.747  1.00  0.00     0.007 OA 
BRANCH  22  25
HETATM   25  C   UNL     1     -12.774  12.052  64.516  1.00  0.00    -0.021 C  
HETATM   26  H   UNL     1     -14.728  12.051  64.230  1.00  0.00     0.000 HD 
HETATM   27  O   UNL     1     -14.009  11.434  64.167  1.00  0.00     0.956 OA 
ENDBRANCH  22  25
ENDBRANCH  21  22
ENDBRANCH  20  21
ENDBRANCH  10  17
BRANCH  16  28
HETATM   28  C   UNL     1      -8.862  18.217  66.081  1.00  0.00    -0.091 C  
HETATM   29  H   UNL     1     -10.386  18.853  67.377  1.00  0.00     0.000 HD 
HETATM   30  O   UNL     1      -8.060  18.538  65.220  1.00  0.00     0.232 OA 
HETATM   31  N   UNL     1      -9.756  19.137  66.628  1.00  0.00    -0.327 N  
BRANCH  31  32
HETATM   32  C   UNL     1      -9.790  20.506  66.127  1.00  0.00    -0.037 C  
BRANCH  32  33
HETATM   33  C   UNL     1     -10.036  20.572  64.617  1.00  0.00     2.138 C  
HETATM   34  O   UNL     1     -11.260  21.283  64.377  1.00  0.00     1.408 OA 
HETATM   35  H   UNL     1     -11.413  21.324  63.439  1.00  0.00     0.000 HD 
BRANCH  33  36
HETATM   36  C   UNL     1      -8.862  21.251  63.892  1.00  0.00     3.417 C  
HETATM   37  O   UNL     1      -7.696  20.430  63.894  1.00  0.00     0.781 OA 
HETATM   38  H   UNL     1      -6.971  20.849  63.445  1.00  0.00     0.000 HD 
ENDBRANCH  33  36
ENDBRANCH  32  33
ENDBRANCH  31  32
ENDBRANCH  16  28
ENDBRANCH   6   8
ENDBRANCH   3   4
ENDBRANCH   2   3
TORSDOF 11
ENDMDL
MODEL      194
REMARK 921   NORMALIZED FREE ENERGY PREDICTED BY IDOCK:   19.76 KCAL/MOL
REMARK 922        TOTAL FREE ENERGY PREDICTED BY IDOCK:   31.34 KCAL/MOL
REMARK 923 INTER-LIGAND FREE ENERGY PREDICTED BY IDOCK:   22.44 KCAL/MOL
REMARK 924 INTRA-LIGAND FREE ENERGY PREDICTED BY IDOCK:    8.91 KCAL/MOL
REMARK 927      BINDING AFFINITY PREDICTED BY RF-SCORE:    0.00 PKD
ROOT
HETATM    1  C   UNL     1      -8.174   5.224  67.099  1.00  0.00    -0.108 C  
HETATM    2  O   UNL     1      -9.077   4.603  68.010  1.00  0.00    -0.110 OA 
ENDROOT
BRANCH   2   3
HETATM    3  C   UNL     1      -9.912   5.542  68.675  1.00  0.00    -0.166 C  
BRANCH   3   4
HETATM    4  C   UNL     1      -9.673   6.999  68.243  1.00  0.00    -0.135 C  
HETATM    5  O   UNL     1      -9.175   7.274  67.154  1.00  0.00    -0.128 OA 
HETATM    6  N   UNL     1     -10.094   7.956  69.174  1.00  0.00    -0.192 N  
HETATM    7  H   UNL     1     -10.474   7.685  70.081  1.00  0.00     0.000 HD 
BRANCH   6   8
HETATM    8  C   UNL     1      -9.968   9.327  68.799  1.00  0.00    -0.181 A  
HETATM    9  C   UNL     1     -10.623   9.830  67.648  1.00  0.00    -0.276 A  
HETATM   10  C   UNL     1     -10.748  11.233  67.425  1.00  0.00    -0.285 A  
HETATM   11  I   UNL     1     -11.437   8.361  66.302  1.00  0.00     7.232 I  
HETATM   12  C   UNL     1      -9.230  10.210  69.620  1.00  0.00    -0.183 A  
HETATM   13  C   UNL     1     -10.184  12.090  68.406  1.00  0.00    -0.209 A  
HETATM   14  I   UNL     1     -10.997  14.070  68.708  1.00  0.00    -0.303 I  
HETATM   15  I   UNL     1      -7.893   9.329  71.072  1.00  0.00     0.264 I  
HETATM   16  C   UNL     1      -9.297  11.599  69.404  1.00  0.00     0.680 A  
BRANCH  10  17
HETATM   17  C   UNL     1     -11.578  11.732  66.268  1.00  0.00    -0.149 C  
HETATM   18  O   UNL     1     -12.632  11.135  66.043  1.00  0.00     2.212 OA 
HETATM   19  C   UNL     1     -10.042  13.684  65.624  1.00  0.00    -0.284 C  
HETATM   20  N   UNL     1     -11.171  12.785  65.424  1.00  0.00    -0.285 N  
BRANCH  20  21
HETATM   21  C   UNL     1     -11.955  13.048  64.186  1.00  0.00    -0.427 C  
BRANCH  21  22
HETATM   22  C   UNL     1     -12.513  14.494  64.123  1.00  0.00    -0.180 C  
HETATM   23  H   UNL     1     -14.281  15.374  63.923  1.00  0.00     0.000 HD 
HETATM   24  O   UNL     1     -13.939  14.488  63.961  1.00  0.00     3.251 OA 
BRANCH  22  25
HETATM   25  C   UNL     1     -12.184  15.314  65.379  1.00  0.00     0.361 C  
HETATM   26  H   UNL     1     -12.326  17.191  65.977  1.00  0.00     0.000 HD 
HETATM   27  O   UNL     1     -12.529  16.684  65.200  1.00  0.00     1.952 OA 
ENDBRANCH  22  25
ENDBRANCH  21  22
ENDBRANCH  20  21
ENDBRANCH  10  17
BRANCH  16  28
HETATM   28  C   UNL     1      -8.417  12.521  70.188  1.00  0.00     4.001 C  
HETATM   29  H   UNL     1      -9.074  14.178  69.079  1.00  0.00     0.000 HD 
HETATM   30  O   UNL     1      -7.685  12.118  71.076  1.00  0.00     4.700 OA 
HETATM   31  N   UNL     1      -8.420  13.859  69.793  1.00  0.00     1.087 N  
BRANCH  31  32
HETATM   32  C   UNL     1      -7.489  14.800  70.403  1.00  0.00     0.633 C  
BRANCH  32  33
HETATM   33  C   UNL     1      -6.190  14.129  70.858  1.00  0.00    -0.071 C  
HETATM   34  O   UNL     1      -5.521  13.586  69.709  1.00  0.00    -0.087 OA 
HETATM   35  H   UNL     1      -4.715  13.169  69.991  1.00  0.00     0.000 HD 
BRANCH  33  36
HETATM   36  C   UNL     1      -5.279  15.124  71.596  1.00  0.00    -0.063 C  
HETATM   37  O   UNL     1      -5.290  14.903  73.005  1.00  0.00    -0.112 OA 
HETATM   38  H   UNL     1      -4.727  15.518  73.461  1.00  0.00     0.000 HD 
ENDBRANCH  33  36
ENDBRANCH  32  33
ENDBRANCH  31  32
ENDBRANCH  16  28
ENDBRANCH   6   8
ENDBRANCH   3   4
ENDBRANCH   2   3
TORSDOF 11
ENDMDL
MODEL      195
REMARK 921   NORMALIZED FREE ENERGY PREDICTED BY IDOCK:   21.15 KCAL/MOL
REMARK 922        TOTAL FREE ENERGY PREDICTED BY IDOCK:   33.62 KCAL/MOL
REMARK 923 INTER-LIGAND FREE ENERGY PREDICTED BY IDOCK:   18.94 KCAL/MOL
REMARK 924 INTRA-LIGAND FREE ENERGY PREDICTED BY IDOCK:   14.68 KCAL/MOL
REMARK 927      BINDING AFFINITY PREDICTED BY RF-SCORE:    0.00 PKD
ROOT
HETATM    1  C   UNL     1      -6.380  17.433  66.193  1.00  0.00    -0.177 C  
HETATM    2  O   UNL     1      -5.415  16.657  65.488  1.00  0.00     1.095 OA 
ENDROOT
BRANCH   2   3
HETATM    3  C   UNL     1      -5.792  15.292  65.371  1.00  0.00    10.228 C  
BRANCH   3   4
HETATM    4  C   UNL     1      -6.581  14.761  66.580  1.00  0.00     2.639 C  
HETATM    5  O   UNL     1      -6.790  15.458  67.569  1.00  0.00    -0.169 OA 
HETATM    6  N   UNL     1      -7.049  13.449  66.436  1.00  0.00     1.435 N  
HETATM    7  H   UNL     1      -6.827  12.892  65.610  1.00  0.00     0.000 HD 
BRANCH   6   8
HETATM    8  C   UNL     1      -7.852  12.926  67.493  1.00  0.00    -0.177 A  
HETATM    9  C   UNL     1      -8.614  13.785  68.323  1.00  0.00    -0.175 A  
HETATM   10  C   UNL     1      -9.632  13.271  69.179  1.00  0.00     0.496 A  
HETATM   11  I   UNL     1      -8.166  15.885  68.179  1.00  0.00    -0.174 I  
HETATM   12  C   UNL     1      -7.938  11.527  67.677  1.00  0.00    -0.126 A  
HETATM   13  C   UNL     1      -9.837  11.866  69.158  1.00  0.00     0.272 A  
HETATM   14  I   UNL     1     -11.778  11.050  69.644  1.00  0.00    -0.475 I  
HETATM   15  I   UNL     1      -6.433  10.308  66.717  1.00  0.00    -0.090 I  
HETATM   16  C   UNL     1      -8.903  10.985  68.545  1.00  0.00    -0.159 A  
BRANCH  10  17
HETATM   17  C   UNL     1     -10.521  14.227  69.937  1.00  0.00     0.341 C  
HETATM   18  O   UNL     1      -9.979  14.922  70.798  1.00  0.00     0.488 OA 
HETATM   19  C   UNL     1     -12.690  13.668  68.686  1.00  0.00     0.950 C  
HETATM   20  N   UNL     1     -11.914  14.303  69.744  1.00  0.00    -0.319 N  
BRANCH  20  21
HETATM   21  C   UNL     1     -12.721  15.115  70.695  1.00  0.00    -0.398 C  
BRANCH  21  22
HETATM   22  C   UNL     1     -12.275  16.600  70.748  1.00  0.00     1.372 C  
HETATM   23  H   UNL     1     -11.863  17.957  72.136  1.00  0.00     0.000 HD 
HETATM   24  O   UNL     1     -12.136  17.047  72.104  1.00  0.00     0.354 OA 
BRANCH  22  25
HETATM   25  C   UNL     1     -10.939  16.846  70.030  1.00  0.00     0.156 C  
HETATM   26  H   UNL     1      -9.139  17.519  70.485  1.00  0.00     0.000 HD 
HETATM   27  O   UNL     1      -9.965  17.367  70.929  1.00  0.00     2.431 OA 
ENDBRANCH  22  25
ENDBRANCH  21  22
ENDBRANCH  20  21
ENDBRANCH  10  17
BRANCH  16  28
HETATM   28  C   UNL     1      -8.907   9.518  68.839  1.00  0.00    -0.137 C  
HETATM   29  H   UNL     1      -8.369   9.861  70.838  1.00  0.00     0.000 HD 
HETATM   30  O   UNL     1      -9.159   8.687  67.981  1.00  0.00    -0.140 OA 
HETATM   31  N   UNL     1      -8.530   9.146  70.129  1.00  0.00    -0.156 N  
BRANCH  31  32
HETATM   32  C   UNL     1      -8.366   7.737  70.462  1.00  0.00    -0.125 C  
BRANCH  32  33
HETATM   33  C   UNL     1      -8.091   7.515  71.953  1.00  0.00    -0.094 C  
HETATM   34  O   UNL     1      -9.031   6.557  72.461  1.00  0.00    -0.136 OA 
HETATM   35  H   UNL     1      -8.860   6.419  73.386  1.00  0.00     0.000 HD 
BRANCH  33  36
HETATM   36  C   UNL     1      -6.648   7.037  72.186  1.00  0.00    -0.056 C  
HETATM   37  O   UNL     1      -6.097   6.436  71.016  1.00  0.00    -0.030 OA 
HETATM   38  H   UNL     1      -5.205   6.141  71.160  1.00  0.00     0.000 HD 
ENDBRANCH  33  36
ENDBRANCH  32  33
ENDBRANCH  31  32
ENDBRANCH  16  28
ENDBRANCH   6   8
ENDBRANCH   3   4
ENDBRANCH   2   3
TORSDOF 11
ENDMDL
MODEL      196
REMARK 921   NORMALIZED FREE ENERGY PREDICTED BY IDOCK:   21.27 KCAL/MOL
REMARK 922        TOTAL FREE ENERGY PREDICTED BY IDOCK:   33.83 KCAL/MOL
REMARK 923 INTER-LIGAND FREE ENERGY PREDICTED BY IDOCK:   17.89 KCAL/MOL
REMARK 924 INTRA-LIGAND FREE ENERGY PREDICTED BY IDOCK:   15.94 KCAL/MOL
REMARK 927      BINDING AFFINITY PREDICTED BY RF-SCORE:    0.00 PKD
ROOT
HETATM    1  C   UNL     1      -8.035  13.822  73.969  1.00  0.00     8.179 C  
HETATM    2  O   UNL     1      -7.899  14.143  72.587  1.00  0.00     4.677 OA 
ENDROOT
BRANCH   2   3
HETATM    3  C   UNL     1      -8.863  15.091  72.150  1.00  0.00     6.345 C  
BRANCH   3   4
HETATM    4  C   UNL     1      -9.205  14.983  70.654  1.00  0.00     1.556 C  
HETATM    5  O   UNL     1     -10.059  15.697  70.134  1.00  0.00    -0.294 OA 
HETATM    6  N   UNL     1      -8.448  14.036  69.954  1.00  0.00     0.588 N  
HETATM    7  H   UNL     1      -7.770  13.439  70.429  1.00  0.00     0.000 HD 
BRANCH   6   8
HETATM    8  C   UNL     1      -8.666  13.940  68.547  1.00  0.00    -0.134 A  
HETATM    9  C   UNL     1      -8.251  12.795  67.822  1.00  0.00    -0.176 A  
HETATM   10  C   UNL     1      -8.714  12.555  66.495  1.00  0.00    -0.035 A  
HETATM   11  I   UNL     1      -6.927  11.448  68.854  1.00  0.00    -0.098 I  
HETATM   12  C   UNL     1      -9.362  14.972  67.877  1.00  0.00    -0.183 A  
HETATM   13  C   UNL     1      -9.601  13.516  65.943  1.00  0.00    -0.111 A  
HETATM   14  I   UNL     1     -11.026  12.926  64.428  1.00  0.00    -0.487 I  
HETATM   15  I   UNL     1      -9.558  16.863  68.904  1.00  0.00    -0.119 I  
HETATM   16  C   UNL     1      -9.799  14.786  66.552  1.00  0.00    -0.287 A  
BRANCH  10  17
HETATM   17  C   UNL     1      -8.368  11.256  65.809  1.00  0.00     0.023 C  
HETATM   18  O   UNL     1      -7.674  10.461  66.445  1.00  0.00    -0.114 OA 
HETATM   19  C   UNL     1      -9.677  11.706  63.648  1.00  0.00    -0.289 C  
HETATM   20  N   UNL     1      -8.748  10.958  64.485  1.00  0.00    -0.085 N  
BRANCH  20  21
HETATM   21  C   UNL     1      -8.169   9.751  63.834  1.00  0.00    -0.159 C  
BRANCH  21  22
HETATM   22  C   UNL     1      -7.707   8.678  64.854  1.00  0.00    -0.106 C  
HETATM   23  H   UNL     1      -8.479   7.088  65.758  1.00  0.00     0.000 HD 
HETATM   24  O   UNL     1      -8.762   7.745  65.132  1.00  0.00    -0.062 OA 
BRANCH  22  25
HETATM   25  C   UNL     1      -6.486   7.882  64.371  1.00  0.00    -0.056 C  
HETATM   26  H   UNL     1      -5.970   6.817  62.790  1.00  0.00     0.000 HD 
HETATM   27  O   UNL     1      -6.724   7.309  63.089  1.00  0.00    -0.051 OA 
ENDBRANCH  22  25
ENDBRANCH  21  22
ENDBRANCH  20  21
ENDBRANCH  10  17
BRANCH  16  28
HETATM   28  C   UNL     1     -10.418  15.923  65.801  1.00  0.00    -0.370 C  
HETATM   29  H   UNL     1      -9.878  17.282  67.307  1.00  0.00     0.000 HD 
HETATM   30  O   UNL     1     -10.976  15.763  64.729  1.00  0.00    -0.448 OA 
HETATM   31  N   UNL     1     -10.390  17.166  66.433  1.00  0.00    -0.323 N  
BRANCH  31  32
HETATM   32  C   UNL     1     -11.093  18.298  65.844  1.00  0.00     0.515 C  
BRANCH  32  33
HETATM   33  C   UNL     1     -10.138  19.385  65.342  1.00  0.00     0.489 C  
HETATM   34  O   UNL     1     -10.882  20.335  64.565  1.00  0.00     0.296 OA 
HETATM   35  H   UNL     1     -10.289  21.010  64.253  1.00  0.00     0.000 HD 
BRANCH  33  36
HETATM   36  C   UNL     1      -9.426  20.082  66.514  1.00  0.00    -0.404 C  
HETATM   37  O   UNL     1      -8.240  20.750  66.088  1.00  0.00    -0.384 OA 
HETATM   38  H   UNL     1      -7.800  21.181  66.812  1.00  0.00     0.000 HD 
ENDBRANCH  33  36
ENDBRANCH  32  33
ENDBRANCH  31  32
ENDBRANCH  16  28
ENDBRANCH   6   8
ENDBRANCH   3   4
ENDBRANCH   2   3
TORSDOF 11
ENDMDL
MODEL      197
REMARK 921   NORMALIZED FREE ENERGY PREDICTED BY IDOCK:   31.43 KCAL/MOL
REMARK 922        TOTAL FREE ENERGY PREDICTED BY IDOCK:   50.51 KCAL/MOL
REMARK 923 INTER-LIGAND FREE ENERGY PREDICTED BY IDOCK:   26.39 KCAL/MOL
REMARK 924 INTRA-LIGAND FREE ENERGY PREDICTED BY IDOCK:   24.12 KCAL/MOL
REMARK 927      BINDING AFFINITY PREDICTED BY RF-SCORE:    0.00 PKD
ROOT
HETATM    1  C   UNL     1      -6.628   7.676  68.836  1.00  0.00    -0.049 C  
HETATM    2  O   UNL     1      -6.387   7.872  67.445  1.00  0.00    -0.052 OA 
ENDROOT
BRANCH   2   3
HETATM    3  C   UNL     1      -5.705   9.090  67.176  1.00  0.00    -0.045 C  
BRANCH   3   4
HETATM    4  C   UNL     1      -6.621  10.213  66.660  1.00  0.00    -0.075 C  
HETATM    5  O   UNL     1      -7.362  10.047  65.694  1.00  0.00    -0.113 OA 
HETATM    6  N   UNL     1      -6.552  11.402  67.395  1.00  0.00    -0.081 N  
HETATM    7  H   UNL     1      -5.899  11.510  68.172  1.00  0.00     0.000 HD 
BRANCH   6   8
HETATM    8  C   UNL     1      -7.433  12.456  67.011  1.00  0.00    -0.034 A  
HETATM    9  C   UNL     1      -8.604  12.189  66.259  1.00  0.00     0.084 A  
HETATM   10  C   UNL     1      -9.630  13.169  66.121  1.00  0.00    -0.209 A  
HETATM   11  I   UNL     1      -8.743  10.227  65.387  1.00  0.00    -0.229 I  
HETATM   12  C   UNL     1      -7.169  13.777  67.440  1.00  0.00    -0.089 A  
HETATM   13  C   UNL     1      -9.418  14.415  66.768  1.00  0.00    -0.267 A  
HETATM   14  I   UNL     1     -11.107  15.604  67.404  1.00  0.00    -0.053 I  
HETATM   15  I   UNL     1      -5.179  14.203  68.167  1.00  0.00    -0.044 I  
HETATM   16  C   UNL     1      -8.143  14.780  67.282  1.00  0.00    -0.232 A  
BRANCH  10  17
HETATM   17  C   UNL     1     -10.925  12.801  65.438  1.00  0.00    -0.283 C  
HETATM   18  O   UNL     1     -11.630  13.733  65.047  1.00  0.00    -0.321 OA 
HETATM   19  C   UNL     1     -10.611  10.257  65.563  1.00  0.00     0.045 C  
HETATM   20  N   UNL     1     -11.370  11.472  65.293  1.00  0.00    -0.150 N  
BRANCH  20  21
HETATM   21  C   UNL     1     -12.757  11.234  64.806  1.00  0.00     2.254 C  
BRANCH  21  22
HETATM   22  C   UNL     1     -12.875   9.966  63.922  1.00  0.00    10.985 C  
HETATM   23  H   UNL     1     -13.444   9.516  62.075  1.00  0.00     0.000 HD 
HETATM   24  O   UNL     1     -13.371  10.293  62.616  1.00  0.00     4.851 OA 
BRANCH  22  25
HETATM   25  C   UNL     1     -11.536   9.233  63.749  1.00  0.00    11.720 C  
HETATM   26  H   UNL     1      -9.614   9.632  63.965  1.00  0.00     0.000 HD 
HETATM   27  O   UNL     1     -10.442  10.085  64.073  1.00  0.00     0.486 OA 
ENDBRANCH  22  25
ENDBRANCH  21  22
ENDBRANCH  20  21
ENDBRANCH  10  17
BRANCH  16  28
HETATM   28  C   UNL     1      -7.815  16.202  67.615  1.00  0.00    -0.147 C  
HETATM   29  H   UNL     1      -7.793  16.730  65.584  1.00  0.00     0.000 HD 
HETATM   30  O   UNL     1      -7.662  16.578  68.765  1.00  0.00    -0.201 OA 
HETATM   31  N   UNL     1      -7.615  17.058  66.533  1.00  0.00    -0.261 N  
BRANCH  31  32
HETATM   32  C   UNL     1      -7.152  18.421  66.758  1.00  0.00    -0.205 C  
BRANCH  32  33
HETATM   33  C   UNL     1      -5.709  18.635  66.290  1.00  0.00    -0.154 C  
HETATM   34  O   UNL     1      -5.245  17.436  65.652  1.00  0.00    -0.269 OA 
HETATM   35  H   UNL     1      -4.349  17.568  65.362  1.00  0.00     0.000 HD 
BRANCH  33  36
HETATM   36  C   UNL     1      -5.608  19.834  65.332  1.00  0.00    -0.164 C  
HETATM   37  O   UNL     1      -6.844  20.079  64.663  1.00  0.00    -0.307 OA 
HETATM   38  H   UNL     1      -6.781  20.820  64.071  1.00  0.00     0.000 HD 
ENDBRANCH  33  36
ENDBRANCH  32  33
ENDBRANCH  31  32
ENDBRANCH  16  28
ENDBRANCH   6   8
ENDBRANCH   3   4
ENDBRANCH   2   3
TORSDOF 11
ENDMDL
MODEL      198
REMARK 921   NORMALIZED FREE ENERGY PREDICTED BY IDOCK:   32.47 KCAL/MOL
REMARK 922        TOTAL FREE ENERGY PREDICTED BY IDOCK:   52.23 KCAL/MOL
REMARK 923 INTER-LIGAND FREE ENERGY PREDICTED BY IDOCK:   37.19 KCAL/MOL
REMARK 924 INTRA-LIGAND FREE ENERGY PREDICTED BY IDOCK:   15.04 KCAL/MOL
REMARK 927      BINDING AFFINITY PREDICTED BY RF-SCORE:    0.00 PKD
ROOT
HETATM    1  C   UNL     1      -6.117  17.677  65.562  1.00  0.00     0.112 C  
HETATM    2  O   UNL     1      -5.220  16.897  64.776  1.00  0.00     1.739 OA 
ENDROOT
BRANCH   2   3
HETATM    3  C   UNL     1      -5.676  15.564  64.590  1.00  0.00    14.613 C  
BRANCH   3   4
HETATM    4  C   UNL     1      -6.446  14.998  65.795  1.00  0.00     7.418 C  
HETATM    5  O   UNL     1      -6.544  15.623  66.848  1.00  0.00    -0.258 OA 
HETATM    6  N   UNL     1      -7.034  13.747  65.572  1.00  0.00     7.260 N  
HETATM    7  H   UNL     1      -6.902  13.246  64.693  1.00  0.00     0.000 HD 
BRANCH   6   8
HETATM    8  C   UNL     1      -7.825  13.203  66.628  1.00  0.00     0.587 A  
HETATM    9  C   UNL     1      -8.415  14.045  67.604  1.00  0.00    -0.191 A  
HETATM   10  C   UNL     1      -9.431  13.559  68.478  1.00  0.00    -0.131 A  
HETATM   11  I   UNL     1      -7.714  16.079  67.651  1.00  0.00    -0.220 I  
HETATM   12  C   UNL     1      -8.075  11.813  66.667  1.00  0.00    -0.094 A  
HETATM   13  C   UNL     1      -9.814  12.201  68.323  1.00  0.00    -0.212 A  
HETATM   14  I   UNL     1     -11.808  11.571  68.871  1.00  0.00    -0.219 I  
HETATM   15  I   UNL     1      -6.805  10.543  65.464  1.00  0.00     0.079 I  
HETATM   16  C   UNL     1      -9.043  11.292  67.546  1.00  0.00    -0.151 A  
BRANCH  10  17
HETATM   17  C   UNL     1     -10.139  14.519  69.403  1.00  0.00     0.005 C  
HETATM   18  O   UNL     1     -11.222  14.963  69.017  1.00  0.00    -0.238 OA 
HETATM   19  C   UNL     1      -8.408  14.435  71.295  1.00  0.00     4.544 C  
HETATM   20  N   UNL     1      -9.592  14.958  70.625  1.00  0.00     0.951 N  
BRANCH  20  21
HETATM   21  C   UNL     1     -10.268  16.069  71.349  1.00  0.00     1.877 C  
BRANCH  21  22
HETATM   22  C   UNL     1     -11.759  15.770  71.654  1.00  0.00    -0.464 C  
HETATM   23  H   UNL     1     -13.502  16.708  71.505  1.00  0.00     0.000 HD 
HETATM   24  O   UNL     1     -12.588  16.892  71.318  1.00  0.00     1.600 OA 
BRANCH  22  25
HETATM   25  C   UNL     1     -12.289  14.546  70.891  1.00  0.00    -0.345 C  
HETATM   26  H   UNL     1     -13.698  14.148  69.566  1.00  0.00     0.000 HD 
HETATM   27  O   UNL     1     -13.370  14.905  70.037  1.00  0.00     0.130 OA 
ENDBRANCH  22  25
ENDBRANCH  21  22
ENDBRANCH  20  21
ENDBRANCH  10  17
BRANCH  16  28
HETATM   28  C   UNL     1      -9.214   9.812  67.680  1.00  0.00    -0.130 C  
HETATM   29  H   UNL     1      -7.438   9.651  68.786  1.00  0.00     0.000 HD 
HETATM   30  O   UNL     1     -10.158   9.223  67.180  1.00  0.00    -0.201 OA 
HETATM   31  N   UNL     1      -8.193   9.130  68.340  1.00  0.00    -0.114 N  
BRANCH  31  32
HETATM   32  C   UNL     1      -8.204   7.674  68.391  1.00  0.00    -0.125 C  
BRANCH  32  33
HETATM   33  C   UNL     1      -9.415   7.071  67.672  1.00  0.00    -0.121 C  
HETATM   34  O   UNL     1      -8.954   6.100  66.721  1.00  0.00    -0.118 OA 
HETATM   35  H   UNL     1      -9.705   5.726  66.274  1.00  0.00     0.000 HD 
BRANCH  33  36
HETATM   36  C   UNL     1     -10.391   6.430  68.673  1.00  0.00    -0.199 C  
HETATM   37  O   UNL     1     -10.220   6.956  69.987  1.00  0.00    -0.190 OA 
HETATM   38  H   UNL     1     -10.824   6.560  70.605  1.00  0.00     0.000 HD 
ENDBRANCH  33  36
ENDBRANCH  32  33
ENDBRANCH  31  32
ENDBRANCH  16  28
ENDBRANCH   6   8
ENDBRANCH   3   4
ENDBRANCH   2   3
TORSDOF 11
ENDMDL
MODEL      199
REMARK 921   NORMALIZED FREE ENERGY PREDICTED BY IDOCK:   33.21 KCAL/MOL
REMARK 922        TOTAL FREE ENERGY PREDICTED BY IDOCK:   53.45 KCAL/MOL
REMARK 923 INTER-LIGAND FREE ENERGY PREDICTED BY IDOCK:   32.18 KCAL/MOL
REMARK 924 INTRA-LIGAND FREE ENERGY PREDICTED BY IDOCK:   21.26 KCAL/MOL
REMARK 927      BINDING AFFINITY PREDICTED BY RF-SCORE:    0.00 PKD
ROOT
HETATM    1  C   UNL     1      -7.503  19.089  73.326  1.00  0.00     6.205 C  
HETATM    2  O   UNL     1      -6.619  19.370  72.244  1.00  0.00     0.823 OA 
ENDROOT
BRANCH   2   3
HETATM    3  C   UNL     1      -7.115  18.901  70.998  1.00  0.00     2.429 C  
BRANCH   3   4
HETATM    4  C   UNL     1      -6.869  17.401  70.758  1.00  0.00     2.536 C  
HETATM    5  O   UNL     1      -6.042  16.771  71.412  1.00  0.00     1.095 OA 
HETATM    6  N   UNL     1      -7.678  16.832  69.767  1.00  0.00     0.480 N  
HETATM    7  H   UNL     1      -8.332  17.397  69.224  1.00  0.00     0.000 HD 
BRANCH   6   8
HETATM    8  C   UNL     1      -7.549  15.428  69.550  1.00  0.00    -0.212 A  
HETATM    9  C   UNL     1      -6.988  14.586  70.542  1.00  0.00     0.364 A  
HETATM   10  C   UNL     1      -7.118  13.168  70.465  1.00  0.00     1.874 A  
HETATM   11  I   UNL     1      -5.977  15.575  72.164  1.00  0.00     1.958 I  
HETATM   12  C   UNL     1      -8.044  14.859  68.355  1.00  0.00    -0.137 A  
HETATM   13  C   UNL     1      -7.830  12.650  69.351  1.00  0.00     0.742 A  
HETATM   14  I   UNL     1      -8.852  10.752  69.509  1.00  0.00     0.653 I  
HETATM   15  I   UNL     1      -8.455  16.203  66.713  1.00  0.00    -0.364 I  
HETATM   16  C   UNL     1      -8.149  13.461  68.227  1.00  0.00    -0.152 A  
BRANCH  10  17
HETATM   17  C   UNL     1      -6.637  12.312  71.611  1.00  0.00     3.887 C  
HETATM   18  O   UNL     1      -6.460  12.880  72.690  1.00  0.00     2.449 OA 
HETATM   19  C   UNL     1      -6.614  10.089  70.330  1.00  0.00    -0.132 C  
HETATM   20  N   UNL     1      -6.333  10.943  71.477  1.00  0.00     1.031 N  
BRANCH  20  21
HETATM   21  C   UNL     1      -5.657  10.250  72.608  1.00  0.00     0.530 C  
BRANCH  21  22
HETATM   22  C   UNL     1      -5.383   8.752  72.318  1.00  0.00    -0.053 C  
HETATM   23  H   UNL     1      -5.149   7.077  73.358  1.00  0.00     0.000 HD 
HETATM   24  O   UNL     1      -5.317   7.995  73.536  1.00  0.00    -0.044 OA 
BRANCH  22  25
HETATM   25  C   UNL     1      -6.454   8.112  71.422  1.00  0.00    -0.042 C  
HETATM   26  H   UNL     1      -6.697   6.438  70.403  1.00  0.00     0.000 HD 
HETATM   27  O   UNL     1      -6.035   6.833  70.957  1.00  0.00    -0.031 OA 
ENDBRANCH  22  25
ENDBRANCH  21  22
ENDBRANCH  20  21
ENDBRANCH  10  17
BRANCH  16  28
HETATM   28  C   UNL     1      -8.549  12.857  66.917  1.00  0.00    -0.127 C  
HETATM   29  H   UNL     1      -8.610  10.936  67.760  1.00  0.00     0.000 HD 
HETATM   30  O   UNL     1      -8.683  13.530  65.909  1.00  0.00     0.546 OA 
HETATM   31  N   UNL     1      -8.684  11.469  66.894  1.00  0.00    -0.174 N  
BRANCH  31  32
HETATM   32  C   UNL     1      -8.929  10.782  65.633  1.00  0.00    -0.189 C  
BRANCH  32  33
HETATM   33  C   UNL     1      -8.738  11.697  64.420  1.00  0.00     0.691 C  
HETATM   34  O   UNL     1      -9.584  12.848  64.569  1.00  0.00    -0.507 OA 
HETATM   35  H   UNL     1      -9.466  13.416  63.816  1.00  0.00     0.000 HD 
BRANCH  33  36
HETATM   36  C   UNL     1      -7.267  12.120  64.269  1.00  0.00     5.322 C  
HETATM   37  O   UNL     1      -6.694  11.614  63.065  1.00  0.00     0.735 OA 
HETATM   38  H   UNL     1      -5.785  11.875  62.972  1.00  0.00     0.000 HD 
ENDBRANCH  33  36
ENDBRANCH  32  33
ENDBRANCH  31  32
ENDBRANCH  16  28
ENDBRANCH   6   8
ENDBRANCH   3   4
ENDBRANCH   2   3
TORSDOF 11
ENDMDL
MODEL      200
REMARK 921   NORMALIZED FREE ENERGY PREDICTED BY IDOCK:   41.42 KCAL/MOL
REMARK 922        TOTAL FREE ENERGY PREDICTED BY IDOCK:   66.93 KCAL/MOL
REMARK 923 INTER-LIGAND FREE ENERGY PREDICTED BY IDOCK:   58.78 KCAL/MOL
REMARK 924 INTRA-LIGAND FREE ENERGY PREDICTED BY IDOCK:    8.16 KCAL/MOL
REMARK 927      BINDING AFFINITY PREDICTED BY RF-SCORE:    0.00 PKD
ROOT
HETATM    1  C   UNL     1      -8.788  18.285  73.108  1.00  0.00    12.330 C  
HETATM    2  O   UNL     1      -9.562  17.158  73.509  1.00  0.00    10.578 OA 
ENDROOT
BRANCH   2   3
HETATM    3  C   UNL     1      -9.012  15.929  73.053  1.00  0.00    12.642 C  
BRANCH   3   4
HETATM    4  C   UNL     1      -9.121  15.727  71.532  1.00  0.00     4.868 C  
HETATM    5  O   UNL     1      -9.926  16.362  70.854  1.00  0.00     1.377 OA 
HETATM    6  N   UNL     1      -8.220  14.795  71.004  1.00  0.00     1.753 N  
HETATM    7  H   UNL     1      -7.589  14.265  71.606  1.00  0.00     0.000 HD 
BRANCH   6   8
HETATM    8  C   UNL     1      -8.222  14.618  69.588  1.00  0.00     0.226 A  
HETATM    9  C   UNL     1      -8.688  13.413  69.006  1.00  0.00     0.413 A  
HETATM   10  C   UNL     1      -8.969  13.330  67.610  1.00  0.00    -0.199 A  
HETATM   11  I   UNL     1      -8.976  11.758  70.351  1.00  0.00     7.031 I  
HETATM   12  C   UNL     1      -7.812  15.681  68.752  1.00  0.00    -0.169 A  
HETATM   13  C   UNL     1      -8.756  14.505  66.843  1.00  0.00    -0.211 A  
HETATM   14  I   UNL     1      -9.897  14.839  65.038  1.00  0.00     0.871 I  
HETATM   15  I   UNL     1      -6.694  17.288  69.667  1.00  0.00     0.463 I  
HETATM   16  C   UNL     1      -8.036  15.616  67.364  1.00  0.00    -0.204 A  
BRANCH  10  17
HETATM   17  C   UNL     1      -9.602  12.079  67.051  1.00  0.00    -0.195 C  
HETATM   18  O   UNL     1     -10.622  11.676  67.613  1.00  0.00    -0.192 OA 
HETATM   19  C   UNL     1      -7.945  11.748  65.120  1.00  0.00     1.416 C  
HETATM   20  N   UNL     1      -9.049  11.346  65.983  1.00  0.00    -0.209 N  
BRANCH  20  21
HETATM   21  C   UNL     1      -9.629  10.014  65.658  1.00  0.00    -0.252 C  
BRANCH  21  22
HETATM   22  C   UNL     1      -8.864   8.844  66.331  1.00  0.00    -0.152 C  
HETATM   23  H   UNL     1      -7.299   7.692  65.926  1.00  0.00     0.000 HD 
HETATM   24  O   UNL     1      -7.767   8.409  65.513  1.00  0.00    -0.090 OA 
BRANCH  22  25
HETATM   25  C   UNL     1      -8.304   9.215  67.712  1.00  0.00    -0.117 C  
HETATM   26  H   UNL     1      -8.528  10.661  69.040  1.00  0.00     0.000 HD 
HETATM   27  O   UNL     1      -8.874  10.431  68.186  1.00  0.00    -0.128 OA 
ENDBRANCH  22  25
ENDBRANCH  21  22
ENDBRANCH  20  21
ENDBRANCH  10  17
BRANCH  16  28
HETATM   28  C   UNL     1      -7.486  16.679  66.466  1.00  0.00    -0.271 C  
HETATM   29  H   UNL     1      -8.106  18.190  67.785  1.00  0.00     0.000 HD 
HETATM   30  O   UNL     1      -6.947  16.414  65.404  1.00  0.00     1.896 OA 
HETATM   31  N   UNL     1      -7.693  17.997  66.872  1.00  0.00    -0.215 N  
BRANCH  31  32
HETATM   32  C   UNL     1      -7.320  19.098  65.993  1.00  0.00    -0.272 C  
BRANCH  32  33
HETATM   33  C   UNL     1      -8.334  19.317  64.866  1.00  0.00     2.611 C  
HETATM   34  O   UNL     1      -9.283  18.240  64.878  1.00  0.00     2.059 OA 
HETATM   35  H   UNL     1      -9.912  18.376  64.179  1.00  0.00     0.000 HD 
BRANCH  33  36
HETATM   36  C   UNL     1      -9.048  20.671  65.017  1.00  0.00     1.538 C  
HETATM   37  O   UNL     1     -10.312  20.531  65.662  1.00  0.00    -0.422 OA 
HETATM   38  H   UNL     1     -10.753  21.368  65.756  1.00  0.00     0.000 HD 
ENDBRANCH  33  36
ENDBRANCH  32  33
ENDBRANCH  31  32
ENDBRANCH  16  28
ENDBRANCH   6   8
ENDBRANCH   3   4
ENDBRANCH   2   3
TORSDOF 11
ENDMDL
MODEL      201
REMARK 921   NORMALIZED FREE ENERGY PREDICTED BY IDOCK:   46.39 KCAL/MOL
REMARK 922        TOTAL FREE ENERGY PREDICTED BY IDOCK:   75.09 KCAL/MOL
REMARK 923 INTER-LIGAND FREE ENERGY PREDICTED BY IDOCK:   56.97 KCAL/MOL
REMARK 924 INTRA-LIGAND FREE ENERGY PREDICTED BY IDOCK:   18.13 KCAL/MOL
REMARK 927      BINDING AFFINITY PREDICTED BY RF-SCORE:    0.00 PKD
ROOT
HETATM    1  C   UNL     1      -7.441   7.609  72.857  1.00  0.00    -0.096 C  
HETATM    2  O   UNL     1      -8.844   7.659  73.104  1.00  0.00    -0.143 OA 
ENDROOT
BRANCH   2   3
HETATM    3  C   UNL     1      -9.292   8.965  73.439  1.00  0.00     1.270 C  
BRANCH   3   4
HETATM    4  C   UNL     1      -8.957  10.027  72.377  1.00  0.00     5.483 C  
HETATM    5  O   UNL     1      -7.848  10.553  72.320  1.00  0.00     4.571 OA 
HETATM    6  N   UNL     1     -10.002  10.309  71.489  1.00  0.00     1.545 N  
HETATM    7  H   UNL     1     -10.919   9.873  71.591  1.00  0.00     0.000 HD 
BRANCH   6   8
HETATM    8  C   UNL     1      -9.728  11.231  70.436  1.00  0.00     2.682 A  
HETATM    9  C   UNL     1      -8.455  11.270  69.814  1.00  0.00     1.057 A  
HETATM   10  C   UNL     1      -8.256  11.966  68.585  1.00  0.00    -0.072 A  
HETATM   11  I   UNL     1      -6.880  10.195  70.811  1.00  0.00     0.676 I  
HETATM   12  C   UNL     1     -10.759  12.075  69.962  1.00  0.00     0.937 A  
HETATM   13  C   UNL     1      -9.389  12.615  68.026  1.00  0.00    -0.209 A  
HETATM   14  I   UNL     1      -9.513  12.919  65.890  1.00  0.00     0.239 I  
HETATM   15  I   UNL     1     -12.503  12.308  71.217  1.00  0.00     0.328 I  
HETATM   16  C   UNL     1     -10.582  12.809  68.774  1.00  0.00    -0.216 A  
BRANCH  10  17
HETATM   17  C   UNL     1      -6.927  11.864  67.879  1.00  0.00    -0.085 C  
HETATM   18  O   UNL     1      -5.921  11.843  68.591  1.00  0.00    -0.049 OA 
HETATM   19  C   UNL     1      -7.868  11.732  65.495  1.00  0.00     1.049 C  
HETATM   20  N   UNL     1      -6.797  11.856  66.476  1.00  0.00     0.087 N  
BRANCH  20  21
HETATM   21  C   UNL     1      -5.436  11.977  65.886  1.00  0.00     1.432 C  
BRANCH  21  22
HETATM   22  C   UNL     1      -5.256  13.268  65.046  1.00  0.00    10.332 C  
HETATM   23  H   UNL     1      -6.243  14.241  63.625  1.00  0.00     0.000 HD 
HETATM   24  O   UNL     1      -6.354  13.450  64.140  1.00  0.00    14.499 OA 
BRANCH  22  25
HETATM   25  C   UNL     1      -5.146  14.532  65.913  1.00  0.00     7.020 C  
HETATM   26  H   UNL     1      -6.120  15.360  67.419  1.00  0.00     0.000 HD 
HETATM   27  O   UNL     1      -6.188  14.579  66.883  1.00  0.00     0.246 OA 
ENDBRANCH  22  25
ENDBRANCH  21  22
ENDBRANCH  20  21
ENDBRANCH  10  17
BRANCH  16  28
HETATM   28  C   UNL     1     -11.619  13.799  68.345  1.00  0.00    -0.334 C  
HETATM   29  H   UNL     1     -11.031  15.147  69.843  1.00  0.00     0.000 HD 
HETATM   30  O   UNL     1     -12.387  13.574  67.424  1.00  0.00    -0.278 OA 
HETATM   31  N   UNL     1     -11.713  14.963  69.107  1.00  0.00    -0.295 N  
BRANCH  31  32
HETATM   32  C   UNL     1     -12.786  15.916  68.853  1.00  0.00     1.084 C  
BRANCH  32  33
HETATM   33  C   UNL     1     -12.480  16.840  67.670  1.00  0.00     2.753 C  
HETATM   34  O   UNL     1     -12.002  18.096  68.174  1.00  0.00     1.271 OA 
HETATM   35  H   UNL     1     -11.812  18.670  67.440  1.00  0.00     0.000 HD 
BRANCH  33  36
HETATM   36  C   UNL     1     -11.448  16.207  66.723  1.00  0.00     0.453 C  
HETATM   37  O   UNL     1     -11.828  14.888  66.335  1.00  0.00    -0.272 OA 
HETATM   38  H   UNL     1     -11.190  14.497  65.749  1.00  0.00     0.000 HD 
ENDBRANCH  33  36
ENDBRANCH  32  33
ENDBRANCH  31  32
ENDBRANCH  16  28
ENDBRANCH   6   8
ENDBRANCH   3   4
ENDBRANCH   2   3
TORSDOF 11
ENDMDL
MODEL      202
REMARK 921   NORMALIZED FREE ENERGY PREDICTED BY IDOCK:   47.07 KCAL/MOL
REMARK 922        TOTAL FREE ENERGY PREDICTED BY IDOCK:   76.22 KCAL/MOL
REMARK 923 INTER-LIGAND FREE ENERGY PREDICTED BY IDOCK:   41.29 KCAL/MOL
REMARK 924 INTRA-LIGAND FREE ENERGY PREDICTED BY IDOCK:   34.92 KCAL/MOL
REMARK 927      BINDING AFFINITY PREDICTED BY RF-SCORE:    0.00 PKD
ROOT
HETATM    1  C   UNL     1      -7.604   5.302  66.716  1.00  0.00    -0.088 C  
HETATM    2  O   UNL     1      -8.477   4.479  67.484  1.00  0.00    -0.103 OA 
ENDROOT
BRANCH   2   3
HETATM    3  C   UNL     1      -9.347   5.234  68.317  1.00  0.00    -0.118 C  
BRANCH   3   4
HETATM    4  C   UNL     1      -9.029   6.739  68.341  1.00  0.00    -0.124 C  
HETATM    5  O   UNL     1      -7.974   7.182  67.895  1.00  0.00    -0.112 OA 
HETATM    6  N   UNL     1     -10.045   7.537  68.882  1.00  0.00    -0.186 N  
HETATM    7  H   UNL     1     -10.894   7.126  69.272  1.00  0.00     0.000 HD 
BRANCH   6   8
HETATM    8  C   UNL     1      -9.841   8.949  68.864  1.00  0.00    -0.177 A  
HETATM    9  C   UNL     1      -9.292   9.591  67.726  1.00  0.00    -0.127 A  
HETATM   10  C   UNL     1      -9.354  11.008  67.578  1.00  0.00    -0.167 A  
HETATM   11  I   UNL     1      -8.410   8.304  66.244  1.00  0.00    -0.163 I  
HETATM   12  C   UNL     1     -10.249   9.727  69.971  1.00  0.00    -0.263 A  
HETATM   13  C   UNL     1      -9.984  11.734  68.623  1.00  0.00    -0.172 A  
HETATM   14  I   UNL     1     -10.925  13.634  68.203  1.00  0.00    -0.325 I  
HETATM   15  I   UNL     1     -10.638   8.685  71.825  1.00  0.00    -0.425 I  
HETATM   16  C   UNL     1     -10.284  11.131  69.876  1.00  0.00     0.496 A  
BRANCH  10  17
HETATM   17  C   UNL     1      -8.892  11.644  66.290  1.00  0.00    -0.164 C  
HETATM   18  O   UNL     1      -9.570  11.417  65.286  1.00  0.00    -0.224 OA 
HETATM   19  C   UNL     1      -6.880  12.891  67.280  1.00  0.00    -0.057 C  
HETATM   20  N   UNL     1      -7.714  12.410  66.186  1.00  0.00     0.824 N  
BRANCH  20  21
HETATM   21  C   UNL     1      -7.236  12.801  64.832  1.00  0.00     7.900 C  
BRANCH  21  22
HETATM   22  C   UNL     1      -8.375  12.842  63.780  1.00  0.00     5.177 C  
HETATM   23  H   UNL     1      -8.623  12.364  61.869  1.00  0.00     0.000 HD 
HETATM   24  O   UNL     1      -7.925  12.338  62.513  1.00  0.00     1.306 OA 
BRANCH  22  25
HETATM   25  C   UNL     1      -9.606  12.025  64.202  1.00  0.00     0.005 C  
HETATM   26  H   UNL     1     -10.226  11.036  65.795  1.00  0.00     0.000 HD 
HETATM   27  O   UNL     1      -9.466  11.541  65.534  1.00  0.00    -0.224 OA 
ENDBRANCH  22  25
ENDBRANCH  21  22
ENDBRANCH  20  21
ENDBRANCH  10  17
BRANCH  16  28
HETATM   28  C   UNL     1     -10.589  11.956  71.086  1.00  0.00     5.187 C  
HETATM   29  H   UNL     1     -10.539  13.726  69.958  1.00  0.00     0.000 HD 
HETATM   30  O   UNL     1     -10.736  11.457  72.189  1.00  0.00     6.201 OA 
HETATM   31  N   UNL     1     -10.620  13.338  70.898  1.00  0.00     3.328 N  
BRANCH  31  32
HETATM   32  C   UNL     1     -10.767  14.225  72.044  1.00  0.00     3.144 C  
BRANCH  32  33
HETATM   33  C   UNL     1     -10.876  15.698  71.635  1.00  0.00     0.244 C  
HETATM   34  O   UNL     1     -12.229  16.135  71.828  1.00  0.00    -0.527 OA 
HETATM   35  H   UNL     1     -12.297  17.048  71.574  1.00  0.00     0.000 HD 
BRANCH  33  36
HETATM   36  C   UNL     1      -9.902  16.572  72.444  1.00  0.00     7.704 C  
HETATM   37  O   UNL     1     -10.593  17.432  73.348  1.00  0.00     3.523 OA 
HETATM   38  H   UNL     1      -9.992  17.972  73.848  1.00  0.00     0.000 HD 
ENDBRANCH  33  36
ENDBRANCH  32  33
ENDBRANCH  31  32
ENDBRANCH  16  28
ENDBRANCH   6   8
ENDBRANCH   3   4
ENDBRANCH   2   3
TORSDOF 11
ENDMDL
MODEL      203
REMARK 921   NORMALIZED FREE ENERGY PREDICTED BY IDOCK:   50.71 KCAL/MOL
REMARK 922        TOTAL FREE ENERGY PREDICTED BY IDOCK:   82.19 KCAL/MOL
REMARK 923 INTER-LIGAND FREE ENERGY PREDICTED BY IDOCK:   69.62 KCAL/MOL
REMARK 924 INTRA-LIGAND FREE ENERGY PREDICTED BY IDOCK:   12.57 KCAL/MOL
REMARK 927      BINDING AFFINITY PREDICTED BY RF-SCORE:    0.00 PKD
ROOT
HETATM    1  C   UNL     1      -6.115  17.633  65.519  1.00  0.00     0.112 C  
HETATM    2  O   UNL     1      -5.276  17.114  64.492  1.00  0.00     1.226 OA 
ENDROOT
BRANCH   2   3
HETATM    3  C   UNL     1      -5.685  15.827  64.050  1.00  0.00    15.975 C  
BRANCH   3   4
HETATM    4  C   UNL     1      -6.093  14.881  65.193  1.00  0.00    14.292 C  
HETATM    5  O   UNL     1      -5.904  15.174  66.370  1.00  0.00     1.646 OA 
HETATM    6  N   UNL     1      -6.711  13.697  64.772  1.00  0.00    14.163 N  
HETATM    7  H   UNL     1      -6.821  13.477  63.782  1.00  0.00     0.000 HD 
BRANCH   6   8
HETATM    8  C   UNL     1      -7.179  12.812  65.788  1.00  0.00     3.817 A  
HETATM    9  C   UNL     1      -7.374  13.266  67.117  1.00  0.00     0.094 A  
HETATM   10  C   UNL     1      -8.108  12.489  68.061  1.00  0.00    -0.164 A  
HETATM   11  I   UNL     1      -6.537  15.191  67.593  1.00  0.00    -0.013 I  
HETATM   12  C   UNL     1      -7.514  11.480  65.454  1.00  0.00     1.002 A  
HETATM   13  C   UNL     1      -8.624  11.247  67.605  1.00  0.00    -0.124 A  
HETATM   14  I   UNL     1     -10.396  10.413  68.520  1.00  0.00    -0.263 I  
HETATM   15  I   UNL     1      -6.776  10.717  63.571  1.00  0.00     0.589 I  
HETATM   16  C   UNL     1      -8.202  10.670  66.376  1.00  0.00    -0.146 A  
BRANCH  10  17
HETATM   17  C   UNL     1      -8.421  13.068  69.419  1.00  0.00     1.140 C  
HETATM   18  O   UNL     1      -9.530  13.587  69.558  1.00  0.00     0.725 OA 
HETATM   19  C   UNL     1      -6.209  12.406  70.539  1.00  0.00     0.242 C  
HETATM   20  N   UNL     1      -7.494  13.090  70.480  1.00  0.00     2.651 N  
BRANCH  20  21
HETATM   21  C   UNL     1      -7.826  13.880  71.698  1.00  0.00     6.449 C  
BRANCH  21  22
HETATM   22  C   UNL     1      -7.425  15.373  71.575  1.00  0.00     3.435 C  
HETATM   23  H   UNL     1      -6.492  16.735  72.676  1.00  0.00     0.000 HD 
HETATM   24  O   UNL     1      -6.737  15.820  72.752  1.00  0.00     3.758 OA 
BRANCH  22  25
HETATM   25  C   UNL     1      -6.520  15.649  70.365  1.00  0.00     0.172 C  
HETATM   26  H   UNL     1      -4.703  16.346  70.029  1.00  0.00     0.000 HD 
HETATM   27  O   UNL     1      -5.263  16.176  70.777  1.00  0.00    -0.176 OA 
ENDBRANCH  22  25
ENDBRANCH  21  22
ENDBRANCH  20  21
ENDBRANCH  10  17
BRANCH  16  28
HETATM   28  C   UNL     1      -8.439   9.224  66.072  1.00  0.00    -0.136 C  
HETATM   29  H   UNL     1      -6.425   8.760  66.440  1.00  0.00     0.000 HD 
HETATM   30  O   UNL     1      -9.534   8.804  65.739  1.00  0.00    -0.229 OA 
HETATM   31  N   UNL     1      -7.319   8.394  66.115  1.00  0.00    -0.083 N  
BRANCH  31  32
HETATM   32  C   UNL     1      -7.427   7.003  65.694  1.00  0.00    -0.085 C  
BRANCH  32  33
HETATM   33  C   UNL     1      -8.844   6.636  65.241  1.00  0.00     0.152 C  
HETATM   34  O   UNL     1      -8.776   6.044  63.935  1.00  0.00    -0.339 OA 
HETATM   35  H   UNL     1      -9.655   5.817  63.653  1.00  0.00     0.000 HD 
BRANCH  33  36
HETATM   36  C   UNL     1      -9.514   5.675  66.237  1.00  0.00    -0.155 C  
HETATM   37  O   UNL     1      -8.907   5.745  67.526  1.00  0.00    -0.109 OA 
HETATM   38  H   UNL     1      -9.321   5.151  68.142  1.00  0.00     0.000 HD 
ENDBRANCH  33  36
ENDBRANCH  32  33
ENDBRANCH  31  32
ENDBRANCH  16  28
ENDBRANCH   6   8
ENDBRANCH   3   4
ENDBRANCH   2   3
TORSDOF 11
ENDMDL
MODEL      204
REMARK 921   NORMALIZED FREE ENERGY PREDICTED BY IDOCK:   59.71 KCAL/MOL
REMARK 922        TOTAL FREE ENERGY PREDICTED BY IDOCK:   96.98 KCAL/MOL
REMARK 923 INTER-LIGAND FREE ENERGY PREDICTED BY IDOCK:   77.22 KCAL/MOL
REMARK 924 INTRA-LIGAND FREE ENERGY PREDICTED BY IDOCK:   19.76 KCAL/MOL
REMARK 927      BINDING AFFINITY PREDICTED BY RF-SCORE:    0.00 PKD
ROOT
HETATM    1  C   UNL     1      -8.456  12.997  74.511  1.00  0.00    10.819 C  
HETATM    2  O   UNL     1      -8.404  12.937  73.088  1.00  0.00    14.303 OA 
ENDROOT
BRANCH   2   3
HETATM    3  C   UNL     1      -9.050  14.043  72.472  1.00  0.00    10.694 C  
BRANCH   3   4
HETATM    4  C   UNL     1      -9.550  13.752  71.046  1.00  0.00     6.077 C  
HETATM    5  O   UNL     1     -10.016  14.638  70.334  1.00  0.00     0.463 OA 
HETATM    6  N   UNL     1      -9.401  12.421  70.640  1.00  0.00     6.012 N  
HETATM    7  H   UNL     1      -9.038  11.709  71.274  1.00  0.00     0.000 HD 
BRANCH   6   8
HETATM    8  C   UNL     1      -9.777  12.104  69.300  1.00  0.00     0.619 A  
HETATM    9  C   UNL     1      -9.712  10.772  68.822  1.00  0.00    -0.192 A  
HETATM   10  C   UNL     1     -10.351  10.394  67.604  1.00  0.00    -0.260 A  
HETATM   11  I   UNL     1      -8.637   9.373  70.054  1.00  0.00    -0.268 I  
HETATM   12  C   UNL     1     -10.281  13.121  68.458  1.00  0.00    -0.215 A  
HETATM   13  C   UNL     1     -11.045  11.414  66.902  1.00  0.00    -0.295 A  
HETATM   14  I   UNL     1     -12.714  10.904  65.627  1.00  0.00     8.967 I  
HETATM   15  I   UNL     1      -9.931  15.168  69.057  1.00  0.00    -0.232 I  
HETATM   16  C   UNL     1     -10.882  12.789  67.229  1.00  0.00    -0.277 A  
BRANCH  10  17
HETATM   17  C   UNL     1     -10.386   8.940  67.201  1.00  0.00    -0.281 C  
HETATM   18  O   UNL     1      -9.477   8.226  67.627  1.00  0.00    -0.145 OA 
HETATM   19  C   UNL     1     -12.567   9.059  65.855  1.00  0.00    14.561 C  
HETATM   20  N   UNL     1     -11.356   8.404  66.332  1.00  0.00     2.117 N  
BRANCH  20  21
HETATM   21  C   UNL     1     -11.168   7.016  65.825  1.00  0.00     3.888 C  
BRANCH  21  22
HETATM   22  C   UNL     1     -10.202   6.180  66.705  1.00  0.00    -0.178 C  
HETATM   23  H   UNL     1     -10.327   4.955  68.261  1.00  0.00     0.000 HD 
HETATM   24  O   UNL     1     -10.919   5.467  67.723  1.00  0.00    -0.034 OA 
BRANCH  22  25
HETATM   25  C   UNL     1      -9.392   5.157  65.893  1.00  0.00    -0.159 C  
HETATM   26  H   UNL     1      -9.749   3.690  64.620  1.00  0.00     0.000 HD 
HETATM   27  O   UNL     1     -10.250   4.323  65.122  1.00  0.00    -0.227 OA 
ENDBRANCH  22  25
ENDBRANCH  21  22
ENDBRANCH  20  21
ENDBRANCH  10  17
BRANCH  16  28
HETATM   28  C   UNL     1     -11.296  13.871  66.281  1.00  0.00    -0.324 C  
HETATM   29  H   UNL     1     -10.246  15.315  67.386  1.00  0.00     0.000 HD 
HETATM   30  O   UNL     1     -12.012  13.649  65.320  1.00  0.00    -0.342 OA 
HETATM   31  N   UNL     1     -10.881  15.163  66.603  1.00  0.00    -0.316 N  
BRANCH  31  32
HETATM   32  C   UNL     1     -11.356  16.296  65.818  1.00  0.00     0.359 C  
BRANCH  32  33
HETATM   33  C   UNL     1     -10.248  16.929  64.972  1.00  0.00     0.548 C  
HETATM   34  O   UNL     1     -10.842  17.832  64.028  1.00  0.00     1.652 OA 
HETATM   35  H   UNL     1     -10.154  18.225  63.503  1.00  0.00     0.000 HD 
BRANCH  33  36
HETATM   36  C   UNL     1      -9.225  17.663  65.856  1.00  0.00     0.104 C  
HETATM   37  O   UNL     1      -9.023  16.991  67.098  1.00  0.00    -0.214 OA 
HETATM   38  H   UNL     1      -8.391  17.444  67.644  1.00  0.00     0.000 HD 
ENDBRANCH  33  36
ENDBRANCH  32  33
ENDBRANCH  31  32
ENDBRANCH  16  28
ENDBRANCH   6   8
ENDBRANCH   3   4
ENDBRANCH   2   3
TORSDOF 11
ENDMDL
