MODEL        1
REMARK 921   NORMALIZED FREE ENERGY PREDICTED BY IDOCK:   -5.47 KCAL/MOL
REMARK 922        TOTAL FREE ENERGY PREDICTED BY IDOCK:   -6.54 KCAL/MOL
REMARK 923 INTER-LIGAND FREE ENERGY PREDICTED BY IDOCK:   -6.11 KCAL/MOL
REMARK 924 INTRA-LIGAND FREE ENERGY PREDICTED BY IDOCK:   -0.43 KCAL/MOL
REMARK 927      BINDING AFFINITY PREDICTED BY RF-SCORE:    0.00 PKD
ROOT
HETATM    1  C   UNL     1     -13.140   9.950  71.232  1.00  0.00    -0.400 C  
HETATM    2  N   UNL     1     -12.644  10.157  69.895  1.00  0.00    -0.519 N  
HETATM    3  C   UNL     1     -11.287  10.290  69.615  1.00  0.00    -0.257 C  
HETATM    4  H   UNL     1     -13.312  10.207  69.125  1.00  0.00     0.000 HD 
HETATM    5  O   UNL     1     -10.417  10.212  70.472  1.00  0.00    -0.261 OA 
ENDROOT
BRANCH   3   6
HETATM    6  C   UNL     1     -10.939  10.560  68.184  1.00  0.00    -0.330 A  
HETATM    7  C   UNL     1     -11.180  11.836  67.602  1.00  0.00    -0.281 A  
HETATM    8  I   UNL     1     -11.725  13.520  68.841  1.00  0.00    -0.380 I  
HETATM    9  C   UNL     1     -10.959  12.059  66.216  1.00  0.00    -0.340 A  
HETATM   10  C   UNL     1     -11.483  13.292  65.570  1.00  0.00    -0.311 C  
HETATM   11  C   UNL     1     -10.360  11.034  65.448  1.00  0.00    -0.268 A  
HETATM   12  C   UNL     1     -10.020   9.792  66.032  1.00  0.00    -0.272 A  
HETATM   13  I   UNL     1      -9.941  11.296  63.350  1.00  0.00    -0.436 I  
HETATM   14  O   UNL     1     -10.566  14.015  64.898  1.00  0.00    -0.379 OA 
HETATM   15  O   UNL     1     -12.655  13.616  65.651  1.00  0.00    -0.479 OA 
HETATM   16  C   UNL     1     -10.411   9.540  67.362  1.00  0.00    -0.272 A  
HETATM   17  I   UNL     1     -10.619   7.451  67.943  1.00  0.00    -0.136 I  
BRANCH  12  18
HETATM   18  N   UNL     1      -9.438   8.803  65.206  1.00  0.00    -0.427 N  
HETATM   19  C   UNL     1      -8.124   8.432  65.097  1.00  0.00    -0.147 C  
HETATM   20  H   UNL     1     -10.088   8.295  64.607  1.00  0.00     0.000 HD 
HETATM   21  O   UNL     1      -7.815   7.685  64.169  1.00  0.00    -0.129 OA 
HETATM   22  C   UNL     1      -7.071   8.953  66.040  1.00  0.00    -0.088 C  
ENDBRANCH  12  18
ENDBRANCH   3   6
TORSDOF 2
ENDMDL
MODEL        2
REMARK 921   NORMALIZED FREE ENERGY PREDICTED BY IDOCK:   -5.39 KCAL/MOL
REMARK 922        TOTAL FREE ENERGY PREDICTED BY IDOCK:   -6.45 KCAL/MOL
REMARK 923 INTER-LIGAND FREE ENERGY PREDICTED BY IDOCK:   -5.99 KCAL/MOL
REMARK 924 INTRA-LIGAND FREE ENERGY PREDICTED BY IDOCK:   -0.46 KCAL/MOL
REMARK 927      BINDING AFFINITY PREDICTED BY RF-SCORE:    0.00 PKD
ROOT
HETATM    1  C   UNL     1     -14.389  15.352  71.877  1.00  0.00    -0.543 C  
HETATM    2  N   UNL     1     -13.740  14.492  70.919  1.00  0.00    -0.458 N  
HETATM    3  C   UNL     1     -12.395  14.150  71.016  1.00  0.00    -0.366 C  
HETATM    4  H   UNL     1     -14.287  14.122  70.141  1.00  0.00     0.000 HD 
HETATM    5  O   UNL     1     -11.674  14.523  71.931  1.00  0.00    -0.223 OA 
ENDROOT
BRANCH   3   6
HETATM    6  C   UNL     1     -11.857  13.297  69.908  1.00  0.00    -0.380 A  
HETATM    7  C   UNL     1     -11.425  13.879  68.684  1.00  0.00    -0.298 A  
HETATM    8  I   UNL     1     -11.202  16.021  68.505  1.00  0.00    -0.271 I  
HETATM    9  C   UNL     1     -11.024  13.064  67.590  1.00  0.00    -0.277 A  
HETATM   10  C   UNL     1     -10.857  13.663  66.239  1.00  0.00    -0.282 C  
HETATM   11  C   UNL     1     -10.924  11.667  67.783  1.00  0.00    -0.233 A  
HETATM   12  C   UNL     1     -11.253  11.079  69.026  1.00  0.00    -0.258 A  
HETATM   13  I   UNL     1     -10.279  10.354  66.199  1.00  0.00    -0.179 I  
HETATM   14  O   UNL     1      -9.661  13.437  65.662  1.00  0.00    -0.201 OA 
HETATM   15  O   UNL     1     -11.741  14.312  65.706  1.00  0.00    -0.344 OA 
HETATM   16  C   UNL     1     -11.813  11.891  70.032  1.00  0.00    -0.328 A  
HETATM   17  I   UNL     1     -13.022  10.889  71.541  1.00  0.00    -0.263 I  
BRANCH  12  18
HETATM   18  N   UNL     1     -11.146   9.675  69.149  1.00  0.00    -0.413 N  
HETATM   19  C   UNL     1     -10.168   8.931  69.755  1.00  0.00    -0.202 C  
HETATM   20  H   UNL     1     -11.905   9.139  68.728  1.00  0.00     0.000 HD 
HETATM   21  O   UNL     1     -10.176   7.715  69.569  1.00  0.00    -0.198 OA 
HETATM   22  C   UNL     1      -9.082   9.571  70.579  1.00  0.00    -0.276 C  
ENDBRANCH  12  18
ENDBRANCH   3   6
TORSDOF 2
ENDMDL
MODEL        3
REMARK 921   NORMALIZED FREE ENERGY PREDICTED BY IDOCK:   -5.38 KCAL/MOL
REMARK 922        TOTAL FREE ENERGY PREDICTED BY IDOCK:   -6.44 KCAL/MOL
REMARK 923 INTER-LIGAND FREE ENERGY PREDICTED BY IDOCK:   -6.00 KCAL/MOL
REMARK 924 INTRA-LIGAND FREE ENERGY PREDICTED BY IDOCK:   -0.44 KCAL/MOL
REMARK 927      BINDING AFFINITY PREDICTED BY RF-SCORE:    0.00 PKD
ROOT
HETATM    1  C   UNL     1     -12.586  15.071  73.530  1.00  0.00    -0.535 C  
HETATM    2  N   UNL     1     -12.037  14.393  72.382  1.00  0.00    -0.095 N  
HETATM    3  C   UNL     1     -12.822  14.003  71.300  1.00  0.00    -0.358 C  
HETATM    4  H   UNL     1     -11.037  14.193  72.362  1.00  0.00     0.000 HD 
HETATM    5  O   UNL     1     -14.021  14.232  71.228  1.00  0.00    -0.313 OA 
ENDROOT
BRANCH   3   6
HETATM    6  C   UNL     1     -12.111  13.256  70.214  1.00  0.00    -0.405 A  
HETATM    7  C   UNL     1     -11.915  11.850  70.303  1.00  0.00    -0.330 A  
HETATM    8  I   UNL     1     -12.931  10.695  71.821  1.00  0.00    -0.215 I  
HETATM    9  C   UNL     1     -11.141  11.158  69.333  1.00  0.00    -0.314 A  
HETATM   10  C   UNL     1     -10.705   9.760  69.590  1.00  0.00    -0.242 C  
HETATM   11  C   UNL     1     -10.684  11.864  68.196  1.00  0.00    -0.215 A  
HETATM   12  C   UNL     1     -10.955  13.243  68.040  1.00  0.00    -0.244 A  
HETATM   13  I   UNL     1      -9.545  10.891  66.646  1.00  0.00    -0.248 I  
HETATM   14  O   UNL     1     -11.030   8.877  68.625  1.00  0.00    -0.055 OA 
HETATM   15  O   UNL     1     -10.102   9.446  70.602  1.00  0.00    -0.250 OA 
HETATM   16  C   UNL     1     -11.571  13.937  69.100  1.00  0.00    -0.313 A  
HETATM   17  I   UNL     1     -11.242  16.088  69.188  1.00  0.00    -0.310 I  
BRANCH  12  18
HETATM   18  N   UNL     1     -10.458  13.895  66.888  1.00  0.00    -0.274 N  
HETATM   19  C   UNL     1     -11.086  14.146  65.697  1.00  0.00    -0.307 C  
HETATM   20  H   UNL     1      -9.495  14.225  66.953  1.00  0.00     0.000 HD 
HETATM   21  O   UNL     1     -10.397  14.550  64.760  1.00  0.00    -0.415 OA 
HETATM   22  C   UNL     1     -12.558  13.889  65.506  1.00  0.00    -0.560 C  
ENDBRANCH  12  18
ENDBRANCH   3   6
TORSDOF 2
ENDMDL
MODEL        4
REMARK 921   NORMALIZED FREE ENERGY PREDICTED BY IDOCK:   -5.18 KCAL/MOL
REMARK 922        TOTAL FREE ENERGY PREDICTED BY IDOCK:   -6.22 KCAL/MOL
REMARK 923 INTER-LIGAND FREE ENERGY PREDICTED BY IDOCK:   -5.79 KCAL/MOL
REMARK 924 INTRA-LIGAND FREE ENERGY PREDICTED BY IDOCK:   -0.42 KCAL/MOL
REMARK 927      BINDING AFFINITY PREDICTED BY RF-SCORE:    0.00 PKD
ROOT
HETATM    1  C   UNL     1     -11.180  15.608  70.803  1.00  0.00    -0.367 C  
HETATM    2  N   UNL     1     -10.785  14.487  69.986  1.00  0.00    -0.466 N  
HETATM    3  C   UNL     1     -11.579  14.002  68.951  1.00  0.00    -0.315 C  
HETATM    4  H   UNL     1      -9.891  14.033  70.175  1.00  0.00     0.000 HD 
HETATM    5  O   UNL     1     -12.649  14.505  68.637  1.00  0.00     0.042 OA 
ENDROOT
BRANCH   3   6
HETATM    6  C   UNL     1     -11.054  12.793  68.237  1.00  0.00    -0.288 A  
HETATM    7  C   UNL     1     -11.075  11.514  68.858  1.00  0.00    -0.232 A  
HETATM    8  I   UNL     1     -12.171  11.202  70.693  1.00  0.00    -0.384 I  
HETATM    9  C   UNL     1     -10.473  10.389  68.231  1.00  0.00    -0.221 A  
HETATM   10  C   UNL     1     -10.246   9.140  69.005  1.00  0.00    -0.207 C  
HETATM   11  C   UNL     1      -9.976  10.528  66.914  1.00  0.00    -0.200 A  
HETATM   12  C   UNL     1     -10.038  11.771  66.242  1.00  0.00    -0.217 A  
HETATM   13  I   UNL     1      -9.090   8.869  65.862  1.00  0.00    -0.254 I  
HETATM   14  O   UNL     1     -10.757   8.025  68.447  1.00  0.00    -0.139 OA 
HETATM   15  O   UNL     1      -9.644   9.137  70.065  1.00  0.00    -0.174 OA 
HETATM   16  C   UNL     1     -10.479  12.904  66.952  1.00  0.00    -0.246 A  
HETATM   17  I   UNL     1      -9.815  14.843  66.216  1.00  0.00    -0.368 I  
BRANCH  12  18
HETATM   18  N   UNL     1      -9.511  11.848  64.932  1.00  0.00    -0.438 N  
HETATM   19  C   UNL     1     -10.170  11.834  63.732  1.00  0.00    -0.399 C  
HETATM   20  H   UNL     1      -8.495  11.924  64.873  1.00  0.00     0.000 HD 
HETATM   21  O   UNL     1      -9.496  11.710  62.709  1.00  0.00    -0.348 OA 
HETATM   22  C   UNL     1     -11.672  11.911  63.650  1.00  0.00    -0.572 C  
ENDBRANCH  12  18
ENDBRANCH   3   6
TORSDOF 2
ENDMDL
MODEL        5
REMARK 921   NORMALIZED FREE ENERGY PREDICTED BY IDOCK:   -5.05 KCAL/MOL
REMARK 922        TOTAL FREE ENERGY PREDICTED BY IDOCK:   -6.07 KCAL/MOL
REMARK 923 INTER-LIGAND FREE ENERGY PREDICTED BY IDOCK:   -5.60 KCAL/MOL
REMARK 924 INTRA-LIGAND FREE ENERGY PREDICTED BY IDOCK:   -0.47 KCAL/MOL
REMARK 927      BINDING AFFINITY PREDICTED BY RF-SCORE:    0.00 PKD
ROOT
HETATM    1  C   UNL     1     -10.416  13.457  68.570  1.00  0.00    -0.252 C  
HETATM    2  N   UNL     1     -10.210  12.062  68.870  1.00  0.00    -0.407 N  
HETATM    3  C   UNL     1     -11.098  11.072  68.459  1.00  0.00    -0.243 C  
HETATM    4  H   UNL     1      -9.383  11.791  69.403  1.00  0.00     0.000 HD 
HETATM    5  O   UNL     1     -12.095  11.305  67.790  1.00  0.00    -0.631 OA 
ENDROOT
BRANCH   3   6
HETATM    6  C   UNL     1     -10.772   9.679  68.903  1.00  0.00    -0.230 A  
HETATM    7  C   UNL     1     -10.184   8.746  68.005  1.00  0.00    -0.213 A  
HETATM    8  I   UNL     1      -9.419   9.398  66.091  1.00  0.00    -0.343 I  
HETATM    9  C   UNL     1      -9.982   7.392  68.387  1.00  0.00    -0.177 A  
HETATM   10  C   UNL     1      -9.641   6.372  67.360  1.00  0.00    -0.120 C  
HETATM   11  C   UNL     1     -10.244   7.016  69.725  1.00  0.00    -0.201 A  
HETATM   12  C   UNL     1     -10.736   7.955  70.661  1.00  0.00    -0.228 A  
HETATM   13  I   UNL     1      -9.923   4.999  70.413  1.00  0.00    -0.293 I  
HETATM   14  O   UNL     1      -8.531   5.654  67.619  1.00  0.00    -0.104 OA 
HETATM   15  O   UNL     1     -10.320   6.210  66.360  1.00  0.00    -0.137 OA 
HETATM   16  C   UNL     1     -11.091   9.241  70.207  1.00  0.00    -0.251 A  
HETATM   17  I   UNL     1     -12.544  10.336  71.403  1.00  0.00    -0.554 I  
BRANCH  12  18
HETATM   18  N   UNL     1     -10.993   7.513  71.979  1.00  0.00    -0.234 N  
HETATM   19  C   UNL     1     -10.169   7.531  73.073  1.00  0.00    -0.306 C  
HETATM   20  H   UNL     1     -11.922   7.124  72.137  1.00  0.00     0.000 HD 
HETATM   21  O   UNL     1     -10.531   6.910  74.073  1.00  0.00    -0.374 OA 
HETATM   22  C   UNL     1      -8.838   8.235  73.053  1.00  0.00    -0.302 C  
ENDBRANCH  12  18
ENDBRANCH   3   6
TORSDOF 2
ENDMDL
MODEL        6
REMARK 921   NORMALIZED FREE ENERGY PREDICTED BY IDOCK:   -4.94 KCAL/MOL
REMARK 922        TOTAL FREE ENERGY PREDICTED BY IDOCK:   -5.95 KCAL/MOL
REMARK 923 INTER-LIGAND FREE ENERGY PREDICTED BY IDOCK:   -5.50 KCAL/MOL
REMARK 924 INTRA-LIGAND FREE ENERGY PREDICTED BY IDOCK:   -0.45 KCAL/MOL
REMARK 927      BINDING AFFINITY PREDICTED BY RF-SCORE:    0.00 PKD
ROOT
HETATM    1  C   UNL     1      -5.845  14.036  70.925  1.00  0.00    -0.207 C  
HETATM    2  N   UNL     1      -6.930  14.102  69.978  1.00  0.00    -0.385 N  
HETATM    3  C   UNL     1      -6.790  13.698  68.654  1.00  0.00    -0.097 C  
HETATM    4  H   UNL     1      -7.834  14.458  70.291  1.00  0.00     0.000 HD 
HETATM    5  O   UNL     1      -5.753  13.231  68.204  1.00  0.00    -0.080 OA 
ENDROOT
BRANCH   3   6
HETATM    6  C   UNL     1      -7.994  13.886  67.783  1.00  0.00    -0.174 A  
HETATM    7  C   UNL     1      -8.877  12.804  67.515  1.00  0.00    -0.187 A  
HETATM    8  I   UNL     1      -8.714  10.956  68.622  1.00  0.00    -0.098 I  
HETATM    9  C   UNL     1      -9.953  12.949  66.597  1.00  0.00    -0.251 A  
HETATM   10  C   UNL     1     -10.681  11.748  66.110  1.00  0.00    -0.277 C  
HETATM   11  C   UNL     1     -10.220  14.229  66.060  1.00  0.00    -0.315 A  
HETATM   12  C   UNL     1      -9.413  15.342  66.393  1.00  0.00    -0.298 A  
HETATM   13  I   UNL     1     -11.859  14.560  64.699  1.00  0.00    -0.358 I  
HETATM   14  O   UNL     1     -12.018  11.790  66.272  1.00  0.00    -0.490 OA 
HETATM   15  O   UNL     1     -10.102  10.801  65.606  1.00  0.00    -0.244 OA 
HETATM   16  C   UNL     1      -8.253  15.129  67.164  1.00  0.00    -0.221 A  
HETATM   17  I   UNL     1      -6.666  16.609  66.975  1.00  0.00    -0.179 I  
BRANCH  12  18
HETATM   18  N   UNL     1      -9.725  16.591  65.811  1.00  0.00    -0.260 N  
HETATM   19  C   UNL     1     -10.284  17.700  66.389  1.00  0.00    -0.364 C  
HETATM   20  H   UNL     1      -9.502  16.680  64.819  1.00  0.00     0.000 HD 
HETATM   21  O   UNL     1     -10.650  18.610  65.645  1.00  0.00    -0.610 OA 
HETATM   22  C   UNL     1     -10.500  17.796  67.877  1.00  0.00    -0.401 C  
ENDBRANCH  12  18
ENDBRANCH   3   6
TORSDOF 2
ENDMDL
MODEL        7
REMARK 921   NORMALIZED FREE ENERGY PREDICTED BY IDOCK:   -4.89 KCAL/MOL
REMARK 922        TOTAL FREE ENERGY PREDICTED BY IDOCK:   -5.89 KCAL/MOL
REMARK 923 INTER-LIGAND FREE ENERGY PREDICTED BY IDOCK:   -5.42 KCAL/MOL
REMARK 924 INTRA-LIGAND FREE ENERGY PREDICTED BY IDOCK:   -0.48 KCAL/MOL
REMARK 927      BINDING AFFINITY PREDICTED BY RF-SCORE:    0.00 PKD
ROOT
HETATM    1  C   UNL     1     -11.038  15.608  70.678  1.00  0.00    -0.359 C  
HETATM    2  N   UNL     1     -10.745  14.341  70.054  1.00  0.00    -0.436 N  
HETATM    3  C   UNL     1     -11.601  13.749  69.130  1.00  0.00    -0.317 C  
HETATM    4  H   UNL     1      -9.878  13.862  70.300  1.00  0.00     0.000 HD 
HETATM    5  O   UNL     1     -12.643  14.269  68.756  1.00  0.00    -0.007 OA 
ENDROOT
BRANCH   3   6
HETATM    6  C   UNL     1     -11.182  12.404  68.620  1.00  0.00    -0.314 A  
HETATM    7  C   UNL     1     -10.638  12.256  67.314  1.00  0.00    -0.224 A  
HETATM    8  I   UNL     1     -10.075  13.993  66.158  1.00  0.00    -0.325 I  
HETATM    9  C   UNL     1     -10.349  10.969  66.785  1.00  0.00    -0.284 A  
HETATM   10  C   UNL     1     -10.060  10.810  65.335  1.00  0.00    -0.285 C  
HETATM   11  C   UNL     1     -10.476   9.842  67.630  1.00  0.00    -0.244 A  
HETATM   12  C   UNL     1     -10.920   9.980  68.965  1.00  0.00    -0.212 A  
HETATM   13  I   UNL     1     -10.014   7.855  66.934  1.00  0.00    -0.315 I  
HETATM   14  O   UNL     1      -8.904  10.179  65.052  1.00  0.00    -0.157 OA 
HETATM   15  O   UNL     1     -10.819  11.224  64.476  1.00  0.00    -0.329 OA 
HETATM   16  C   UNL     1     -11.365  11.243  69.403  1.00  0.00    -0.292 A  
HETATM   17  I   UNL     1     -12.748  11.266  71.085  1.00  0.00    -0.225 I  
BRANCH  12  18
HETATM   18  N   UNL     1     -11.040   8.813  69.753  1.00  0.00    -0.414 N  
HETATM   19  C   UNL     1     -10.152   8.279  70.649  1.00  0.00    -0.191 C  
HETATM   20  H   UNL     1     -11.910   8.294  69.637  1.00  0.00     0.000 HD 
HETATM   21  O   UNL     1     -10.379   7.146  71.074  1.00  0.00    -0.197 OA 
HETATM   22  C   UNL     1      -8.908   9.017  71.069  1.00  0.00    -0.291 C  
ENDBRANCH  12  18
ENDBRANCH   3   6
TORSDOF 2
ENDMDL
MODEL        8
REMARK 921   NORMALIZED FREE ENERGY PREDICTED BY IDOCK:   -4.87 KCAL/MOL
REMARK 922        TOTAL FREE ENERGY PREDICTED BY IDOCK:   -5.87 KCAL/MOL
REMARK 923 INTER-LIGAND FREE ENERGY PREDICTED BY IDOCK:   -5.92 KCAL/MOL
REMARK 924 INTRA-LIGAND FREE ENERGY PREDICTED BY IDOCK:    0.05 KCAL/MOL
REMARK 927      BINDING AFFINITY PREDICTED BY RF-SCORE:    0.00 PKD
ROOT
HETATM    1  C   UNL     1     -10.411  11.449  63.594  1.00  0.00    -0.414 C  
HETATM    2  N   UNL     1     -10.947  11.702  64.908  1.00  0.00    -0.300 N  
HETATM    3  C   UNL     1     -10.135  11.856  66.028  1.00  0.00    -0.231 C  
HETATM    4  H   UNL     1     -11.959  11.771  65.021  1.00  0.00     0.000 HD 
HETATM    5  O   UNL     1      -8.913  11.819  65.977  1.00  0.00    -0.191 OA 
ENDROOT
BRANCH   3   6
HETATM    6  C   UNL     1     -10.849  12.053  67.330  1.00  0.00    -0.290 A  
HETATM    7  C   UNL     1     -11.044  13.357  67.864  1.00  0.00    -0.265 A  
HETATM    8  I   UNL     1     -10.636  15.107  66.663  1.00  0.00    -0.317 I  
HETATM    9  C   UNL     1     -11.616  13.540  69.153  1.00  0.00    -0.359 A  
HETATM   10  C   UNL     1     -11.549  14.870  69.813  1.00  0.00    -0.303 C  
HETATM   11  C   UNL     1     -12.121  12.412  69.840  1.00  0.00    -0.247 A  
HETATM   12  C   UNL     1     -12.025  11.117  69.279  1.00  0.00    -0.351 A  
HETATM   13  I   UNL     1     -13.050  12.594  71.776  1.00  0.00    -0.049 I  
HETATM   14  O   UNL     1     -12.735  15.362  70.222  1.00  0.00    -0.375 OA 
HETATM   15  O   UNL     1     -10.495  15.464  69.965  1.00  0.00    -0.285 OA 
HETATM   16  C   UNL     1     -11.298  10.947  68.085  1.00  0.00    -0.315 A  
HETATM   17  I   UNL     1     -10.491   8.962  67.701  1.00  0.00    -0.161 I  
BRANCH  12  18
HETATM   18  N   UNL     1     -12.535  10.028  70.024  1.00  0.00    -0.506 N  
HETATM   19  C   UNL     1     -11.881   9.186  70.883  1.00  0.00    -0.270 C  
HETATM   20  H   UNL     1     -13.531   9.844  69.903  1.00  0.00     0.000 HD 
HETATM   21  O   UNL     1     -12.481   8.182  71.268  1.00  0.00    -0.307 OA 
HETATM   22  C   UNL     1     -10.458   9.435  71.309  1.00  0.00    -0.385 C  
ENDBRANCH  12  18
ENDBRANCH   3   6
TORSDOF 2
ENDMDL
MODEL        9
REMARK 921   NORMALIZED FREE ENERGY PREDICTED BY IDOCK:   -4.80 KCAL/MOL
REMARK 922        TOTAL FREE ENERGY PREDICTED BY IDOCK:   -5.79 KCAL/MOL
REMARK 923 INTER-LIGAND FREE ENERGY PREDICTED BY IDOCK:   -5.32 KCAL/MOL
REMARK 924 INTRA-LIGAND FREE ENERGY PREDICTED BY IDOCK:   -0.47 KCAL/MOL
REMARK 927      BINDING AFFINITY PREDICTED BY RF-SCORE:    0.00 PKD
ROOT
HETATM    1  C   UNL     1     -13.867   8.768  72.096  1.00  0.00    -0.457 C  
HETATM    2  N   UNL     1     -13.109   8.924  70.880  1.00  0.00    -0.504 N  
HETATM    3  C   UNL     1     -11.737   9.163  70.881  1.00  0.00    -0.284 C  
HETATM    4  H   UNL     1     -13.596   8.856  69.986  1.00  0.00     0.000 HD 
HETATM    5  O   UNL     1     -11.071   9.227  71.905  1.00  0.00    -0.367 OA 
ENDROOT
BRANCH   3   6
HETATM    6  C   UNL     1     -11.108   9.360  69.536  1.00  0.00    -0.134 A  
HETATM    7  C   UNL     1     -11.207  10.609  68.861  1.00  0.00    -0.275 A  
HETATM    8  I   UNL     1     -11.956  12.355  69.889  1.00  0.00    -0.090 I  
HETATM    9  C   UNL     1     -10.712  10.764  67.537  1.00  0.00    -0.312 A  
HETATM   10  C   UNL     1     -11.076  11.969  66.745  1.00  0.00    -0.305 C  
HETATM   11  C   UNL     1      -9.992   9.698  66.950  1.00  0.00    -0.212 A  
HETATM   12  C   UNL     1      -9.797   8.482  67.646  1.00  0.00    -0.174 A  
HETATM   13  I   UNL     1      -9.161   9.855  64.967  1.00  0.00    -0.324 I  
HETATM   14  O   UNL     1     -10.031  12.650  66.236  1.00  0.00    -0.248 OA 
HETATM   15  O   UNL     1     -12.235  12.307  66.578  1.00  0.00    -0.588 OA 
HETATM   16  C   UNL     1     -10.447   8.297  68.882  1.00  0.00    -0.191 A  
HETATM   17  I   UNL     1     -10.803   6.241  69.505  1.00  0.00    -0.474 I  
BRANCH  12  18
HETATM   18  N   UNL     1      -9.080   7.450  66.998  1.00  0.00    -0.131 N  
HETATM   19  C   UNL     1      -7.768   7.085  67.143  1.00  0.00    -0.108 C  
HETATM   20  H   UNL     1      -9.617   6.899  66.328  1.00  0.00     0.000 HD 
HETATM   21  O   UNL     1      -7.303   6.285  66.330  1.00  0.00    -0.081 OA 
HETATM   22  C   UNL     1      -6.894   7.675  68.219  1.00  0.00    -0.067 C  
ENDBRANCH  12  18
ENDBRANCH   3   6
TORSDOF 2
ENDMDL
MODEL       10
REMARK 921   NORMALIZED FREE ENERGY PREDICTED BY IDOCK:   -4.76 KCAL/MOL
REMARK 922        TOTAL FREE ENERGY PREDICTED BY IDOCK:   -5.74 KCAL/MOL
REMARK 923 INTER-LIGAND FREE ENERGY PREDICTED BY IDOCK:   -5.69 KCAL/MOL
REMARK 924 INTRA-LIGAND FREE ENERGY PREDICTED BY IDOCK:   -0.06 KCAL/MOL
REMARK 927      BINDING AFFINITY PREDICTED BY RF-SCORE:    0.00 PKD
ROOT
HETATM    1  C   UNL     1      -5.307  15.596  70.024  1.00  0.00    -0.130 C  
HETATM    2  N   UNL     1      -6.485  15.329  69.237  1.00  0.00    -0.122 N  
HETATM    3  C   UNL     1      -6.417  14.840  67.935  1.00  0.00    -0.162 C  
HETATM    4  H   UNL     1      -7.401  15.506  69.649  1.00  0.00     0.000 HD 
HETATM    5  O   UNL     1      -5.363  14.571  67.376  1.00  0.00    -0.334 OA 
ENDROOT
BRANCH   3   6
HETATM    6  C   UNL     1      -7.729  14.674  67.231  1.00  0.00    -0.198 A  
HETATM    7  C   UNL     1      -8.389  15.789  66.644  1.00  0.00    -0.284 A  
HETATM    8  I   UNL     1      -7.369  17.683  66.440  1.00  0.00    -0.335 I  
HETATM    9  C   UNL     1      -9.686  15.655  66.079  1.00  0.00    -0.378 A  
HETATM   10  C   UNL     1     -10.475  16.868  65.736  1.00  0.00    -0.268 C  
HETATM   11  C   UNL     1     -10.256  14.365  65.980  1.00  0.00    -0.315 A  
HETATM   12  C   UNL     1      -9.571  13.228  66.468  1.00  0.00    -0.264 A  
HETATM   13  I   UNL     1     -12.197  14.055  65.095  1.00  0.00    -0.465 I  
HETATM   14  O   UNL     1     -10.926  16.913  64.467  1.00  0.00    -0.989 OA 
HETATM   15  O   UNL     1     -10.690  17.751  66.549  1.00  0.00    -0.253 OA 
HETATM   16  C   UNL     1      -8.369  13.415  67.179  1.00  0.00    -0.139 A  
HETATM   17  I   UNL     1      -7.795  11.839  68.567  1.00  0.00    -0.047 I  
BRANCH  12  18
HETATM   18  N   UNL     1     -10.201  11.968  66.353  1.00  0.00    -0.212 N  
HETATM   19  C   UNL     1     -11.072  11.354  67.214  1.00  0.00    -0.303 C  
HETATM   20  H   UNL     1      -9.976  11.442  65.509  1.00  0.00     0.000 HD 
HETATM   21  O   UNL     1     -11.341  10.171  67.009  1.00  0.00    -0.122 OA 
HETATM   22  C   UNL     1     -11.645  12.071  68.408  1.00  0.00    -0.368 C  
ENDBRANCH  12  18
ENDBRANCH   3   6
TORSDOF 2
ENDMDL
MODEL       11
REMARK 921   NORMALIZED FREE ENERGY PREDICTED BY IDOCK:   -4.75 KCAL/MOL
REMARK 922        TOTAL FREE ENERGY PREDICTED BY IDOCK:   -5.74 KCAL/MOL
REMARK 923 INTER-LIGAND FREE ENERGY PREDICTED BY IDOCK:   -5.67 KCAL/MOL
REMARK 924 INTRA-LIGAND FREE ENERGY PREDICTED BY IDOCK:   -0.07 KCAL/MOL
REMARK 927      BINDING AFFINITY PREDICTED BY RF-SCORE:    0.00 PKD
ROOT
HETATM    1  C   UNL     1     -11.371   6.332  70.094  1.00  0.00    -0.406 C  
HETATM    2  N   UNL     1     -11.236   7.208  68.957  1.00  0.00    -0.476 N  
HETATM    3  C   UNL     1     -10.147   8.061  68.798  1.00  0.00    -0.195 C  
HETATM    4  H   UNL     1     -11.965   7.202  68.243  1.00  0.00     0.000 HD 
HETATM    5  O   UNL     1      -9.215   8.109  69.588  1.00  0.00    -0.154 OA 
ENDROOT
BRANCH   3   6
HETATM    6  C   UNL     1     -10.186   8.950  67.593  1.00  0.00    -0.296 A  
HETATM    7  C   UNL     1      -9.464   8.613  66.414  1.00  0.00    -0.230 A  
HETATM    8  I   UNL     1      -8.577   6.655  66.193  1.00  0.00    -0.137 I  
HETATM    9  C   UNL     1      -9.404   9.511  65.313  1.00  0.00    -0.317 A  
HETATM   10  C   UNL     1      -8.422   9.280  64.220  1.00  0.00    -0.190 C  
HETATM   11  C   UNL     1     -10.191  10.685  65.349  1.00  0.00    -0.273 A  
HETATM   12  C   UNL     1     -10.995  10.988  66.472  1.00  0.00    -0.166 A  
HETATM   13  I   UNL     1     -10.205  12.082  63.708  1.00  0.00    -0.404 I  
HETATM   14  O   UNL     1      -8.951   9.240  62.982  1.00  0.00    -0.215 OA 
HETATM   15  O   UNL     1      -7.232   9.137  64.440  1.00  0.00    -0.096 OA 
HETATM   16  C   UNL     1     -10.897  10.170  67.615  1.00  0.00    -0.290 A  
HETATM   17  I   UNL     1     -11.464  11.070  69.516  1.00  0.00    -0.454 I  
BRANCH  12  18
HETATM   18  N   UNL     1     -11.747  12.185  66.452  1.00  0.00    -0.370 N  
HETATM   19  C   UNL     1     -11.385  13.441  66.863  1.00  0.00    -0.323 C  
HETATM   20  H   UNL     1     -12.692  12.101  66.079  1.00  0.00     0.000 HD 
HETATM   21  O   UNL     1     -12.269  14.294  66.939  1.00  0.00    -0.438 OA 
HETATM   22  C   UNL     1      -9.971  13.768  67.264  1.00  0.00    -0.239 C  
ENDBRANCH  12  18
ENDBRANCH   3   6
TORSDOF 2
ENDMDL
MODEL       12
REMARK 921   NORMALIZED FREE ENERGY PREDICTED BY IDOCK:   -4.73 KCAL/MOL
REMARK 922        TOTAL FREE ENERGY PREDICTED BY IDOCK:   -5.72 KCAL/MOL
REMARK 923 INTER-LIGAND FREE ENERGY PREDICTED BY IDOCK:   -5.26 KCAL/MOL
REMARK 924 INTRA-LIGAND FREE ENERGY PREDICTED BY IDOCK:   -0.46 KCAL/MOL
REMARK 927      BINDING AFFINITY PREDICTED BY RF-SCORE:    0.00 PKD
ROOT
HETATM    1  C   UNL     1      -6.749  10.398  70.309  1.00  0.00    -0.138 C  
HETATM    2  N   UNL     1      -7.542  11.250  69.457  1.00  0.00    -0.363 N  
HETATM    3  C   UNL     1      -7.371  11.291  68.077  1.00  0.00    -0.092 C  
HETATM    4  H   UNL     1      -8.254  11.844  69.883  1.00  0.00     0.000 HD 
HETATM    5  O   UNL     1      -6.563  10.591  67.482  1.00  0.00    -0.064 OA 
ENDROOT
BRANCH   3   6
HETATM    6  C   UNL     1      -8.232  12.272  67.341  1.00  0.00    -0.178 A  
HETATM    7  C   UNL     1      -7.932  13.663  67.359  1.00  0.00    -0.166 A  
HETATM    8  I   UNL     1      -6.047  14.368  68.145  1.00  0.00    -0.151 I  
HETATM    9  C   UNL     1      -8.811  14.607  66.761  1.00  0.00    -0.269 A  
HETATM   10  C   UNL     1      -8.639  16.058  67.035  1.00  0.00    -0.210 C  
HETATM   11  C   UNL     1      -9.919  14.132  66.022  1.00  0.00    -0.322 A  
HETATM   12  C   UNL     1     -10.177  12.746  65.908  1.00  0.00    -0.287 A  
HETATM   13  I   UNL     1     -11.280  15.483  65.038  1.00  0.00    -0.148 I  
HETATM   14  O   UNL     1      -8.534  16.834  65.938  1.00  0.00    -0.484 OA 
HETATM   15  O   UNL     1      -8.596  16.501  68.170  1.00  0.00    -0.184 OA 
HETATM   16  C   UNL     1      -9.392  11.847  66.656  1.00  0.00    -0.205 A  
HETATM   17  I   UNL     1     -10.278   9.910  67.106  1.00  0.00    -0.297 I  
BRANCH  12  18
HETATM   18  N   UNL     1     -11.310  12.337  65.168  1.00  0.00    -0.320 N  
HETATM   19  C   UNL     1     -11.378  11.856  63.887  1.00  0.00    -0.428 C  
HETATM   20  H   UNL     1     -12.202  12.411  65.656  1.00  0.00     0.000 HD 
HETATM   21  O   UNL     1     -12.493  11.750  63.374  1.00  0.00    -0.555 OA 
HETATM   22  C   UNL     1     -10.140  11.515  63.100  1.00  0.00    -0.395 C  
ENDBRANCH  12  18
ENDBRANCH   3   6
TORSDOF 2
ENDMDL
MODEL       13
REMARK 921   NORMALIZED FREE ENERGY PREDICTED BY IDOCK:   -4.73 KCAL/MOL
REMARK 922        TOTAL FREE ENERGY PREDICTED BY IDOCK:   -5.71 KCAL/MOL
REMARK 923 INTER-LIGAND FREE ENERGY PREDICTED BY IDOCK:   -5.29 KCAL/MOL
REMARK 924 INTRA-LIGAND FREE ENERGY PREDICTED BY IDOCK:   -0.42 KCAL/MOL
REMARK 927      BINDING AFFINITY PREDICTED BY RF-SCORE:    0.00 PKD
ROOT
HETATM    1  C   UNL     1     -12.326  10.630  70.046  1.00  0.00    -0.269 C  
HETATM    2  N   UNL     1     -11.375  11.702  69.881  1.00  0.00    -0.476 N  
HETATM    3  C   UNL     1     -11.310  12.469  68.721  1.00  0.00    -0.293 C  
HETATM    4  H   UNL     1     -10.727  11.905  70.642  1.00  0.00     0.000 HD 
HETATM    5  O   UNL     1     -12.069  12.314  67.774  1.00  0.00    -0.478 OA 
ENDROOT
BRANCH   3   6
HETATM    6  C   UNL     1     -10.228  13.504  68.683  1.00  0.00    -0.193 A  
HETATM    7  C   UNL     1      -8.899  13.156  68.317  1.00  0.00    -0.175 A  
HETATM    8  I   UNL     1      -8.466  11.215  67.470  1.00  0.00    -0.138 I  
HETATM    9  C   UNL     1      -7.847  14.110  68.392  1.00  0.00    -0.143 A  
HETATM   10  C   UNL     1      -6.432  13.665  68.289  1.00  0.00    -0.109 C  
HETATM   11  C   UNL     1      -8.167  15.452  68.702  1.00  0.00    -0.158 A  
HETATM   12  C   UNL     1      -9.500  15.838  68.971  1.00  0.00    -0.247 A  
HETATM   13  I   UNL     1      -6.649  16.980  68.792  1.00  0.00    -0.219 I  
HETATM   14  O   UNL     1      -5.705  14.297  67.346  1.00  0.00    -0.344 OA 
HETATM   15  O   UNL     1      -5.975  12.791  69.005  1.00  0.00    -0.074 OA 
HETATM   16  C   UNL     1     -10.489  14.840  69.061  1.00  0.00    -0.249 A  
HETATM   17  I   UNL     1     -12.261  15.317  70.233  1.00  0.00    -0.393 I  
BRANCH  12  18
HETATM   18  N   UNL     1      -9.751  17.193  69.289  1.00  0.00    -0.127 N  
HETATM   19  C   UNL     1     -10.076  18.231  68.456  1.00  0.00    -0.398 C  
HETATM   20  H   UNL     1      -9.680  17.431  70.278  1.00  0.00     0.000 HD 
HETATM   21  O   UNL     1     -10.053  19.369  68.925  1.00  0.00    -0.428 OA 
HETATM   22  C   UNL     1     -10.398  18.010  67.001  1.00  0.00    -0.377 C  
ENDBRANCH  12  18
ENDBRANCH   3   6
TORSDOF 2
ENDMDL
MODEL       14
REMARK 921   NORMALIZED FREE ENERGY PREDICTED BY IDOCK:   -4.71 KCAL/MOL
REMARK 922        TOTAL FREE ENERGY PREDICTED BY IDOCK:   -5.68 KCAL/MOL
REMARK 923 INTER-LIGAND FREE ENERGY PREDICTED BY IDOCK:   -5.18 KCAL/MOL
REMARK 924 INTRA-LIGAND FREE ENERGY PREDICTED BY IDOCK:   -0.50 KCAL/MOL
REMARK 927      BINDING AFFINITY PREDICTED BY RF-SCORE:    0.00 PKD
ROOT
HETATM    1  C   UNL     1      -7.363  10.154  70.133  1.00  0.00    -0.147 C  
HETATM    2  N   UNL     1      -8.189  10.914  69.229  1.00  0.00    -0.353 N  
HETATM    3  C   UNL     1      -7.725  11.369  67.998  1.00  0.00    -0.114 C  
HETATM    4  H   UNL     1      -9.149  11.126  69.501  1.00  0.00     0.000 HD 
HETATM    5  O   UNL     1      -6.600  11.134  67.579  1.00  0.00    -0.064 OA 
ENDROOT
BRANCH   3   6
HETATM    6  C   UNL     1      -8.688  12.197  67.202  1.00  0.00    -0.190 A  
HETATM    7  C   UNL     1      -9.441  11.622  66.142  1.00  0.00    -0.224 A  
HETATM    8  I   UNL     1      -9.487   9.479  65.865  1.00  0.00    -0.338 I  
HETATM    9  C   UNL     1     -10.266  12.428  65.311  1.00  0.00    -0.306 A  
HETATM   10  C   UNL     1     -10.812  11.874  64.044  1.00  0.00    -0.379 C  
HETATM   11  C   UNL     1     -10.440  13.792  65.644  1.00  0.00    -0.305 A  
HETATM   12  C   UNL     1      -9.777  14.359  66.756  1.00  0.00    -0.270 A  
HETATM   13  I   UNL     1     -11.710  15.083  64.475  1.00  0.00    -0.067 I  
HETATM   14  O   UNL     1     -12.149  11.974  63.910  1.00  0.00    -0.440 OA 
HETATM   15  O   UNL     1     -10.095  11.367  63.198  1.00  0.00    -0.351 OA 
HETATM   16  C   UNL     1      -8.832  13.579  67.452  1.00  0.00    -0.221 A  
HETATM   17  I   UNL     1      -7.300  14.656  68.563  1.00  0.00    -0.152 I  
BRANCH  12  18
HETATM   18  N   UNL     1      -9.982  15.732  67.026  1.00  0.00    -0.235 N  
HETATM   19  C   UNL     1     -10.814  16.319  67.942  1.00  0.00    -0.330 C  
HETATM   20  H   UNL     1      -9.432  16.376  66.458  1.00  0.00     0.000 HD 
HETATM   21  O   UNL     1     -10.980  17.536  67.867  1.00  0.00    -0.323 OA 
HETATM   22  C   UNL     1     -11.552  15.510  68.977  1.00  0.00    -0.377 C  
ENDBRANCH  12  18
ENDBRANCH   3   6
TORSDOF 2
ENDMDL
MODEL       15
REMARK 921   NORMALIZED FREE ENERGY PREDICTED BY IDOCK:   -4.67 KCAL/MOL
REMARK 922        TOTAL FREE ENERGY PREDICTED BY IDOCK:   -5.65 KCAL/MOL
REMARK 923 INTER-LIGAND FREE ENERGY PREDICTED BY IDOCK:   -5.59 KCAL/MOL
REMARK 924 INTRA-LIGAND FREE ENERGY PREDICTED BY IDOCK:   -0.06 KCAL/MOL
REMARK 927      BINDING AFFINITY PREDICTED BY RF-SCORE:    0.00 PKD
ROOT
HETATM    1  C   UNL     1      -8.952  19.002  67.742  1.00  0.00    -0.293 C  
HETATM    2  N   UNL     1      -9.145  17.574  67.705  1.00  0.00    -0.241 N  
HETATM    3  C   UNL     1      -8.658  16.783  66.668  1.00  0.00    -0.252 C  
HETATM    4  H   UNL     1      -9.657  17.127  68.466  1.00  0.00     0.000 HD 
HETATM    5  O   UNL     1      -8.008  17.231  65.734  1.00  0.00    -0.511 OA 
ENDROOT
BRANCH   3   6
HETATM    6  C   UNL     1      -8.995  15.325  66.746  1.00  0.00    -0.291 A  
HETATM    7  C   UNL     1      -8.068  14.390  67.284  1.00  0.00    -0.187 A  
HETATM    8  I   UNL     1      -6.300  15.073  68.323  1.00  0.00    -0.170 I  
HETATM    9  C   UNL     1      -8.337  12.995  67.252  1.00  0.00    -0.186 A  
HETATM   10  C   UNL     1      -7.251  12.022  67.548  1.00  0.00    -0.127 C  
HETATM   11  C   UNL     1      -9.604  12.556  66.805  1.00  0.00    -0.231 A  
HETATM   12  C   UNL     1     -10.578  13.479  66.359  1.00  0.00    -0.283 A  
HETATM   13  I   UNL     1     -10.123  10.464  66.766  1.00  0.00    -0.281 I  
HETATM   14  O   UNL     1      -7.538  11.127  68.513  1.00  0.00    -0.105 OA 
HETATM   15  O   UNL     1      -6.185  12.045  66.957  1.00  0.00    -0.151 OA 
HETATM   16  C   UNL     1     -10.219  14.836  66.238  1.00  0.00    -0.298 A  
HETATM   17  I   UNL     1     -11.381  16.037  64.841  1.00  0.00     0.192 I  
BRANCH  12  18
HETATM   18  N   UNL     1     -11.820  12.975  65.911  1.00  0.00    -0.394 N  
HETATM   19  C   UNL     1     -12.177  12.541  64.661  1.00  0.00    -0.453 C  
HETATM   20  H   UNL     1     -12.554  12.929  66.617  1.00  0.00     0.000 HD 
HETATM   21  O   UNL     1     -13.372  12.331  64.448  1.00  0.00    -0.786 OA 
HETATM   22  C   UNL     1     -11.164  12.373  63.560  1.00  0.00    -0.540 C  
ENDBRANCH  12  18
ENDBRANCH   3   6
TORSDOF 2
ENDMDL
MODEL       16
REMARK 921   NORMALIZED FREE ENERGY PREDICTED BY IDOCK:   -4.67 KCAL/MOL
REMARK 922        TOTAL FREE ENERGY PREDICTED BY IDOCK:   -5.64 KCAL/MOL
REMARK 923 INTER-LIGAND FREE ENERGY PREDICTED BY IDOCK:   -5.22 KCAL/MOL
REMARK 924 INTRA-LIGAND FREE ENERGY PREDICTED BY IDOCK:   -0.42 KCAL/MOL
REMARK 927      BINDING AFFINITY PREDICTED BY RF-SCORE:    0.00 PKD
ROOT
HETATM    1  C   UNL     1     -10.421  13.162  68.743  1.00  0.00    -0.167 C  
HETATM    2  N   UNL     1     -10.213  11.771  69.060  1.00  0.00    -0.408 N  
HETATM    3  C   UNL     1     -11.061  10.767  68.601  1.00  0.00    -0.259 C  
HETATM    4  H   UNL     1      -9.415  11.514  69.641  1.00  0.00     0.000 HD 
HETATM    5  O   UNL     1     -12.021  10.983  67.875  1.00  0.00    -0.620 OA 
ENDROOT
BRANCH   3   6
HETATM    6  C   UNL     1     -10.742   9.380  69.068  1.00  0.00    -0.209 A  
HETATM    7  C   UNL     1     -11.239   8.896  70.310  1.00  0.00    -0.197 A  
HETATM    8  I   UNL     1     -12.743  10.004  71.396  1.00  0.00    -0.593 I  
HETATM    9  C   UNL     1     -10.843   7.625  70.809  1.00  0.00    -0.246 A  
HETATM   10  C   UNL     1     -11.132   7.259  72.222  1.00  0.00    -0.260 C  
HETATM   11  C   UNL     1     -10.059   6.785  69.986  1.00  0.00    -0.184 A  
HETATM   12  C   UNL     1      -9.639   7.209  68.704  1.00  0.00    -0.140 A  
HETATM   13  I   UNL     1      -9.450   4.821  70.635  1.00  0.00    -0.289 I  
HETATM   14  O   UNL     1     -11.794   6.097  72.383  1.00  0.00    -0.303 OA 
HETATM   15  O   UNL     1     -10.793   7.966  73.155  1.00  0.00    -0.375 OA 
HETATM   16  C   UNL     1      -9.898   8.537  68.312  1.00  0.00    -0.169 A  
HETATM   17  I   UNL     1      -8.595   9.381  66.785  1.00  0.00    -0.148 I  
BRANCH  12  18
HETATM   18  N   UNL     1      -8.844   6.327  67.936  1.00  0.00    -0.113 N  
HETATM   19  C   UNL     1      -9.229   5.429  66.976  1.00  0.00    -0.113 C  
HETATM   20  H   UNL     1      -7.842   6.365  68.125  1.00  0.00     0.000 HD 
HETATM   21  O   UNL     1      -8.389   4.622  66.578  1.00  0.00    -0.107 OA 
HETATM   22  C   UNL     1     -10.641   5.383  66.454  1.00  0.00    -0.322 C  
ENDBRANCH  12  18
ENDBRANCH   3   6
TORSDOF 2
ENDMDL
MODEL       17
REMARK 921   NORMALIZED FREE ENERGY PREDICTED BY IDOCK:   -4.67 KCAL/MOL
REMARK 922        TOTAL FREE ENERGY PREDICTED BY IDOCK:   -5.64 KCAL/MOL
REMARK 923 INTER-LIGAND FREE ENERGY PREDICTED BY IDOCK:   -5.27 KCAL/MOL
REMARK 924 INTRA-LIGAND FREE ENERGY PREDICTED BY IDOCK:   -0.37 KCAL/MOL
REMARK 927      BINDING AFFINITY PREDICTED BY RF-SCORE:    0.00 PKD
ROOT
HETATM    1  C   UNL     1     -10.509   7.688  66.935  1.00  0.00    -0.318 C  
HETATM    2  N   UNL     1     -10.984   8.908  67.539  1.00  0.00    -0.449 N  
HETATM    3  C   UNL     1     -10.124   9.834  68.123  1.00  0.00    -0.165 C  
HETATM    4  H   UNL     1     -11.985   9.099  67.539  1.00  0.00     0.000 HD 
HETATM    5  O   UNL     1      -8.908   9.700  68.140  1.00  0.00    -0.120 OA 
ENDROOT
BRANCH   3   6
HETATM    6  C   UNL     1     -10.778  11.021  68.761  1.00  0.00    -0.240 A  
HETATM    7  C   UNL     1     -11.418  10.908  70.027  1.00  0.00    -0.329 A  
HETATM    8  I   UNL     1     -11.169   9.129  71.227  1.00  0.00    -0.485 I  
HETATM    9  C   UNL     1     -12.139  12.001  70.580  1.00  0.00    -0.369 A  
HETATM   10  C   UNL     1     -13.035  11.785  71.747  1.00  0.00    -0.361 C  
HETATM   11  C   UNL     1     -12.094  13.251  69.920  1.00  0.00    -0.308 A  
HETATM   12  C   UNL     1     -11.378  13.408  68.710  1.00  0.00    -0.292 A  
HETATM   13  I   UNL     1     -13.114  14.979  70.706  1.00  0.00    -0.274 I  
HETATM   14  O   UNL     1     -12.800  12.593  72.800  1.00  0.00     0.075 OA 
HETATM   15  O   UNL     1     -13.910  10.936  71.742  1.00  0.00     0.061 OA 
HETATM   16  C   UNL     1     -10.822  12.267  68.099  1.00  0.00    -0.227 A  
HETATM   17  I   UNL     1     -10.475  12.377  65.952  1.00  0.00    -0.318 I  
BRANCH  12  18
HETATM   18  N   UNL     1     -11.384  14.680  68.092  1.00  0.00    -0.288 N  
HETATM   19  C   UNL     1     -10.545  15.743  68.293  1.00  0.00    -0.271 C  
HETATM   20  H   UNL     1     -12.117  14.825  67.398  1.00  0.00     0.000 HD 
HETATM   21  O   UNL     1     -10.858  16.822  67.790  1.00  0.00    -0.341 OA 
HETATM   22  C   UNL     1      -9.307  15.628  69.144  1.00  0.00    -0.252 C  
ENDBRANCH  12  18
ENDBRANCH   3   6
TORSDOF 2
ENDMDL
MODEL       18
REMARK 921   NORMALIZED FREE ENERGY PREDICTED BY IDOCK:   -4.65 KCAL/MOL
REMARK 922        TOTAL FREE ENERGY PREDICTED BY IDOCK:   -5.62 KCAL/MOL
REMARK 923 INTER-LIGAND FREE ENERGY PREDICTED BY IDOCK:   -5.15 KCAL/MOL
REMARK 924 INTRA-LIGAND FREE ENERGY PREDICTED BY IDOCK:   -0.47 KCAL/MOL
REMARK 927      BINDING AFFINITY PREDICTED BY RF-SCORE:    0.00 PKD
ROOT
HETATM    1  C   UNL     1     -10.649  18.787  67.228  1.00  0.00    -0.442 C  
HETATM    2  N   UNL     1     -10.182  17.473  67.594  1.00  0.00    -0.328 N  
HETATM    3  C   UNL     1      -9.594  16.608  66.676  1.00  0.00    -0.263 C  
HETATM    4  H   UNL     1     -10.287  17.166  68.561  1.00  0.00     0.000 HD 
HETATM    5  O   UNL     1      -9.401  16.906  65.505  1.00  0.00    -0.472 OA 
ENDROOT
BRANCH   3   6
HETATM    6  C   UNL     1      -9.218  15.256  67.201  1.00  0.00    -0.223 A  
HETATM    7  C   UNL     1      -7.881  14.973  67.597  1.00  0.00    -0.168 A  
HETATM    8  I   UNL     1      -6.433  16.566  67.787  1.00  0.00    -0.216 I  
HETATM    9  C   UNL     1      -7.497  13.661  67.985  1.00  0.00    -0.133 A  
HETATM   10  C   UNL     1      -6.056  13.317  68.114  1.00  0.00    -0.108 C  
HETATM   11  C   UNL     1      -8.496  12.668  68.108  1.00  0.00    -0.177 A  
HETATM   12  C   UNL     1      -9.848  12.956  67.814  1.00  0.00    -0.221 A  
HETATM   13  I   UNL     1      -8.019  10.661  68.736  1.00  0.00    -0.147 I  
HETATM   14  O   UNL     1      -5.704  12.783  69.300  1.00  0.00    -0.072 OA 
HETATM   15  O   UNL     1      -5.261  13.510  67.210  1.00  0.00    -0.335 OA 
HETATM   16  C   UNL     1     -10.169  14.214  67.265  1.00  0.00    -0.256 A  
HETATM   17  I   UNL     1     -12.007  14.338  66.104  1.00  0.00    -0.330 I  
BRANCH  12  18
HETATM   18  N   UNL     1     -10.796  11.915  67.942  1.00  0.00    -0.203 N  
HETATM   19  C   UNL     1     -11.737  11.718  68.919  1.00  0.00    -0.323 C  
HETATM   20  H   UNL     1     -10.777  11.212  67.204  1.00  0.00     0.000 HD 
HETATM   21  O   UNL     1     -12.323  10.635  68.937  1.00  0.00    -0.358 OA 
HETATM   22  C   UNL     1     -12.017  12.756  69.973  1.00  0.00    -0.371 C  
ENDBRANCH  12  18
ENDBRANCH   3   6
TORSDOF 2
ENDMDL
MODEL       19
REMARK 921   NORMALIZED FREE ENERGY PREDICTED BY IDOCK:   -4.62 KCAL/MOL
REMARK 922        TOTAL FREE ENERGY PREDICTED BY IDOCK:   -5.59 KCAL/MOL
REMARK 923 INTER-LIGAND FREE ENERGY PREDICTED BY IDOCK:   -5.52 KCAL/MOL
REMARK 924 INTRA-LIGAND FREE ENERGY PREDICTED BY IDOCK:   -0.06 KCAL/MOL
REMARK 927      BINDING AFFINITY PREDICTED BY RF-SCORE:    0.00 PKD
ROOT
HETATM    1  C   UNL     1     -10.494   6.312  66.749  1.00  0.00    -0.244 C  
HETATM    2  N   UNL     1     -10.856   7.662  67.105  1.00  0.00    -0.514 N  
HETATM    3  C   UNL     1      -9.911   8.673  67.253  1.00  0.00    -0.197 C  
HETATM    4  H   UNL     1     -11.841   7.883  67.254  1.00  0.00     0.000 HD 
HETATM    5  O   UNL     1      -8.715   8.503  67.063  1.00  0.00    -0.122 OA 
ENDROOT
BRANCH   3   6
HETATM    6  C   UNL     1     -10.443  10.005  67.686  1.00  0.00    -0.297 A  
HETATM    7  C   UNL     1     -10.494  11.099  66.779  1.00  0.00    -0.252 A  
HETATM    8  I   UNL     1     -10.139  10.793  64.669  1.00  0.00    -0.330 I  
HETATM    9  C   UNL     1     -10.888  12.393  67.217  1.00  0.00    -0.279 A  
HETATM   10  C   UNL     1     -10.661  13.574  66.343  1.00  0.00    -0.287 C  
HETATM   11  C   UNL     1     -11.366  12.547  68.539  1.00  0.00    -0.297 A  
HETATM   12  C   UNL     1     -11.418  11.448  69.427  1.00  0.00    -0.310 A  
HETATM   13  I   UNL     1     -12.033  14.459  69.280  1.00  0.00    -0.266 I  
HETATM   14  O   UNL     1     -11.756  14.323  66.105  1.00  0.00    -0.365 OA 
HETATM   15  O   UNL     1      -9.564  13.835  65.880  1.00  0.00    -0.233 OA 
HETATM   16  C   UNL     1     -10.857  10.221  69.019  1.00  0.00    -0.230 A  
HETATM   17  I   UNL     1     -10.221   8.861  70.596  1.00  0.00    -0.352 I  
BRANCH  12  18
HETATM   18  N   UNL     1     -11.892  11.671  70.739  1.00  0.00    -0.417 N  
HETATM   19  C   UNL     1     -12.978  11.126  71.371  1.00  0.00    -0.403 C  
HETATM   20  H   UNL     1     -11.349  12.333  71.294  1.00  0.00     0.000 HD 
HETATM   21  O   UNL     1     -13.320  11.616  72.448  1.00  0.00    -0.314 OA 
HETATM   22  C   UNL     1     -13.771  10.002  70.758  1.00  0.00     0.184 C  
ENDBRANCH  12  18
ENDBRANCH   3   6
TORSDOF 2
ENDMDL
MODEL       20
REMARK 921   NORMALIZED FREE ENERGY PREDICTED BY IDOCK:   -4.62 KCAL/MOL
REMARK 922        TOTAL FREE ENERGY PREDICTED BY IDOCK:   -5.58 KCAL/MOL
REMARK 923 INTER-LIGAND FREE ENERGY PREDICTED BY IDOCK:   -5.15 KCAL/MOL
REMARK 924 INTRA-LIGAND FREE ENERGY PREDICTED BY IDOCK:   -0.44 KCAL/MOL
REMARK 927      BINDING AFFINITY PREDICTED BY RF-SCORE:    0.00 PKD
ROOT
HETATM    1  C   UNL     1      -7.751   6.593  63.039  1.00  0.00    -0.102 C  
HETATM    2  N   UNL     1      -8.503   7.332  64.022  1.00  0.00    -0.347 N  
HETATM    3  C   UNL     1      -7.976   8.433  64.691  1.00  0.00    -0.147 C  
HETATM    4  H   UNL     1      -9.456   7.037  64.235  1.00  0.00     0.000 HD 
HETATM    5  O   UNL     1      -6.855   8.873  64.474  1.00  0.00    -0.079 OA 
ENDROOT
BRANCH   3   6
HETATM    6  C   UNL     1      -8.863   9.054  65.726  1.00  0.00    -0.216 A  
HETATM    7  C   UNL     1      -9.616  10.225  65.434  1.00  0.00    -0.251 A  
HETATM    8  I   UNL     1      -9.783  10.943  63.403  1.00  0.00    -0.416 I  
HETATM    9  C   UNL     1     -10.366  10.882  66.447  1.00  0.00    -0.306 A  
HETATM   10  C   UNL     1     -10.906  12.246  66.205  1.00  0.00    -0.279 C  
HETATM   11  C   UNL     1     -10.468  10.275  67.720  1.00  0.00    -0.226 A  
HETATM   12  C   UNL     1      -9.807   9.057  68.000  1.00  0.00    -0.166 A  
HETATM   13  I   UNL     1     -11.622  11.170  69.306  1.00  0.00    -0.474 I  
HETATM   14  O   UNL     1     -12.230  12.379  66.417  1.00  0.00    -0.604 OA 
HETATM   15  O   UNL     1     -10.195  13.167  65.838  1.00  0.00    -0.282 OA 
HETATM   16  C   UNL     1      -8.932   8.524  67.034  1.00  0.00    -0.137 A  
HETATM   17  I   UNL     1      -7.371   7.187  67.754  1.00  0.00    -0.102 I  
BRANCH  12  18
HETATM   18  N   UNL     1      -9.936   8.510  69.297  1.00  0.00    -0.190 N  
HETATM   19  C   UNL     1     -10.634   7.404  69.704  1.00  0.00    -0.236 C  
HETATM   20  H   UNL     1      -9.440   9.011  70.035  1.00  0.00     0.000 HD 
HETATM   21  O   UNL     1     -10.772   7.227  70.914  1.00  0.00    -0.229 OA 
HETATM   22  C   UNL     1     -11.264   6.456  68.717  1.00  0.00    -0.358 C  
ENDBRANCH  12  18
ENDBRANCH   3   6
TORSDOF 2
ENDMDL
MODEL       21
REMARK 921   NORMALIZED FREE ENERGY PREDICTED BY IDOCK:   -4.61 KCAL/MOL
REMARK 922        TOTAL FREE ENERGY PREDICTED BY IDOCK:   -5.58 KCAL/MOL
REMARK 923 INTER-LIGAND FREE ENERGY PREDICTED BY IDOCK:   -5.69 KCAL/MOL
REMARK 924 INTRA-LIGAND FREE ENERGY PREDICTED BY IDOCK:    0.11 KCAL/MOL
REMARK 927      BINDING AFFINITY PREDICTED BY RF-SCORE:    0.00 PKD
ROOT
HETATM    1  C   UNL     1     -12.124  15.310  73.297  1.00  0.00    -0.437 C  
HETATM    2  N   UNL     1     -11.721  14.723  72.043  1.00  0.00    -0.384 N  
HETATM    3  C   UNL     1     -12.641  14.308  71.084  1.00  0.00    -0.362 C  
HETATM    4  H   UNL     1     -10.726  14.606  71.853  1.00  0.00     0.000 HD 
HETATM    5  O   UNL     1     -13.850  14.439  71.217  1.00  0.00    -0.349 OA 
ENDROOT
BRANCH   3   6
HETATM    6  C   UNL     1     -12.063  13.663  69.862  1.00  0.00    -0.406 A  
HETATM    7  C   UNL     1     -11.878  12.254  69.800  1.00  0.00    -0.318 A  
HETATM    8  I   UNL     1     -12.737  10.967  71.308  1.00  0.00    -0.405 I  
HETATM    9  C   UNL     1     -11.223  11.652  68.690  1.00  0.00    -0.308 A  
HETATM   10  C   UNL     1     -10.781  10.234  68.769  1.00  0.00    -0.219 C  
HETATM   11  C   UNL     1     -10.884  12.459  67.580  1.00  0.00    -0.225 A  
HETATM   12  C   UNL     1     -11.152  13.847  67.582  1.00  0.00    -0.277 A  
HETATM   13  I   UNL     1      -9.934  11.629  65.832  1.00  0.00    -0.300 I  
HETATM   14  O   UNL     1     -11.221   9.446  67.769  1.00  0.00    -0.040 OA 
HETATM   15  O   UNL     1     -10.076   9.826  69.676  1.00  0.00    -0.200 OA 
HETATM   16  C   UNL     1     -11.639  14.442  68.763  1.00  0.00    -0.315 A  
HETATM   17  I   UNL     1     -11.272  16.574  69.011  1.00  0.00     0.085 I  
BRANCH  12  18
HETATM   18  N   UNL     1     -10.774  14.601  66.447  1.00  0.00    -0.303 N  
HETATM   19  C   UNL     1      -9.605  15.272  66.204  1.00  0.00    -0.321 C  
HETATM   20  H   UNL     1     -11.472  14.654  65.705  1.00  0.00     0.000 HD 
HETATM   21  O   UNL     1      -9.570  16.029  65.233  1.00  0.00    -0.368 OA 
HETATM   22  C   UNL     1      -8.411  15.142  67.113  1.00  0.00    -0.238 C  
ENDBRANCH  12  18
ENDBRANCH   3   6
TORSDOF 2
ENDMDL
MODEL       22
REMARK 921   NORMALIZED FREE ENERGY PREDICTED BY IDOCK:   -4.59 KCAL/MOL
REMARK 922        TOTAL FREE ENERGY PREDICTED BY IDOCK:   -5.56 KCAL/MOL
REMARK 923 INTER-LIGAND FREE ENERGY PREDICTED BY IDOCK:   -5.11 KCAL/MOL
REMARK 924 INTRA-LIGAND FREE ENERGY PREDICTED BY IDOCK:   -0.45 KCAL/MOL
REMARK 927      BINDING AFFINITY PREDICTED BY RF-SCORE:    0.00 PKD
ROOT
HETATM    1  C   UNL     1      -9.710  10.429  63.916  1.00  0.00    -0.305 C  
HETATM    2  N   UNL     1     -10.303  10.667  65.209  1.00  0.00    -0.279 N  
HETATM    3  C   UNL     1      -9.630  11.340  66.225  1.00  0.00    -0.209 C  
HETATM    4  H   UNL     1     -11.249  10.329  65.386  1.00  0.00     0.000 HD 
HETATM    5  O   UNL     1      -8.507  11.805  66.089  1.00  0.00    -0.093 OA 
ENDROOT
BRANCH   3   6
HETATM    6  C   UNL     1     -10.360  11.453  67.528  1.00  0.00    -0.224 A  
HETATM    7  C   UNL     1     -10.304  10.405  68.488  1.00  0.00    -0.176 A  
HETATM    8  I   UNL     1      -8.897   8.781  68.259  1.00  0.00    -0.143 I  
HETATM    9  C   UNL     1     -11.087  10.458  69.673  1.00  0.00    -0.328 A  
HETATM   10  C   UNL     1     -11.242   9.242  70.517  1.00  0.00    -0.265 C  
HETATM   11  C   UNL     1     -11.818  11.635  69.954  1.00  0.00    -0.358 A  
HETATM   12  C   UNL     1     -11.807  12.729  69.058  1.00  0.00    -0.297 A  
HETATM   13  I   UNL     1     -12.997  11.829  71.749  1.00  0.00     0.118 I  
HETATM   14  O   UNL     1     -10.921   9.408  71.815  1.00  0.00    -0.363 OA 
HETATM   15  O   UNL     1     -11.627   8.181  70.057  1.00  0.00    -0.021 OA 
HETATM   16  C   UNL     1     -11.164  12.578  67.814  1.00  0.00    -0.269 A  
HETATM   17  I   UNL     1     -11.830  13.883  66.202  1.00  0.00    -0.501 I  
BRANCH  12  18
HETATM   18  N   UNL     1     -12.570  13.872  69.390  1.00  0.00    -0.332 N  
HETATM   19  C   UNL     1     -12.164  15.047  69.963  1.00  0.00    -0.328 C  
HETATM   20  H   UNL     1     -13.564  13.812  69.172  1.00  0.00     0.000 HD 
HETATM   21  O   UNL     1     -13.035  15.829  70.346  1.00  0.00    -0.409 OA 
HETATM   22  C   UNL     1     -10.707  15.364  70.176  1.00  0.00    -0.326 C  
ENDBRANCH  12  18
ENDBRANCH   3   6
TORSDOF 2
ENDMDL
MODEL       23
REMARK 921   NORMALIZED FREE ENERGY PREDICTED BY IDOCK:   -4.59 KCAL/MOL
REMARK 922        TOTAL FREE ENERGY PREDICTED BY IDOCK:   -5.55 KCAL/MOL
REMARK 923 INTER-LIGAND FREE ENERGY PREDICTED BY IDOCK:   -5.14 KCAL/MOL
REMARK 924 INTRA-LIGAND FREE ENERGY PREDICTED BY IDOCK:   -0.42 KCAL/MOL
REMARK 927      BINDING AFFINITY PREDICTED BY RF-SCORE:    0.00 PKD
ROOT
HETATM    1  C   UNL     1     -14.358   7.479  71.381  1.00  0.00    -0.394 C  
HETATM    2  N   UNL     1     -12.969   7.754  71.109  1.00  0.00    -0.537 N  
HETATM    3  C   UNL     1     -12.293   8.825  71.689  1.00  0.00    -0.337 C  
HETATM    4  H   UNL     1     -12.463   7.143  70.468  1.00  0.00     0.000 HD 
HETATM    5  O   UNL     1     -12.814   9.587  72.492  1.00  0.00    -0.324 OA 
ENDROOT
BRANCH   3   6
HETATM    6  C   UNL     1     -10.871   9.010  71.257  1.00  0.00    -0.385 A  
HETATM    7  C   UNL     1      -9.805   8.409  71.980  1.00  0.00    -0.284 A  
HETATM    8  I   UNL     1     -10.209   6.933  73.506  1.00  0.00    -0.404 I  
HETATM    9  C   UNL     1      -8.450   8.678  71.642  1.00  0.00    -0.230 A  
HETATM   10  C   UNL     1      -7.360   8.282  72.573  1.00  0.00    -0.109 C  
HETATM   11  C   UNL     1      -8.177   9.442  70.484  1.00  0.00    -0.189 A  
HETATM   12  C   UNL     1      -9.226   9.966  69.694  1.00  0.00    -0.227 A  
HETATM   13  I   UNL     1      -6.156   9.862  69.863  1.00  0.00    -0.077 I  
HETATM   14  O   UNL     1      -6.390   7.526  72.022  1.00  0.00    -0.042 OA 
HETATM   15  O   UNL     1      -7.355   8.620  73.744  1.00  0.00    -0.349 OA 
HETATM   16  C   UNL     1     -10.551   9.830  70.152  1.00  0.00    -0.285 A  
HETATM   17  I   UNL     1     -11.998  11.279  69.410  1.00  0.00    -0.272 I  
BRANCH  12  18
HETATM   18  N   UNL     1      -8.886  10.734  68.557  1.00  0.00    -0.143 N  
HETATM   19  C   UNL     1      -8.933  10.387  67.233  1.00  0.00    -0.135 C  
HETATM   20  H   UNL     1      -8.559  11.680  68.750  1.00  0.00     0.000 HD 
HETATM   21  O   UNL     1      -8.400  11.146  66.423  1.00  0.00    -0.161 OA 
HETATM   22  C   UNL     1      -9.563   9.099  66.772  1.00  0.00    -0.253 C  
ENDBRANCH  12  18
ENDBRANCH   3   6
TORSDOF 2
ENDMDL
MODEL       24
REMARK 921   NORMALIZED FREE ENERGY PREDICTED BY IDOCK:   -4.58 KCAL/MOL
REMARK 922        TOTAL FREE ENERGY PREDICTED BY IDOCK:   -5.55 KCAL/MOL
REMARK 923 INTER-LIGAND FREE ENERGY PREDICTED BY IDOCK:   -5.08 KCAL/MOL
REMARK 924 INTRA-LIGAND FREE ENERGY PREDICTED BY IDOCK:   -0.47 KCAL/MOL
REMARK 927      BINDING AFFINITY PREDICTED BY RF-SCORE:    0.00 PKD
ROOT
HETATM    1  C   UNL     1      -6.818  10.470  62.621  1.00  0.00    -0.097 C  
HETATM    2  N   UNL     1      -7.551  10.512  63.861  1.00  0.00    -0.345 N  
HETATM    3  C   UNL     1      -8.818   9.950  63.998  1.00  0.00    -0.228 C  
HETATM    4  H   UNL     1      -7.127  10.970  64.668  1.00  0.00     0.000 HD 
HETATM    5  O   UNL     1      -9.386   9.355  63.093  1.00  0.00    -0.049 OA 
ENDROOT
BRANCH   3   6
HETATM    6  C   UNL     1      -9.471  10.131  65.334  1.00  0.00    -0.296 A  
HETATM    7  C   UNL     1      -9.372   9.127  66.336  1.00  0.00    -0.204 A  
HETATM    8  I   UNL     1      -7.998   7.476  66.103  1.00  0.00    -0.130 I  
HETATM    9  C   UNL     1     -10.087   9.244  67.560  1.00  0.00    -0.273 A  
HETATM   10  C   UNL     1     -10.207   8.070  68.465  1.00  0.00    -0.207 C  
HETATM   11  C   UNL     1     -10.788  10.442  67.826  1.00  0.00    -0.297 A  
HETATM   12  C   UNL     1     -10.816  11.494  66.882  1.00  0.00    -0.284 A  
HETATM   13  I   UNL     1     -11.861  10.733  69.673  1.00  0.00    -0.350 I  
HETATM   14  O   UNL     1      -9.811   8.290  69.734  1.00  0.00    -0.182 OA 
HETATM   15  O   UNL     1     -10.629   6.994  68.077  1.00  0.00    -0.195 OA 
HETATM   16  C   UNL     1     -10.246  11.279  65.611  1.00  0.00    -0.253 A  
HETATM   17  I   UNL     1     -10.988  12.518  63.981  1.00  0.00    -0.540 I  
BRANCH  12  18
HETATM   18  N   UNL     1     -11.547  12.661  67.203  1.00  0.00    -0.348 N  
HETATM   19  C   UNL     1     -11.098  13.850  67.714  1.00  0.00    -0.262 C  
HETATM   20  H   UNL     1     -12.551  12.609  67.029  1.00  0.00     0.000 HD 
HETATM   21  O   UNL     1     -11.940  14.659  68.104  1.00  0.00    -0.313 OA 
HETATM   22  C   UNL     1      -9.629  14.150  67.853  1.00  0.00    -0.223 C  
ENDBRANCH  12  18
ENDBRANCH   3   6
TORSDOF 2
ENDMDL
MODEL       25
REMARK 921   NORMALIZED FREE ENERGY PREDICTED BY IDOCK:   -4.58 KCAL/MOL
REMARK 922        TOTAL FREE ENERGY PREDICTED BY IDOCK:   -5.54 KCAL/MOL
REMARK 923 INTER-LIGAND FREE ENERGY PREDICTED BY IDOCK:   -5.07 KCAL/MOL
REMARK 924 INTRA-LIGAND FREE ENERGY PREDICTED BY IDOCK:   -0.47 KCAL/MOL
REMARK 927      BINDING AFFINITY PREDICTED BY RF-SCORE:    0.00 PKD
ROOT
HETATM    1  C   UNL     1      -9.669   5.674  71.614  1.00  0.00    -0.159 C  
HETATM    2  N   UNL     1      -9.564   6.580  70.497  1.00  0.00    -0.169 N  
HETATM    3  C   UNL     1     -10.629   6.830  69.636  1.00  0.00    -0.233 C  
HETATM    4  H   UNL     1      -8.676   7.055  70.332  1.00  0.00     0.000 HD 
HETATM    5  O   UNL     1     -11.735   6.327  69.779  1.00  0.00    -0.403 OA 
ENDROOT
BRANCH   3   6
HETATM    6  C   UNL     1     -10.340   7.749  68.490  1.00  0.00    -0.226 A  
HETATM    7  C   UNL     1     -10.637   9.138  68.576  1.00  0.00    -0.169 A  
HETATM    8  I   UNL     1     -11.184  10.027  70.468  1.00  0.00    -0.396 I  
HETATM    9  C   UNL     1     -10.473   9.991  67.450  1.00  0.00    -0.316 A  
HETATM   10  C   UNL     1     -11.053  11.360  67.465  1.00  0.00    -0.281 C  
HETATM   11  C   UNL     1      -9.874   9.467  66.282  1.00  0.00    -0.281 A  
HETATM   12  C   UNL     1      -9.479   8.111  66.212  1.00  0.00    -0.190 A  
HETATM   13  I   UNL     1      -9.538  10.693  64.541  1.00  0.00    -0.415 I  
HETATM   14  O   UNL     1     -10.181  12.349  67.191  1.00  0.00    -0.215 OA 
HETATM   15  O   UNL     1     -12.230  11.560  67.711  1.00  0.00    -0.560 OA 
HETATM   16  C   UNL     1      -9.815   7.252  67.277  1.00  0.00    -0.171 A  
HETATM   17  I   UNL     1      -9.944   5.127  66.820  1.00  0.00    -0.311 I  
BRANCH  12  18
HETATM   18  N   UNL     1      -8.900   7.645  65.009  1.00  0.00    -0.364 N  
HETATM   19  C   UNL     1      -7.581   7.415  64.716  1.00  0.00    -0.103 C  
HETATM   20  H   UNL     1      -9.556   7.455  64.252  1.00  0.00     0.000 HD 
HETATM   21  O   UNL     1      -7.285   7.202  63.541  1.00  0.00    -0.064 OA 
HETATM   22  C   UNL     1      -6.512   7.472  65.775  1.00  0.00    -0.045 C  
ENDBRANCH  12  18
ENDBRANCH   3   6
TORSDOF 2
ENDMDL
MODEL       26
REMARK 921   NORMALIZED FREE ENERGY PREDICTED BY IDOCK:   -4.58 KCAL/MOL
REMARK 922        TOTAL FREE ENERGY PREDICTED BY IDOCK:   -5.54 KCAL/MOL
REMARK 923 INTER-LIGAND FREE ENERGY PREDICTED BY IDOCK:   -5.35 KCAL/MOL
REMARK 924 INTRA-LIGAND FREE ENERGY PREDICTED BY IDOCK:   -0.20 KCAL/MOL
REMARK 927      BINDING AFFINITY PREDICTED BY RF-SCORE:    0.00 PKD
ROOT
HETATM    1  C   UNL     1      -9.995   6.755  66.615  1.00  0.00    -0.142 C  
HETATM    2  N   UNL     1     -10.616   7.808  67.379  1.00  0.00    -0.401 N  
HETATM    3  C   UNL     1      -9.876   8.732  68.113  1.00  0.00    -0.168 C  
HETATM    4  H   UNL     1     -11.633   7.879  67.382  1.00  0.00     0.000 HD 
HETATM    5  O   UNL     1      -8.653   8.739  68.140  1.00  0.00    -0.132 OA 
ENDROOT
BRANCH   3   6
HETATM    6  C   UNL     1     -10.672   9.726  68.901  1.00  0.00    -0.241 A  
HETATM    7  C   UNL     1     -10.788  11.076  68.468  1.00  0.00    -0.213 A  
HETATM    8  I   UNL     1     -10.122  11.655  66.495  1.00  0.00    -0.272 I  
HETATM    9  C   UNL     1     -11.444  12.048  69.272  1.00  0.00    -0.361 A  
HETATM   10  C   UNL     1     -11.306  13.493  68.951  1.00  0.00    -0.289 C  
HETATM   11  C   UNL     1     -12.105  11.624  70.448  1.00  0.00    -0.373 A  
HETATM   12  C   UNL     1     -12.086  10.266  70.843  1.00  0.00    -0.368 A  
HETATM   13  I   UNL     1     -13.168  13.014  71.707  1.00  0.00    -0.173 I  
HETATM   14  O   UNL     1     -12.470  14.157  68.811  1.00  0.00    -0.170 OA 
HETATM   15  O   UNL     1     -10.217  14.026  68.823  1.00  0.00    -0.231 OA 
HETATM   16  C   UNL     1     -11.283   9.361  70.121  1.00  0.00    -0.219 A  
HETATM   17  I   UNL     1     -10.636   7.568  71.174  1.00  0.00    -0.269 I  
BRANCH  12  18
HETATM   18  N   UNL     1     -12.755   9.909  72.037  1.00  0.00    -0.387 N  
HETATM   19  C   UNL     1     -13.833   9.082  72.211  1.00  0.00    -0.484 C  
HETATM   20  H   UNL     1     -12.382  10.327  72.889  1.00  0.00     0.000 HD 
HETATM   21  O   UNL     1     -14.374   9.073  73.316  1.00  0.00    -0.202 OA 
HETATM   22  C   UNL     1     -14.382   8.247  71.084  1.00  0.00    -0.251 C  
ENDBRANCH  12  18
ENDBRANCH   3   6
TORSDOF 2
ENDMDL
MODEL       27
REMARK 921   NORMALIZED FREE ENERGY PREDICTED BY IDOCK:   -4.58 KCAL/MOL
REMARK 922        TOTAL FREE ENERGY PREDICTED BY IDOCK:   -5.54 KCAL/MOL
REMARK 923 INTER-LIGAND FREE ENERGY PREDICTED BY IDOCK:   -5.17 KCAL/MOL
REMARK 924 INTRA-LIGAND FREE ENERGY PREDICTED BY IDOCK:   -0.37 KCAL/MOL
REMARK 927      BINDING AFFINITY PREDICTED BY RF-SCORE:    0.00 PKD
ROOT
HETATM    1  C   UNL     1     -10.112  10.754  63.671  1.00  0.00    -0.312 C  
HETATM    2  N   UNL     1     -10.568  11.412  64.870  1.00  0.00    -0.302 N  
HETATM    3  C   UNL     1      -9.716  11.703  65.931  1.00  0.00    -0.235 C  
HETATM    4  H   UNL     1     -11.552  11.673  64.944  1.00  0.00     0.000 HD 
HETATM    5  O   UNL     1      -8.518  11.454  65.914  1.00  0.00    -0.120 OA 
ENDROOT
BRANCH   3   6
HETATM    6  C   UNL     1     -10.357  12.334  67.130  1.00  0.00    -0.234 A  
HETATM    7  C   UNL     1     -10.924  11.533  68.159  1.00  0.00    -0.228 A  
HETATM    8  I   UNL     1     -10.577   9.401  68.208  1.00  0.00    -0.131 I  
HETATM    9  C   UNL     1     -11.635  12.127  69.238  1.00  0.00    -0.377 A  
HETATM   10  C   UNL     1     -12.461  11.281  70.139  1.00  0.00    -0.221 C  
HETATM   11  C   UNL     1     -11.649  13.537  69.350  1.00  0.00    -0.312 A  
HETATM   12  C   UNL     1     -11.004  14.349  68.388  1.00  0.00    -0.248 A  
HETATM   13  I   UNL     1     -12.657  14.529  70.976  1.00  0.00    -0.483 I  
HETATM   14  O   UNL     1     -12.185  11.410  71.451  1.00  0.00    -0.213 OA 
HETATM   15  O   UNL     1     -13.319  10.528  69.711  1.00  0.00     0.092 OA 
HETATM   16  C   UNL     1     -10.460  13.738  67.241  1.00  0.00    -0.264 A  
HETATM   17  I   UNL     1     -10.232  14.994  65.476  1.00  0.00    -0.395 I  
BRANCH  12  18
HETATM   18  N   UNL     1     -11.067  15.752  68.549  1.00  0.00    -0.315 N  
HETATM   19  C   UNL     1     -10.080  16.625  68.924  1.00  0.00    -0.274 C  
HETATM   20  H   UNL     1     -11.976  16.173  68.359  1.00  0.00     0.000 HD 
HETATM   21  O   UNL     1     -10.411  17.780  69.193  1.00  0.00    -0.350 OA 
HETATM   22  C   UNL     1      -8.645  16.190  69.061  1.00  0.00    -0.251 C  
ENDBRANCH  12  18
ENDBRANCH   3   6
TORSDOF 2
ENDMDL
MODEL       28
REMARK 921   NORMALIZED FREE ENERGY PREDICTED BY IDOCK:   -4.56 KCAL/MOL
REMARK 922        TOTAL FREE ENERGY PREDICTED BY IDOCK:   -5.52 KCAL/MOL
REMARK 923 INTER-LIGAND FREE ENERGY PREDICTED BY IDOCK:   -5.47 KCAL/MOL
REMARK 924 INTRA-LIGAND FREE ENERGY PREDICTED BY IDOCK:   -0.05 KCAL/MOL
REMARK 927      BINDING AFFINITY PREDICTED BY RF-SCORE:    0.00 PKD
ROOT
HETATM    1  C   UNL     1     -10.657   5.728  66.690  1.00  0.00    -0.280 C  
HETATM    2  N   UNL     1     -10.915   7.077  67.128  1.00  0.00    -0.538 N  
HETATM    3  C   UNL     1      -9.928   7.878  67.696  1.00  0.00    -0.181 C  
HETATM    4  H   UNL     1     -11.854   7.458  67.017  1.00  0.00     0.000 HD 
HETATM    5  O   UNL     1      -8.769   7.512  67.837  1.00  0.00    -0.124 OA 
ENDROOT
BRANCH   3   6
HETATM    6  C   UNL     1     -10.371   9.234  68.154  1.00  0.00    -0.261 A  
HETATM    7  C   UNL     1     -11.106   9.392  69.361  1.00  0.00    -0.076 A  
HETATM    8  I   UNL     1     -11.306   7.746  70.747  1.00  0.00    -0.227 I  
HETATM    9  C   UNL     1     -11.627  10.660  69.738  1.00  0.00    -0.385 A  
HETATM   10  C   UNL     1     -12.626  10.755  70.835  1.00  0.00    -0.401 C  
HETATM   11  C   UNL     1     -11.284  11.793  68.966  1.00  0.00    -0.265 A  
HETATM   12  C   UNL     1     -10.470  11.671  67.816  1.00  0.00    -0.187 A  
HETATM   13  I   UNL     1     -11.985  13.764  69.485  1.00  0.00    -0.308 I  
HETATM   14  O   UNL     1     -12.306  11.616  71.821  1.00  0.00    -0.033 OA 
HETATM   15  O   UNL     1     -13.653  10.098  70.834  1.00  0.00    -0.274 OA 
HETATM   16  C   UNL     1     -10.116  10.382  67.372  1.00  0.00    -0.196 A  
HETATM   17  I   UNL     1      -9.606  10.177  65.264  1.00  0.00    -0.375 I  
BRANCH  12  18
HETATM   18  N   UNL     1     -10.175  12.840  67.079  1.00  0.00    -0.240 N  
HETATM   19  C   UNL     1     -10.878  13.417  66.054  1.00  0.00    -0.274 C  
HETATM   20  H   UNL     1      -9.318  13.323  67.348  1.00  0.00     0.000 HD 
HETATM   21  O   UNL     1     -10.332  14.323  65.424  1.00  0.00    -0.327 OA 
HETATM   22  C   UNL     1     -12.250  12.935  65.663  1.00  0.00    -0.519 C  
ENDBRANCH  12  18
ENDBRANCH   3   6
TORSDOF 2
ENDMDL
MODEL       29
REMARK 921   NORMALIZED FREE ENERGY PREDICTED BY IDOCK:   -4.52 KCAL/MOL
REMARK 922        TOTAL FREE ENERGY PREDICTED BY IDOCK:   -5.48 KCAL/MOL
REMARK 923 INTER-LIGAND FREE ENERGY PREDICTED BY IDOCK:   -5.47 KCAL/MOL
REMARK 924 INTRA-LIGAND FREE ENERGY PREDICTED BY IDOCK:   -0.01 KCAL/MOL
REMARK 927      BINDING AFFINITY PREDICTED BY RF-SCORE:    0.00 PKD
ROOT
HETATM    1  C   UNL     1      -7.660  15.223  67.086  1.00  0.00    -0.189 C  
HETATM    2  N   UNL     1      -8.546  14.409  67.880  1.00  0.00    -0.156 N  
HETATM    3  C   UNL     1      -9.683  13.807  67.349  1.00  0.00    -0.235 C  
HETATM    4  H   UNL     1      -8.331  14.269  68.867  1.00  0.00     0.000 HD 
HETATM    5  O   UNL     1      -9.998  13.897  66.170  1.00  0.00    -0.293 OA 
ENDROOT
BRANCH   3   6
HETATM    6  C   UNL     1     -10.532  13.044  68.319  1.00  0.00    -0.258 A  
HETATM    7  C   UNL     1     -11.344  13.722  69.269  1.00  0.00    -0.273 A  
HETATM    8  I   UNL     1     -11.655  15.856  69.122  1.00  0.00    -0.213 I  
HETATM    9  C   UNL     1     -12.059  13.002  70.265  1.00  0.00    -0.388 A  
HETATM   10  C   UNL     1     -12.662  13.726  71.415  1.00  0.00    -0.367 C  
HETATM   11  C   UNL     1     -12.064  11.589  70.211  1.00  0.00    -0.359 A  
HETATM   12  C   UNL     1     -11.342  10.897  69.211  1.00  0.00    -0.277 A  
HETATM   13  I   UNL     1     -13.158  10.411  71.647  1.00  0.00    -0.391 I  
HETATM   14  O   UNL     1     -13.976  13.494  71.606  1.00  0.00    -0.230 OA 
HETATM   15  O   UNL     1     -12.009  14.473  72.123  1.00  0.00    -0.252 OA 
HETATM   16  C   UNL     1     -10.505  11.632  68.349  1.00  0.00    -0.213 A  
HETATM   17  I   UNL     1      -8.857  10.549  67.424  1.00  0.00    -0.141 I  
BRANCH  12  18
HETATM   18  N   UNL     1     -11.376   9.484  69.221  1.00  0.00    -0.446 N  
HETATM   19  C   UNL     1     -10.547   8.603  69.864  1.00  0.00    -0.224 C  
HETATM   20  H   UNL     1     -12.124   9.060  68.671  1.00  0.00     0.000 HD 
HETATM   21  O   UNL     1     -10.641   7.411  69.571  1.00  0.00    -0.231 OA 
HETATM   22  C   UNL     1      -9.515   9.066  70.858  1.00  0.00    -0.331 C  
ENDBRANCH  12  18
ENDBRANCH   3   6
TORSDOF 2
ENDMDL
MODEL       30
REMARK 921   NORMALIZED FREE ENERGY PREDICTED BY IDOCK:   -4.45 KCAL/MOL
REMARK 922        TOTAL FREE ENERGY PREDICTED BY IDOCK:   -5.39 KCAL/MOL
REMARK 923 INTER-LIGAND FREE ENERGY PREDICTED BY IDOCK:   -4.90 KCAL/MOL
REMARK 924 INTRA-LIGAND FREE ENERGY PREDICTED BY IDOCK:   -0.49 KCAL/MOL
REMARK 927      BINDING AFFINITY PREDICTED BY RF-SCORE:    0.00 PKD
ROOT
HETATM    1  C   UNL     1      -5.565  18.650  69.561  1.00  0.00    -0.226 C  
HETATM    2  N   UNL     1      -6.505  17.557  69.539  1.00  0.00    -0.237 N  
HETATM    3  C   UNL     1      -7.021  17.041  68.353  1.00  0.00    -0.180 C  
HETATM    4  H   UNL     1      -6.803  17.147  70.424  1.00  0.00     0.000 HD 
HETATM    5  O   UNL     1      -6.695  17.452  67.248  1.00  0.00    -0.148 OA 
ENDROOT
BRANCH   3   6
HETATM    6  C   UNL     1      -8.033  15.947  68.503  1.00  0.00    -0.152 A  
HETATM    7  C   UNL     1      -7.665  14.584  68.326  1.00  0.00    -0.126 A  
HETATM    8  I   UNL     1      -5.584  14.020  68.184  1.00  0.00    -0.084 I  
HETATM    9  C   UNL     1      -8.645  13.554  68.352  1.00  0.00    -0.142 A  
HETATM   10  C   UNL     1      -8.297  12.187  67.883  1.00  0.00    -0.161 C  
HETATM   11  C   UNL     1      -9.974  13.889  68.698  1.00  0.00    -0.189 A  
HETATM   12  C   UNL     1     -10.339  15.226  68.976  1.00  0.00    -0.242 A  
HETATM   13  I   UNL     1     -11.519  12.390  68.813  1.00  0.00    -0.411 I  
HETATM   14  O   UNL     1      -8.560  11.201  68.763  1.00  0.00    -0.160 OA 
HETATM   15  O   UNL     1      -7.809  11.985  66.785  1.00  0.00    -0.131 OA 
HETATM   16  C   UNL     1      -9.387  16.244  68.771  1.00  0.00    -0.235 A  
HETATM   17  I   UNL     1     -10.158  18.249  68.411  1.00  0.00    -0.351 I  
BRANCH  12  18
HETATM   18  N   UNL     1     -11.688  15.496  69.302  1.00  0.00    -0.345 N  
HETATM   19  C   UNL     1     -12.274  15.613  70.534  1.00  0.00    -0.399 C  
HETATM   20  H   UNL     1     -12.313  15.622  68.506  1.00  0.00     0.000 HD 
HETATM   21  O   UNL     1     -13.503  15.653  70.582  1.00  0.00    -0.476 OA 
HETATM   22  C   UNL     1     -11.459  15.638  71.801  1.00  0.00    -0.505 C  
ENDBRANCH  12  18
ENDBRANCH   3   6
TORSDOF 2
ENDMDL
MODEL       31
REMARK 921   NORMALIZED FREE ENERGY PREDICTED BY IDOCK:   -4.44 KCAL/MOL
REMARK 922        TOTAL FREE ENERGY PREDICTED BY IDOCK:   -5.39 KCAL/MOL
REMARK 923 INTER-LIGAND FREE ENERGY PREDICTED BY IDOCK:   -5.37 KCAL/MOL
REMARK 924 INTRA-LIGAND FREE ENERGY PREDICTED BY IDOCK:   -0.01 KCAL/MOL
REMARK 927      BINDING AFFINITY PREDICTED BY RF-SCORE:    0.00 PKD
ROOT
HETATM    1  C   UNL     1      -9.961  14.040  67.053  1.00  0.00    -0.257 C  
HETATM    2  N   UNL     1      -9.908  12.635  67.372  1.00  0.00    -0.203 N  
HETATM    3  C   UNL     1     -10.989  11.783  67.167  1.00  0.00    -0.276 C  
HETATM    4  H   UNL     1      -9.046  12.252  67.762  1.00  0.00     0.000 HD 
HETATM    5  O   UNL     1     -12.047  12.151  66.676  1.00  0.00    -0.622 OA 
ENDROOT
BRANCH   3   6
HETATM    6  C   UNL     1     -10.794  10.364  67.606  1.00  0.00    -0.361 A  
HETATM    7  C   UNL     1     -11.033   9.978  68.954  1.00  0.00    -0.207 A  
HETATM    8  I   UNL     1     -12.014  11.330  70.325  1.00  0.00    -0.381 I  
HETATM    9  C   UNL     1     -10.738   8.660  69.399  1.00  0.00    -0.169 A  
HETATM   10  C   UNL     1     -10.717   8.356  70.854  1.00  0.00    -0.222 C  
HETATM   11  C   UNL     1     -10.335   7.695  68.448  1.00  0.00    -0.194 A  
HETATM   12  C   UNL     1     -10.188   8.035  67.084  1.00  0.00    -0.292 A  
HETATM   13  I   UNL     1      -9.911   5.659  69.018  1.00  0.00    -0.295 I  
HETATM   14  O   UNL     1     -11.497   7.324  71.230  1.00  0.00    -0.260 OA 
HETATM   15  O   UNL     1     -10.042   9.000  71.640  1.00  0.00    -0.316 OA 
HETATM   16  C   UNL     1     -10.317   9.386  66.705  1.00  0.00    -0.214 A  
HETATM   17  I   UNL     1      -9.321   9.988  64.864  1.00  0.00    -0.331 I  
BRANCH  12  18
HETATM   18  N   UNL     1      -9.767   7.028  66.186  1.00  0.00    -0.410 N  
HETATM   19  C   UNL     1      -8.496   6.623  65.872  1.00  0.00    -0.144 C  
HETATM   20  H   UNL     1     -10.516   6.532  65.702  1.00  0.00     0.000 HD 
HETATM   21  O   UNL     1      -8.357   5.864  64.914  1.00  0.00    -0.136 OA 
HETATM   22  C   UNL     1      -7.295   7.125  66.629  1.00  0.00    -0.084 C  
ENDBRANCH  12  18
ENDBRANCH   3   6
TORSDOF 2
ENDMDL
MODEL       32
REMARK 921   NORMALIZED FREE ENERGY PREDICTED BY IDOCK:   -4.43 KCAL/MOL
REMARK 922        TOTAL FREE ENERGY PREDICTED BY IDOCK:   -5.38 KCAL/MOL
REMARK 923 INTER-LIGAND FREE ENERGY PREDICTED BY IDOCK:   -5.18 KCAL/MOL
REMARK 924 INTRA-LIGAND FREE ENERGY PREDICTED BY IDOCK:   -0.20 KCAL/MOL
REMARK 927      BINDING AFFINITY PREDICTED BY RF-SCORE:    0.00 PKD
ROOT
HETATM    1  C   UNL     1     -11.955  13.635  70.514  1.00  0.00    -0.280 C  
HETATM    2  N   UNL     1     -11.326  13.080  69.342  1.00  0.00    -0.407 N  
HETATM    3  C   UNL     1     -11.777  11.910  68.736  1.00  0.00    -0.321 C  
HETATM    4  H   UNL     1     -10.521  13.562  68.942  1.00  0.00     0.000 HD 
HETATM    5  O   UNL     1     -12.753  11.287  69.131  1.00  0.00    -0.205 OA 
ENDROOT
BRANCH   3   6
HETATM    6  C   UNL     1     -10.978  11.433  67.562  1.00  0.00    -0.312 A  
HETATM    7  C   UNL     1     -11.174  11.993  66.270  1.00  0.00    -0.342 A  
HETATM    8  I   UNL     1     -12.368  13.777  66.017  1.00  0.00    -0.374 I  
HETATM    9  C   UNL     1     -10.502  11.463  65.135  1.00  0.00    -0.351 A  
HETATM   10  C   UNL     1     -10.929  11.860  63.767  1.00  0.00    -0.425 C  
HETATM   11  C   UNL     1      -9.525  10.460  65.329  1.00  0.00    -0.237 A  
HETATM   12  C   UNL     1      -9.243   9.960  66.622  1.00  0.00    -0.153 A  
HETATM   13  I   UNL     1      -8.418   9.629  63.677  1.00  0.00    -0.239 I  
HETATM   14  O   UNL     1      -9.946  12.342  62.982  1.00  0.00    -0.320 OA 
HETATM   15  O   UNL     1     -12.086  11.755  63.395  1.00  0.00    -0.491 OA 
HETATM   16  C   UNL     1     -10.048  10.379  67.700  1.00  0.00    -0.188 A  
HETATM   17  I   UNL     1     -10.147   9.051  69.423  1.00  0.00    -0.235 I  
BRANCH  12  18
HETATM   18  N   UNL     1      -8.266   8.947  66.747  1.00  0.00    -0.110 N  
HETATM   19  C   UNL     1      -6.956   9.051  67.137  1.00  0.00    -0.078 C  
HETATM   20  H   UNL     1      -8.579   8.005  66.515  1.00  0.00     0.000 HD 
HETATM   21  O   UNL     1      -6.233   8.068  66.981  1.00  0.00    -0.052 OA 
HETATM   22  C   UNL     1      -6.392  10.335  67.687  1.00  0.00    -0.058 C  
ENDBRANCH  12  18
ENDBRANCH   3   6
TORSDOF 2
ENDMDL
MODEL       33
REMARK 921   NORMALIZED FREE ENERGY PREDICTED BY IDOCK:   -4.40 KCAL/MOL
REMARK 922        TOTAL FREE ENERGY PREDICTED BY IDOCK:   -5.34 KCAL/MOL
REMARK 923 INTER-LIGAND FREE ENERGY PREDICTED BY IDOCK:   -5.27 KCAL/MOL
REMARK 924 INTRA-LIGAND FREE ENERGY PREDICTED BY IDOCK:   -0.07 KCAL/MOL
REMARK 927      BINDING AFFINITY PREDICTED BY RF-SCORE:    0.00 PKD
ROOT
HETATM    1  C   UNL     1     -12.169  13.564  65.625  1.00  0.00    -0.458 C  
HETATM    2  N   UNL     1     -11.966  12.265  66.217  1.00  0.00    -0.326 N  
HETATM    3  C   UNL     1     -10.838  11.959  66.974  1.00  0.00    -0.259 C  
HETATM    4  H   UNL     1     -12.674  11.545  66.076  1.00  0.00     0.000 HD 
HETATM    5  O   UNL     1      -9.957  12.771  67.219  1.00  0.00    -0.215 OA 
ENDROOT
BRANCH   3   6
HETATM    6  C   UNL     1     -10.748  10.548  67.469  1.00  0.00    -0.326 A  
HETATM    7  C   UNL     1     -11.088  10.223  68.811  1.00  0.00    -0.228 A  
HETATM    8  I   UNL     1     -12.073  11.672  70.075  1.00  0.00    -0.255 I  
HETATM    9  C   UNL     1     -10.892   8.908  69.316  1.00  0.00    -0.113 A  
HETATM   10  C   UNL     1     -10.975   8.654  70.779  1.00  0.00    -0.245 C  
HETATM   11  C   UNL     1     -10.487   7.890  68.423  1.00  0.00    -0.166 A  
HETATM   12  C   UNL     1     -10.240   8.174  67.059  1.00  0.00    -0.308 A  
HETATM   13  I   UNL     1     -10.211   5.856  69.082  1.00  0.00    -0.362 I  
HETATM   14  O   UNL     1     -11.832   7.679  71.138  1.00  0.00    -0.286 OA 
HETATM   15  O   UNL     1     -10.314   9.289  71.583  1.00  0.00    -0.340 OA 
HETATM   16  C   UNL     1     -10.273   9.515  66.631  1.00  0.00    -0.240 A  
HETATM   17  I   UNL     1      -9.137   9.999  64.837  1.00  0.00    -0.341 I  
BRANCH  12  18
HETATM   18  N   UNL     1      -9.823   7.114  66.221  1.00  0.00    -0.431 N  
HETATM   19  C   UNL     1      -8.556   6.654  65.974  1.00  0.00    -0.148 C  
HETATM   20  H   UNL     1     -10.570   6.624  65.731  1.00  0.00     0.000 HD 
HETATM   21  O   UNL     1      -8.409   5.849  65.055  1.00  0.00    -0.138 OA 
HETATM   22  C   UNL     1      -7.366   7.147  66.755  1.00  0.00    -0.084 C  
ENDBRANCH  12  18
ENDBRANCH   3   6
TORSDOF 2
ENDMDL
MODEL       34
REMARK 921   NORMALIZED FREE ENERGY PREDICTED BY IDOCK:   -4.40 KCAL/MOL
REMARK 922        TOTAL FREE ENERGY PREDICTED BY IDOCK:   -5.34 KCAL/MOL
REMARK 923 INTER-LIGAND FREE ENERGY PREDICTED BY IDOCK:   -4.90 KCAL/MOL
REMARK 924 INTRA-LIGAND FREE ENERGY PREDICTED BY IDOCK:   -0.44 KCAL/MOL
REMARK 927      BINDING AFFINITY PREDICTED BY RF-SCORE:    0.00 PKD
ROOT
HETATM    1  C   UNL     1     -10.556   6.039  66.825  1.00  0.00    -0.291 C  
HETATM    2  N   UNL     1     -10.855   7.391  67.225  1.00  0.00    -0.513 N  
HETATM    3  C   UNL     1      -9.873   8.269  67.678  1.00  0.00    -0.169 C  
HETATM    4  H   UNL     1     -11.820   7.717  67.174  1.00  0.00     0.000 HD 
HETATM    5  O   UNL     1      -8.688   7.972  67.741  1.00  0.00    -0.127 OA 
ENDROOT
BRANCH   3   6
HETATM    6  C   UNL     1     -10.356   9.619  68.113  1.00  0.00    -0.250 A  
HETATM    7  C   UNL     1     -11.029   9.788  69.354  1.00  0.00    -0.212 A  
HETATM    8  I   UNL     1     -11.074   8.188  70.805  1.00  0.00    -0.274 I  
HETATM    9  C   UNL     1     -11.590  11.044  69.715  1.00  0.00    -0.401 A  
HETATM   10  C   UNL     1     -12.531  11.135  70.863  1.00  0.00    -0.409 C  
HETATM   11  C   UNL     1     -11.345  12.162  68.885  1.00  0.00    -0.283 A  
HETATM   12  C   UNL     1     -10.591  12.034  67.696  1.00  0.00    -0.210 A  
HETATM   13  I   UNL     1     -12.111  14.117  69.373  1.00  0.00    -0.172 I  
HETATM   14  O   UNL     1     -12.199  12.046  71.798  1.00  0.00     0.213 OA 
HETATM   15  O   UNL     1     -13.523  10.431  70.943  1.00  0.00    -0.259 OA 
HETATM   16  C   UNL     1     -10.200  10.747  67.277  1.00  0.00    -0.205 A  
HETATM   17  I   UNL     1      -9.797  10.487  65.153  1.00  0.00    -0.383 I  
BRANCH  12  18
HETATM   18  N   UNL     1     -10.394  13.188  66.903  1.00  0.00    -0.245 N  
HETATM   19  C   UNL     1      -9.338  14.061  66.892  1.00  0.00    -0.257 C  
HETATM   20  H   UNL     1     -11.144  13.400  66.246  1.00  0.00     0.000 HD 
HETATM   21  O   UNL     1      -9.469  15.109  66.260  1.00  0.00    -0.269 OA 
HETATM   22  C   UNL     1      -8.075  13.788  67.665  1.00  0.00    -0.181 C  
ENDBRANCH  12  18
ENDBRANCH   3   6
TORSDOF 2
ENDMDL
MODEL       35
REMARK 921   NORMALIZED FREE ENERGY PREDICTED BY IDOCK:   -4.35 KCAL/MOL
REMARK 922        TOTAL FREE ENERGY PREDICTED BY IDOCK:   -5.28 KCAL/MOL
REMARK 923 INTER-LIGAND FREE ENERGY PREDICTED BY IDOCK:   -4.91 KCAL/MOL
REMARK 924 INTRA-LIGAND FREE ENERGY PREDICTED BY IDOCK:   -0.37 KCAL/MOL
REMARK 927      BINDING AFFINITY PREDICTED BY RF-SCORE:    0.00 PKD
ROOT
HETATM    1  C   UNL     1     -11.429   8.657  70.969  1.00  0.00    -0.278 C  
HETATM    2  N   UNL     1     -11.163   8.971  69.587  1.00  0.00    -0.434 N  
HETATM    3  C   UNL     1      -9.909   9.383  69.144  1.00  0.00    -0.174 C  
HETATM    4  H   UNL     1     -11.921   8.887  68.909  1.00  0.00     0.000 HD 
HETATM    5  O   UNL     1      -8.938   9.480  69.882  1.00  0.00    -0.177 OA 
ENDROOT
BRANCH   3   6
HETATM    6  C   UNL     1      -9.812   9.729  67.689  1.00  0.00    -0.202 A  
HETATM    7  C   UNL     1     -10.428  10.903  67.176  1.00  0.00    -0.237 A  
HETATM    8  I   UNL     1     -11.221  12.401  68.515  1.00  0.00    -0.413 I  
HETATM    9  C   UNL     1     -10.437  11.172  65.780  1.00  0.00    -0.305 A  
HETATM   10  C   UNL     1     -11.322  12.234  65.233  1.00  0.00    -0.338 C  
HETATM   11  C   UNL     1      -9.699  10.327  64.919  1.00  0.00    -0.320 A  
HETATM   12  C   UNL     1      -8.995   9.209  65.425  1.00  0.00    -0.207 A  
HETATM   13  I   UNL     1      -9.611  10.681  62.795  1.00  0.00    -0.098 I  
HETATM   14  O   UNL     1     -10.699  13.161  64.480  1.00  0.00    -0.353 OA 
HETATM   15  O   UNL     1     -12.520  12.257  65.459  1.00  0.00    -0.597 OA 
HETATM   16  C   UNL     1      -9.150   8.870  66.784  1.00  0.00    -0.143 A  
HETATM   17  I   UNL     1      -8.764   6.796  67.327  1.00  0.00    -0.123 I  
BRANCH  12  18
HETATM   18  N   UNL     1      -8.289   8.395  64.510  1.00  0.00    -0.296 N  
HETATM   19  C   UNL     1      -6.975   8.460  64.130  1.00  0.00    -0.078 C  
HETATM   20  H   UNL     1      -8.836   7.654  64.071  1.00  0.00     0.000 HD 
HETATM   21  O   UNL     1      -6.623   7.776  63.169  1.00  0.00    -0.069 OA 
HETATM   22  C   UNL     1      -5.994   9.373  64.818  1.00  0.00    -0.071 C  
ENDBRANCH  12  18
ENDBRANCH   3   6
TORSDOF 2
ENDMDL
MODEL       36
REMARK 921   NORMALIZED FREE ENERGY PREDICTED BY IDOCK:   -4.34 KCAL/MOL
REMARK 922        TOTAL FREE ENERGY PREDICTED BY IDOCK:   -5.28 KCAL/MOL
REMARK 923 INTER-LIGAND FREE ENERGY PREDICTED BY IDOCK:   -4.81 KCAL/MOL
REMARK 924 INTRA-LIGAND FREE ENERGY PREDICTED BY IDOCK:   -0.47 KCAL/MOL
REMARK 927      BINDING AFFINITY PREDICTED BY RF-SCORE:    0.00 PKD
ROOT
HETATM    1  C   UNL     1      -7.173   4.039  70.636  1.00  0.00    -0.038 C  
HETATM    2  N   UNL     1      -7.957   5.246  70.548  1.00  0.00    -0.097 N  
HETATM    3  C   UNL     1      -9.291   5.240  70.150  1.00  0.00    -0.153 C  
HETATM    4  H   UNL     1      -7.518   6.135  70.785  1.00  0.00     0.000 HD 
HETATM    5  O   UNL     1      -9.904   4.217  69.879  1.00  0.00    -0.215 OA 
ENDROOT
BRANCH   3   6
HETATM    6  C   UNL     1      -9.948   6.583  70.052  1.00  0.00    -0.193 A  
HETATM    7  C   UNL     1      -9.719   7.426  68.930  1.00  0.00    -0.150 A  
HETATM    8  I   UNL     1      -8.706   6.670  67.177  1.00  0.00    -0.119 I  
HETATM    9  C   UNL     1     -10.247   8.746  68.888  1.00  0.00    -0.221 A  
HETATM   10  C   UNL     1      -9.766   9.706  67.860  1.00  0.00    -0.146 C  
HETATM   11  C   UNL     1     -11.124   9.160  69.916  1.00  0.00    -0.159 A  
HETATM   12  C   UNL     1     -11.444   8.299  70.991  1.00  0.00    -0.275 A  
HETATM   13  I   UNL     1     -12.014  11.124  69.916  1.00  0.00    -0.445 I  
HETATM   14  O   UNL     1     -10.735  10.277  67.118  1.00  0.00    -0.257 OA 
HETATM   15  O   UNL     1      -8.581   9.949  67.706  1.00  0.00    -0.121 OA 
HETATM   16  C   UNL     1     -10.769   7.066  71.094  1.00  0.00    -0.230 A  
HETATM   17  I   UNL     1     -10.655   6.175  73.078  1.00  0.00    -0.308 I  
BRANCH  12  18
HETATM   18  N   UNL     1     -12.316   8.779  71.995  1.00  0.00    -0.351 N  
HETATM   19  C   UNL     1     -13.648   8.519  72.180  1.00  0.00    -0.364 C  
HETATM   20  H   UNL     1     -11.893   9.407  72.677  1.00  0.00     0.000 HD 
HETATM   21  O   UNL     1     -14.255   9.204  73.004  1.00  0.00    -0.429 OA 
HETATM   22  C   UNL     1     -14.373   7.474  71.374  1.00  0.00    -0.540 C  
ENDBRANCH  12  18
ENDBRANCH   3   6
TORSDOF 2
ENDMDL
MODEL       37
REMARK 921   NORMALIZED FREE ENERGY PREDICTED BY IDOCK:   -4.29 KCAL/MOL
REMARK 922        TOTAL FREE ENERGY PREDICTED BY IDOCK:   -5.22 KCAL/MOL
REMARK 923 INTER-LIGAND FREE ENERGY PREDICTED BY IDOCK:   -5.16 KCAL/MOL
REMARK 924 INTRA-LIGAND FREE ENERGY PREDICTED BY IDOCK:   -0.06 KCAL/MOL
REMARK 927      BINDING AFFINITY PREDICTED BY RF-SCORE:    0.00 PKD
ROOT
HETATM    1  C   UNL     1     -12.020  13.985  68.895  1.00  0.00    -0.352 C  
HETATM    2  N   UNL     1     -11.156  12.884  69.244  1.00  0.00    -0.424 N  
HETATM    3  C   UNL     1     -11.350  11.598  68.748  1.00  0.00    -0.264 C  
HETATM    4  H   UNL     1     -10.374  13.055  69.877  1.00  0.00     0.000 HD 
HETATM    5  O   UNL     1     -12.242  11.313  67.961  1.00  0.00    -0.621 OA 
ENDROOT
BRANCH   3   6
HETATM    6  C   UNL     1     -10.402  10.554  69.253  1.00  0.00    -0.248 A  
HETATM    7  C   UNL     1      -9.310  10.112  68.455  1.00  0.00    -0.151 A  
HETATM    8  I   UNL     1      -8.776  11.167  66.647  1.00  0.00    -0.182 I  
HETATM    9  C   UNL     1      -8.480   9.041  68.883  1.00  0.00    -0.130 A  
HETATM   10  C   UNL     1      -7.537   8.403  67.926  1.00  0.00    -0.099 C  
HETATM   11  C   UNL     1      -8.666   8.512  70.182  1.00  0.00    -0.137 A  
HETATM   12  C   UNL     1      -9.683   9.008  71.030  1.00  0.00    -0.278 A  
HETATM   13  I   UNL     1      -7.425   6.920  70.939  1.00  0.00    -0.084 I  
HETATM   14  O   UNL     1      -6.256   8.352  68.339  1.00  0.00    -0.051 OA 
HETATM   15  O   UNL     1      -7.907   7.966  66.850  1.00  0.00    -0.100 OA 
HETATM   16  C   UNL     1     -10.599   9.945  70.513  1.00  0.00    -0.293 A  
HETATM   17  I   UNL     1     -12.541  10.062  71.491  1.00  0.00    -0.537 I  
BRANCH  12  18
HETATM   18  N   UNL     1      -9.827   8.426  72.310  1.00  0.00    -0.290 N  
HETATM   19  C   UNL     1     -10.592   7.356  72.694  1.00  0.00    -0.275 C  
HETATM   20  H   UNL     1      -9.284   8.866  73.054  1.00  0.00     0.000 HD 
HETATM   21  O   UNL     1     -10.719   7.148  73.900  1.00  0.00    -0.314 OA 
HETATM   22  C   UNL     1     -11.303   6.489  71.689  1.00  0.00    -0.332 C  
ENDBRANCH  12  18
ENDBRANCH   3   6
TORSDOF 2
ENDMDL
MODEL       38
REMARK 921   NORMALIZED FREE ENERGY PREDICTED BY IDOCK:   -4.29 KCAL/MOL
REMARK 922        TOTAL FREE ENERGY PREDICTED BY IDOCK:   -5.22 KCAL/MOL
REMARK 923 INTER-LIGAND FREE ENERGY PREDICTED BY IDOCK:   -4.77 KCAL/MOL
REMARK 924 INTRA-LIGAND FREE ENERGY PREDICTED BY IDOCK:   -0.45 KCAL/MOL
REMARK 927      BINDING AFFINITY PREDICTED BY RF-SCORE:    0.00 PKD
ROOT
HETATM    1  C   UNL     1     -12.175  13.649  69.977  1.00  0.00    -0.329 C  
HETATM    2  N   UNL     1     -11.378  12.451  70.065  1.00  0.00    -0.507 N  
HETATM    3  C   UNL     1     -11.511  11.399  69.163  1.00  0.00    -0.299 C  
HETATM    4  H   UNL     1     -10.692  12.372  70.816  1.00  0.00     0.000 HD 
HETATM    5  O   UNL     1     -12.285  11.425  68.216  1.00  0.00    -0.588 OA 
ENDROOT
BRANCH   3   6
HETATM    6  C   UNL     1     -10.652  10.201  69.427  1.00  0.00    -0.261 A  
HETATM    7  C   UNL     1     -10.964   9.298  70.481  1.00  0.00    -0.265 A  
HETATM    8  I   UNL     1     -12.862   9.423  71.506  1.00  0.00    -0.477 I  
HETATM    9  C   UNL     1     -10.089   8.226  70.808  1.00  0.00    -0.218 A  
HETATM   10  C   UNL     1     -10.275   7.476  72.078  1.00  0.00    -0.196 C  
HETATM   11  C   UNL     1      -8.970   7.984  69.977  1.00  0.00    -0.144 A  
HETATM   12  C   UNL     1      -8.699   8.812  68.864  1.00  0.00    -0.134 A  
HETATM   13  I   UNL     1      -7.613   6.355  70.362  1.00  0.00    -0.101 I  
HETATM   14  O   UNL     1     -10.378   6.140  71.938  1.00  0.00    -0.201 OA 
HETATM   15  O   UNL     1     -10.333   8.038  73.158  1.00  0.00    -0.332 OA 
HETATM   16  C   UNL     1      -9.483   9.966  68.670  1.00  0.00    -0.153 A  
HETATM   17  I   UNL     1      -8.583  11.582  67.520  1.00  0.00    -0.165 I  
BRANCH  12  18
HETATM   18  N   UNL     1      -7.556   8.526  68.082  1.00  0.00    -0.096 N  
HETATM   19  C   UNL     1      -7.470   7.866  66.884  1.00  0.00    -0.091 C  
HETATM   20  H   UNL     1      -6.670   8.857  68.464  1.00  0.00     0.000 HD 
HETATM   21  O   UNL     1      -6.349   7.555  66.482  1.00  0.00    -0.043 OA 
HETATM   22  C   UNL     1      -8.697   7.478  66.102  1.00  0.00    -0.174 C  
ENDBRANCH  12  18
ENDBRANCH   3   6
TORSDOF 2
ENDMDL
MODEL       39
REMARK 921   NORMALIZED FREE ENERGY PREDICTED BY IDOCK:   -4.29 KCAL/MOL
REMARK 922        TOTAL FREE ENERGY PREDICTED BY IDOCK:   -5.21 KCAL/MOL
REMARK 923 INTER-LIGAND FREE ENERGY PREDICTED BY IDOCK:   -4.83 KCAL/MOL
REMARK 924 INTRA-LIGAND FREE ENERGY PREDICTED BY IDOCK:   -0.39 KCAL/MOL
REMARK 927      BINDING AFFINITY PREDICTED BY RF-SCORE:    0.00 PKD
ROOT
HETATM    1  C   UNL     1     -11.875  12.647  66.621  1.00  0.00    -0.380 C  
HETATM    2  N   UNL     1     -11.589  11.374  67.235  1.00  0.00    -0.231 N  
HETATM    3  C   UNL     1     -10.540  11.198  68.132  1.00  0.00    -0.193 C  
HETATM    4  H   UNL     1     -12.178  10.574  67.003  1.00  0.00     0.000 HD 
HETATM    5  O   UNL     1      -9.806  12.109  68.490  1.00  0.00    -0.209 OA 
ENDROOT
BRANCH   3   6
HETATM    6  C   UNL     1     -10.338   9.801  68.635  1.00  0.00    -0.224 A  
HETATM    7  C   UNL     1      -9.683   8.825  67.834  1.00  0.00    -0.157 A  
HETATM    8  I   UNL     1      -8.651   9.404  66.025  1.00  0.00    -0.200 I  
HETATM    9  C   UNL     1      -9.594   7.472  68.260  1.00  0.00    -0.157 A  
HETATM   10  C   UNL     1      -9.171   6.418  67.299  1.00  0.00    -0.119 C  
HETATM   11  C   UNL     1     -10.042   7.135  69.558  1.00  0.00    -0.179 A  
HETATM   12  C   UNL     1     -10.606   8.114  70.408  1.00  0.00    -0.224 A  
HETATM   13  I   UNL     1      -9.904   5.121  70.311  1.00  0.00    -0.342 I  
HETATM   14  O   UNL     1      -8.138   5.657  67.709  1.00  0.00    -0.101 OA 
HETATM   15  O   UNL     1      -9.724   6.264  66.224  1.00  0.00    -0.136 OA 
HETATM   16  C   UNL     1     -10.840   9.404  69.894  1.00  0.00    -0.236 A  
HETATM   17  I   UNL     1     -12.383  10.587  70.877  1.00  0.00    -0.545 I  
BRANCH  12  18
HETATM   18  N   UNL     1     -11.048   7.710  71.689  1.00  0.00    -0.236 N  
HETATM   19  C   UNL     1     -10.349   7.643  72.865  1.00  0.00    -0.322 C  
HETATM   20  H   UNL     1     -12.027   7.430  71.745  1.00  0.00     0.000 HD 
HETATM   21  O   UNL     1     -10.882   7.072  73.816  1.00  0.00    -0.301 OA 
HETATM   22  C   UNL     1      -8.952   8.193  72.990  1.00  0.00    -0.335 C  
ENDBRANCH  12  18
ENDBRANCH   3   6
TORSDOF 2
ENDMDL
MODEL       40
REMARK 921   NORMALIZED FREE ENERGY PREDICTED BY IDOCK:   -4.28 KCAL/MOL
REMARK 922        TOTAL FREE ENERGY PREDICTED BY IDOCK:   -5.21 KCAL/MOL
REMARK 923 INTER-LIGAND FREE ENERGY PREDICTED BY IDOCK:   -4.77 KCAL/MOL
REMARK 924 INTRA-LIGAND FREE ENERGY PREDICTED BY IDOCK:   -0.44 KCAL/MOL
REMARK 927      BINDING AFFINITY PREDICTED BY RF-SCORE:    0.00 PKD
ROOT
HETATM    1  C   UNL     1     -10.580  18.532  66.046  1.00  0.00    -0.331 C  
HETATM    2  N   UNL     1      -9.983  17.232  66.232  1.00  0.00    -0.301 N  
HETATM    3  C   UNL     1     -10.312  16.408  67.305  1.00  0.00    -0.287 C  
HETATM    4  H   UNL     1      -9.296  16.906  65.553  1.00  0.00     0.000 HD 
HETATM    5  O   UNL     1     -11.148  16.707  68.146  1.00  0.00    -0.361 OA 
ENDROOT
BRANCH   3   6
HETATM    6  C   UNL     1      -9.560  15.115  67.389  1.00  0.00    -0.208 A  
HETATM    7  C   UNL     1      -8.206  15.086  67.822  1.00  0.00    -0.153 A  
HETATM    8  I   UNL     1      -7.298  16.839  68.703  1.00  0.00    -0.243 I  
HETATM    9  C   UNL     1      -7.455  13.879  67.792  1.00  0.00    -0.174 A  
HETATM   10  C   UNL     1      -5.979  13.918  67.968  1.00  0.00    -0.139 C  
HETATM   11  C   UNL     1      -8.116  12.675  67.458  1.00  0.00    -0.178 A  
HETATM   12  C   UNL     1      -9.489  12.669  67.120  1.00  0.00    -0.214 A  
HETATM   13  I   UNL     1      -7.075  10.788  67.432  1.00  0.00    -0.106 I  
HETATM   14  O   UNL     1      -5.502  13.117  68.940  1.00  0.00    -0.070 OA 
HETATM   15  O   UNL     1      -5.264  14.628  67.281  1.00  0.00    -0.290 OA 
HETATM   16  C   UNL     1     -10.160  13.901  66.989  1.00  0.00    -0.256 A  
HETATM   17  I   UNL     1     -11.935  13.921  65.728  1.00  0.00    -0.509 I  
BRANCH  12  18
HETATM   18  N   UNL     1     -10.088  11.434  66.781  1.00  0.00    -0.211 N  
HETATM   19  C   UNL     1     -10.909  10.635  67.533  1.00  0.00    -0.296 C  
HETATM   20  H   UNL     1      -9.878  11.088  65.845  1.00  0.00     0.000 HD 
HETATM   21  O   UNL     1     -11.152   9.505  67.109  1.00  0.00    -0.078 OA 
HETATM   22  C   UNL     1     -11.459  11.088  68.859  1.00  0.00    -0.364 C  
ENDBRANCH  12  18
ENDBRANCH   3   6
TORSDOF 2
ENDMDL
MODEL       41
REMARK 921   NORMALIZED FREE ENERGY PREDICTED BY IDOCK:   -4.25 KCAL/MOL
REMARK 922        TOTAL FREE ENERGY PREDICTED BY IDOCK:   -5.17 KCAL/MOL
REMARK 923 INTER-LIGAND FREE ENERGY PREDICTED BY IDOCK:   -4.76 KCAL/MOL
REMARK 924 INTRA-LIGAND FREE ENERGY PREDICTED BY IDOCK:   -0.42 KCAL/MOL
REMARK 927      BINDING AFFINITY PREDICTED BY RF-SCORE:    0.00 PKD
ROOT
HETATM    1  C   UNL     1     -11.910  12.824  63.356  1.00  0.00    -0.518 C  
HETATM    2  N   UNL     1     -10.870  12.799  64.355  1.00  0.00    -0.344 N  
HETATM    3  C   UNL     1     -11.134  12.550  65.699  1.00  0.00    -0.303 C  
HETATM    4  H   UNL     1      -9.907  12.970  64.066  1.00  0.00     0.000 HD 
HETATM    5  O   UNL     1     -12.254  12.304  66.126  1.00  0.00    -0.647 OA 
ENDROOT
BRANCH   3   6
HETATM    6  C   UNL     1      -9.954  12.618  66.619  1.00  0.00    -0.247 A  
HETATM    7  C   UNL     1      -9.410  13.871  67.016  1.00  0.00    -0.251 A  
HETATM    8  I   UNL     1     -10.467  15.708  66.595  1.00  0.00    -0.284 I  
HETATM    9  C   UNL     1      -8.222  13.938  67.793  1.00  0.00    -0.173 A  
HETATM   10  C   UNL     1      -7.511  15.234  67.953  1.00  0.00    -0.144 C  
HETATM   11  C   UNL     1      -7.664  12.737  68.288  1.00  0.00    -0.136 A  
HETATM   12  C   UNL     1      -8.249  11.485  67.987  1.00  0.00    -0.143 A  
HETATM   13  I   UNL     1      -5.892  12.739  69.516  1.00  0.00    -0.129 I  
HETATM   14  O   UNL     1      -7.275  15.599  69.229  1.00  0.00    -0.169 OA 
HETATM   15  O   UNL     1      -7.174  15.909  66.995  1.00  0.00    -0.213 OA 
HETATM   16  C   UNL     1      -9.320  11.441  67.073  1.00  0.00    -0.174 A  
HETATM   17  I   UNL     1      -9.644   9.555  66.033  1.00  0.00    -0.332 I  
BRANCH  12  18
HETATM   18  N   UNL     1      -7.634  10.320  68.501  1.00  0.00    -0.086 N  
HETATM   19  C   UNL     1      -8.055   9.491  69.507  1.00  0.00    -0.117 C  
HETATM   20  H   UNL     1      -6.752  10.060  68.059  1.00  0.00     0.000 HD 
HETATM   21  O   UNL     1      -7.262   8.647  69.923  1.00  0.00    -0.049 OA 
HETATM   22  C   UNL     1      -9.419   9.630  70.131  1.00  0.00    -0.298 C  
ENDBRANCH  12  18
ENDBRANCH   3   6
TORSDOF 2
ENDMDL
MODEL       42
REMARK 921   NORMALIZED FREE ENERGY PREDICTED BY IDOCK:   -4.23 KCAL/MOL
REMARK 922        TOTAL FREE ENERGY PREDICTED BY IDOCK:   -5.15 KCAL/MOL
REMARK 923 INTER-LIGAND FREE ENERGY PREDICTED BY IDOCK:   -4.70 KCAL/MOL
REMARK 924 INTRA-LIGAND FREE ENERGY PREDICTED BY IDOCK:   -0.45 KCAL/MOL
REMARK 927      BINDING AFFINITY PREDICTED BY RF-SCORE:    0.00 PKD
ROOT
HETATM    1  C   UNL     1     -12.853  12.630  64.631  1.00  0.00    -0.275 C  
HETATM    2  N   UNL     1     -11.570  12.979  65.189  1.00  0.00    -0.312 N  
HETATM    3  C   UNL     1     -11.177  12.578  66.462  1.00  0.00    -0.307 C  
HETATM    4  H   UNL     1     -10.927  13.540  64.629  1.00  0.00     0.000 HD 
HETATM    5  O   UNL     1     -11.871  11.878  67.187  1.00  0.00    -0.588 OA 
ENDROOT
BRANCH   3   6
HETATM    6  C   UNL     1      -9.839  13.073  66.919  1.00  0.00    -0.240 A  
HETATM    7  C   UNL     1      -8.668  12.287  66.732  1.00  0.00    -0.175 A  
HETATM    8  I   UNL     1      -8.717  10.524  65.483  1.00  0.00    -0.201 I  
HETATM    9  C   UNL     1      -7.418  12.701  67.267  1.00  0.00    -0.111 A  
HETATM   10  C   UNL     1      -6.279  11.747  67.318  1.00  0.00    -0.130 C  
HETATM   11  C   UNL     1      -7.324  13.978  67.867  1.00  0.00    -0.157 A  
HETATM   12  C   UNL     1      -8.457  14.817  67.972  1.00  0.00    -0.151 A  
HETATM   13  I   UNL     1      -5.461  14.715  68.664  1.00  0.00    -0.114 I  
HETATM   14  O   UNL     1      -5.142  12.187  66.744  1.00  0.00    -0.306 OA 
HETATM   15  O   UNL     1      -6.378  10.649  67.840  1.00  0.00    -0.057 OA 
HETATM   16  C   UNL     1      -9.715  14.308  67.592  1.00  0.00    -0.220 A  
HETATM   17  I   UNL     1     -11.464  15.245  68.489  1.00  0.00    -0.325 I  
BRANCH  12  18
HETATM   18  N   UNL     1      -8.300  16.076  68.597  1.00  0.00    -0.190 N  
HETATM   19  C   UNL     1      -8.108  17.307  68.026  1.00  0.00    -0.221 C  
HETATM   20  H   UNL     1      -8.335  16.066  69.616  1.00  0.00     0.000 HD 
HETATM   21  O   UNL     1      -7.796  18.238  68.768  1.00  0.00    -0.304 OA 
HETATM   22  C   UNL     1      -8.216  17.517  66.539  1.00  0.00    -0.311 C  
ENDBRANCH  12  18
ENDBRANCH   3   6
TORSDOF 2
ENDMDL
MODEL       43
REMARK 921   NORMALIZED FREE ENERGY PREDICTED BY IDOCK:   -4.21 KCAL/MOL
REMARK 922        TOTAL FREE ENERGY PREDICTED BY IDOCK:   -5.13 KCAL/MOL
REMARK 923 INTER-LIGAND FREE ENERGY PREDICTED BY IDOCK:   -4.68 KCAL/MOL
REMARK 924 INTRA-LIGAND FREE ENERGY PREDICTED BY IDOCK:   -0.45 KCAL/MOL
REMARK 927      BINDING AFFINITY PREDICTED BY RF-SCORE:    0.00 PKD
ROOT
HETATM    1  C   UNL     1      -9.705  19.108  66.924  1.00  0.00    -0.328 C  
HETATM    2  N   UNL     1      -9.643  17.700  67.228  1.00  0.00    -0.266 N  
HETATM    3  C   UNL     1      -8.738  16.843  66.608  1.00  0.00    -0.247 C  
HETATM    4  H   UNL     1     -10.286  17.319  67.922  1.00  0.00     0.000 HD 
HETATM    5  O   UNL     1      -7.913  17.221  65.788  1.00  0.00    -0.511 OA 
ENDROOT
BRANCH   3   6
HETATM    6  C   UNL     1      -8.842  15.398  66.990  1.00  0.00    -0.252 A  
HETATM    7  C   UNL     1      -9.881  14.579  66.470  1.00  0.00    -0.285 A  
HETATM    8  I   UNL     1     -11.130  15.285  64.854  1.00  0.00    -0.232 I  
HETATM    9  C   UNL     1     -10.051  13.241  66.920  1.00  0.00    -0.250 A  
HETATM   10  C   UNL     1     -11.297  12.499  66.592  1.00  0.00    -0.334 C  
HETATM   11  C   UNL     1      -9.083  12.688  67.789  1.00  0.00    -0.192 A  
HETATM   12  C   UNL     1      -7.985  13.457  68.239  1.00  0.00    -0.147 A  
HETATM   13  I   UNL     1      -9.226  10.653  68.487  1.00  0.00    -0.190 I  
HETATM   14  O   UNL     1     -11.107  11.306  65.995  1.00  0.00    -0.228 OA 
HETATM   15  O   UNL     1     -12.402  12.948  66.845  1.00  0.00    -0.384 OA 
HETATM   16  C   UNL     1      -7.941  14.828  67.917  1.00  0.00    -0.140 A  
HETATM   17  I   UNL     1      -6.770  16.108  69.232  1.00  0.00    -0.179 I  
BRANCH  12  18
HETATM   18  N   UNL     1      -7.060  12.850  69.120  1.00  0.00    -0.279 N  
HETATM   19  C   UNL     1      -5.881  12.215  68.832  1.00  0.00    -0.061 C  
HETATM   20  H   UNL     1      -7.306  12.890  70.108  1.00  0.00     0.000 HD 
HETATM   21  O   UNL     1      -5.335  11.585  69.738  1.00  0.00    -0.060 OA 
HETATM   22  C   UNL     1      -5.287  12.231  67.448  1.00  0.00    -0.116 C  
ENDBRANCH  12  18
ENDBRANCH   3   6
TORSDOF 2
ENDMDL
MODEL       44
REMARK 921   NORMALIZED FREE ENERGY PREDICTED BY IDOCK:   -4.18 KCAL/MOL
REMARK 922        TOTAL FREE ENERGY PREDICTED BY IDOCK:   -5.10 KCAL/MOL
REMARK 923 INTER-LIGAND FREE ENERGY PREDICTED BY IDOCK:   -5.06 KCAL/MOL
REMARK 924 INTRA-LIGAND FREE ENERGY PREDICTED BY IDOCK:   -0.04 KCAL/MOL
REMARK 927      BINDING AFFINITY PREDICTED BY RF-SCORE:    0.00 PKD
ROOT
HETATM    1  C   UNL     1      -9.085   8.681  71.670  1.00  0.00    -0.247 C  
HETATM    2  N   UNL     1      -9.223   9.187  70.327  1.00  0.00    -0.199 N  
HETATM    3  C   UNL     1     -10.264   8.800  69.488  1.00  0.00    -0.208 C  
HETATM    4  H   UNL     1      -8.533   9.853  69.980  1.00  0.00     0.000 HD 
HETATM    5  O   UNL     1     -11.151   8.032  69.833  1.00  0.00    -0.215 OA 
ENDROOT
BRANCH   3   6
HETATM    6  C   UNL     1     -10.232   9.370  68.103  1.00  0.00    -0.239 A  
HETATM    7  C   UNL     1      -9.393   8.807  67.101  1.00  0.00    -0.150 A  
HETATM    8  I   UNL     1      -8.408   6.913  67.434  1.00  0.00    -0.122 I  
HETATM    9  C   UNL     1      -9.273   9.416  65.822  1.00  0.00    -0.276 A  
HETATM   10  C   UNL     1      -8.189   8.993  64.897  1.00  0.00    -0.153 C  
HETATM   11  C   UNL     1     -10.110  10.512  65.509  1.00  0.00    -0.283 A  
HETATM   12  C   UNL     1     -11.023  11.024  66.459  1.00  0.00    -0.166 A  
HETATM   13  I   UNL     1     -10.036  11.471  63.580  1.00  0.00    -0.510 I  
HETATM   14  O   UNL     1      -8.602   8.623  63.669  1.00  0.00    -0.126 OA 
HETATM   15  O   UNL     1      -7.018   8.983  65.236  1.00  0.00    -0.081 OA 
HETATM   16  C   UNL     1     -10.993  10.513  67.772  1.00  0.00    -0.313 A  
HETATM   17  I   UNL     1     -11.767  11.804  69.345  1.00  0.00    -0.380 I  
BRANCH  12  18
HETATM   18  N   UNL     1     -11.821  12.131  66.089  1.00  0.00    -0.338 N  
HETATM   19  C   UNL     1     -11.527  13.468  66.150  1.00  0.00    -0.325 C  
HETATM   20  H   UNL     1     -12.746  11.903  65.727  1.00  0.00     0.000 HD 
HETATM   21  O   UNL     1     -12.446  14.265  65.963  1.00  0.00    -0.442 OA 
HETATM   22  C   UNL     1     -10.144  13.962  66.486  1.00  0.00    -0.286 C  
ENDBRANCH  12  18
ENDBRANCH   3   6
TORSDOF 2
ENDMDL
MODEL       45
REMARK 921   NORMALIZED FREE ENERGY PREDICTED BY IDOCK:   -4.17 KCAL/MOL
REMARK 922        TOTAL FREE ENERGY PREDICTED BY IDOCK:   -5.08 KCAL/MOL
REMARK 923 INTER-LIGAND FREE ENERGY PREDICTED BY IDOCK:   -4.58 KCAL/MOL
REMARK 924 INTRA-LIGAND FREE ENERGY PREDICTED BY IDOCK:   -0.50 KCAL/MOL
REMARK 927      BINDING AFFINITY PREDICTED BY RF-SCORE:    0.00 PKD
ROOT
HETATM    1  C   UNL     1      -6.812   2.611  68.135  1.00  0.00    -0.047 C  
HETATM    2  N   UNL     1      -7.572   3.646  68.790  1.00  0.00    -0.053 N  
HETATM    3  C   UNL     1      -8.924   3.503  69.091  1.00  0.00    -0.120 C  
HETATM    4  H   UNL     1      -7.101   4.515  69.043  1.00  0.00     0.000 HD 
HETATM    5  O   UNL     1      -9.557   2.484  68.852  1.00  0.00    -0.140 OA 
ENDROOT
BRANCH   3   6
HETATM    6  C   UNL     1      -9.583   4.693  69.717  1.00  0.00    -0.258 A  
HETATM    7  C   UNL     1      -9.792   4.755  71.123  1.00  0.00    -0.190 A  
HETATM    8  I   UNL     1      -8.864   3.310  72.435  1.00  0.00    -0.134 I  
HETATM    9  C   UNL     1     -10.520   5.828  71.706  1.00  0.00    -0.281 A  
HETATM   10  C   UNL     1     -10.978   5.734  73.118  1.00  0.00    -0.271 C  
HETATM   11  C   UNL     1     -10.913   6.910  70.885  1.00  0.00    -0.253 A  
HETATM   12  C   UNL     1     -10.625   6.913  69.500  1.00  0.00    -0.236 A  
HETATM   13  I   UNL     1     -11.977   8.604  71.685  1.00  0.00    -0.472 I  
HETATM   14  O   UNL     1     -10.610   6.764  73.904  1.00  0.00    -0.350 OA 
HETATM   15  O   UNL     1     -11.634   4.789  73.523  1.00  0.00    -0.281 OA 
HETATM   16  C   UNL     1     -10.059   5.759  68.923  1.00  0.00    -0.186 A  
HETATM   17  I   UNL     1     -10.378   5.474  66.788  1.00  0.00    -0.305 I  
BRANCH  12  18
HETATM   18  N   UNL     1     -11.057   8.018  68.731  1.00  0.00    -0.382 N  
HETATM   19  C   UNL     1     -10.338   9.094  68.281  1.00  0.00    -0.214 C  
HETATM   20  H   UNL     1     -12.045   8.013  68.476  1.00  0.00     0.000 HD 
HETATM   21  O   UNL     1     -10.963  10.038  67.799  1.00  0.00    -0.283 OA 
HETATM   22  C   UNL     1      -8.840   9.158  68.415  1.00  0.00    -0.129 C  
ENDBRANCH  12  18
ENDBRANCH   3   6
TORSDOF 2
ENDMDL
MODEL       46
REMARK 921   NORMALIZED FREE ENERGY PREDICTED BY IDOCK:   -4.14 KCAL/MOL
REMARK 922        TOTAL FREE ENERGY PREDICTED BY IDOCK:   -5.05 KCAL/MOL
REMARK 923 INTER-LIGAND FREE ENERGY PREDICTED BY IDOCK:   -4.56 KCAL/MOL
REMARK 924 INTRA-LIGAND FREE ENERGY PREDICTED BY IDOCK:   -0.49 KCAL/MOL
REMARK 927      BINDING AFFINITY PREDICTED BY RF-SCORE:    0.00 PKD
ROOT
HETATM    1  C   UNL     1     -10.327  11.164  63.478  1.00  0.00    -0.387 C  
HETATM    2  N   UNL     1     -10.395  10.205  64.553  1.00  0.00    -0.323 N  
HETATM    3  C   UNL     1      -9.510  10.226  65.628  1.00  0.00    -0.221 C  
HETATM    4  H   UNL     1     -11.116   9.485  64.524  1.00  0.00     0.000 HD 
HETATM    5  O   UNL     1      -8.636  11.072  65.757  1.00  0.00    -0.180 OA 
ENDROOT
BRANCH   3   6
HETATM    6  C   UNL     1      -9.675   9.125  66.630  1.00  0.00    -0.287 A  
HETATM    7  C   UNL     1     -10.313   9.364  67.878  1.00  0.00    -0.225 A  
HETATM    8  I   UNL     1     -11.373  11.214  68.232  1.00  0.00    -0.349 I  
HETATM    9  C   UNL     1     -10.367   8.353  68.876  1.00  0.00    -0.231 A  
HETATM   10  C   UNL     1     -10.772   8.700  70.264  1.00  0.00    -0.227 C  
HETATM   11  C   UNL     1      -9.900   7.057  68.557  1.00  0.00    -0.147 A  
HETATM   12  C   UNL     1      -9.352   6.774  67.285  1.00  0.00    -0.134 A  
HETATM   13  I   UNL     1      -9.984   5.446  69.987  1.00  0.00    -0.366 I  
HETATM   14  O   UNL     1     -11.784   7.963  70.761  1.00  0.00    -0.284 OA 
HETATM   15  O   UNL     1     -10.224   9.589  70.894  1.00  0.00    -0.292 OA 
HETATM   16  C   UNL     1      -9.153   7.836  66.382  1.00  0.00    -0.175 A  
HETATM   17  I   UNL     1      -7.631   7.549  64.851  1.00  0.00    -0.117 I  
BRANCH  12  18
HETATM   18  N   UNL     1      -8.890   5.461  67.034  1.00  0.00    -0.111 N  
HETATM   19  C   UNL     1      -9.505   4.442  66.356  1.00  0.00    -0.176 C  
HETATM   20  H   UNL     1      -7.968   5.243  67.412  1.00  0.00     0.000 HD 
HETATM   21  O   UNL     1      -9.003   3.320  66.433  1.00  0.00    -0.135 OA 
HETATM   22  C   UNL     1     -10.780   4.658  65.586  1.00  0.00    -0.193 C  
ENDBRANCH  12  18
ENDBRANCH   3   6
TORSDOF 2
ENDMDL
MODEL       47
REMARK 921   NORMALIZED FREE ENERGY PREDICTED BY IDOCK:   -4.14 KCAL/MOL
REMARK 922        TOTAL FREE ENERGY PREDICTED BY IDOCK:   -5.05 KCAL/MOL
REMARK 923 INTER-LIGAND FREE ENERGY PREDICTED BY IDOCK:   -4.56 KCAL/MOL
REMARK 924 INTRA-LIGAND FREE ENERGY PREDICTED BY IDOCK:   -0.49 KCAL/MOL
REMARK 927      BINDING AFFINITY PREDICTED BY RF-SCORE:    0.00 PKD
ROOT
HETATM    1  C   UNL     1      -6.878   5.778  65.965  1.00  0.00    -0.058 C  
HETATM    2  N   UNL     1      -7.828   6.678  66.570  1.00  0.00    -0.102 N  
HETATM    3  C   UNL     1      -7.459   7.923  67.073  1.00  0.00    -0.092 C  
HETATM    4  H   UNL     1      -8.805   6.392  66.632  1.00  0.00     0.000 HD 
HETATM    5  O   UNL     1      -6.317   8.357  67.012  1.00  0.00    -0.054 OA 
ENDROOT
BRANCH   3   6
HETATM    6  C   UNL     1      -8.553   8.713  67.724  1.00  0.00    -0.136 A  
HETATM    7  C   UNL     1      -9.242   9.732  67.009  1.00  0.00    -0.142 A  
HETATM    8  I   UNL     1      -8.984   9.939  64.874  1.00  0.00    -0.316 I  
HETATM    9  C   UNL     1     -10.198  10.560  67.658  1.00  0.00    -0.234 A  
HETATM   10  C   UNL     1     -10.691  11.792  66.987  1.00  0.00    -0.246 C  
HETATM   11  C   UNL     1     -10.559  10.266  68.993  1.00  0.00    -0.224 A  
HETATM   12  C   UNL     1      -9.956   9.192  69.690  1.00  0.00    -0.190 A  
HETATM   13  I   UNL     1     -12.033  11.434  70.046  1.00  0.00    -0.380 I  
HETATM   14  O   UNL     1     -12.031  11.887  66.888  1.00  0.00    -0.614 OA 
HETATM   15  O   UNL     1      -9.930  12.643  66.559  1.00  0.00    -0.239 OA 
HETATM   16  C   UNL     1      -8.890   8.503  69.079  1.00  0.00    -0.145 A  
HETATM   17  I   UNL     1      -7.501   7.474  70.405  1.00  0.00    -0.084 I  
BRANCH  12  18
HETATM   18  N   UNL     1     -10.351   8.959  71.027  1.00  0.00    -0.231 N  
HETATM   19  C   UNL     1     -11.227   8.029  71.521  1.00  0.00    -0.255 C  
HETATM   20  H   UNL     1      -9.923   9.570  71.722  1.00  0.00     0.000 HD 
HETATM   21  O   UNL     1     -11.572   8.137  72.698  1.00  0.00    -0.397 OA 
HETATM   22  C   UNL     1     -11.798   6.938  70.654  1.00  0.00    -0.418 C  
ENDBRANCH  12  18
ENDBRANCH   3   6
TORSDOF 2
ENDMDL
MODEL       48
REMARK 921   NORMALIZED FREE ENERGY PREDICTED BY IDOCK:   -4.13 KCAL/MOL
REMARK 922        TOTAL FREE ENERGY PREDICTED BY IDOCK:   -5.05 KCAL/MOL
REMARK 923 INTER-LIGAND FREE ENERGY PREDICTED BY IDOCK:   -4.60 KCAL/MOL
REMARK 924 INTRA-LIGAND FREE ENERGY PREDICTED BY IDOCK:   -0.45 KCAL/MOL
REMARK 927      BINDING AFFINITY PREDICTED BY RF-SCORE:    0.00 PKD
ROOT
HETATM    1  C   UNL     1      -7.876  14.313  68.486  1.00  0.00    -0.143 C  
HETATM    2  N   UNL     1      -8.225  12.918  68.595  1.00  0.00    -0.332 N  
HETATM    3  C   UNL     1      -9.059  12.284  67.678  1.00  0.00    -0.184 C  
HETATM    4  H   UNL     1      -7.848  12.377  69.373  1.00  0.00     0.000 HD 
HETATM    5  O   UNL     1      -9.529  12.849  66.701  1.00  0.00    -0.244 OA 
ENDROOT
BRANCH   3   6
HETATM    6  C   UNL     1      -9.373  10.848  67.966  1.00  0.00    -0.160 A  
HETATM    7  C   UNL     1      -8.690   9.801  67.287  1.00  0.00    -0.132 A  
HETATM    8  I   UNL     1      -6.947  10.229  66.084  1.00  0.00    -0.132 I  
HETATM    9  C   UNL     1      -9.067   8.443  67.472  1.00  0.00    -0.145 A  
HETATM   10  C   UNL     1      -8.549   7.397  66.551  1.00  0.00    -0.132 C  
HETATM   11  C   UNL     1     -10.039   8.134  68.452  1.00  0.00    -0.200 A  
HETATM   12  C   UNL     1     -10.658   9.155  69.209  1.00  0.00    -0.216 A  
HETATM   13  I   UNL     1     -10.640   6.101  68.840  1.00  0.00    -0.411 I  
HETATM   14  O   UNL     1      -7.942   6.357  67.157  1.00  0.00    -0.109 OA 
HETATM   15  O   UNL     1      -8.668   7.485  65.341  1.00  0.00    -0.100 OA 
HETATM   16  C   UNL     1     -10.392  10.498  68.880  1.00  0.00    -0.208 A  
HETATM   17  I   UNL     1     -11.896  11.965  69.453  1.00  0.00    -0.301 I  
BRANCH  12  18
HETATM   18  N   UNL     1     -11.633   8.781  70.162  1.00  0.00    -0.462 N  
HETATM   19  C   UNL     1     -11.473   8.470  71.487  1.00  0.00    -0.287 C  
HETATM   20  H   UNL     1     -12.590   8.736  69.814  1.00  0.00     0.000 HD 
HETATM   21  O   UNL     1     -12.434   7.977  72.079  1.00  0.00    -0.308 OA 
HETATM   22  C   UNL     1     -10.159   8.666  72.195  1.00  0.00    -0.388 C  
ENDBRANCH  12  18
ENDBRANCH   3   6
TORSDOF 2
ENDMDL
MODEL       49
REMARK 921   NORMALIZED FREE ENERGY PREDICTED BY IDOCK:   -4.08 KCAL/MOL
REMARK 922        TOTAL FREE ENERGY PREDICTED BY IDOCK:   -4.99 KCAL/MOL
REMARK 923 INTER-LIGAND FREE ENERGY PREDICTED BY IDOCK:   -4.53 KCAL/MOL
REMARK 924 INTRA-LIGAND FREE ENERGY PREDICTED BY IDOCK:   -0.46 KCAL/MOL
REMARK 927      BINDING AFFINITY PREDICTED BY RF-SCORE:    0.00 PKD
ROOT
HETATM    1  C   UNL     1      -8.336   6.301  64.988  1.00  0.00    -0.099 C  
HETATM    2  N   UNL     1      -9.092   7.071  65.945  1.00  0.00    -0.352 N  
HETATM    3  C   UNL     1      -8.515   8.076  66.716  1.00  0.00    -0.128 C  
HETATM    4  H   UNL     1     -10.086   6.872  66.060  1.00  0.00     0.000 HD 
HETATM    5  O   UNL     1      -7.340   8.401  66.619  1.00  0.00    -0.080 OA 
ENDROOT
BRANCH   3   6
HETATM    6  C   UNL     1      -9.421   8.741  67.706  1.00  0.00    -0.164 A  
HETATM    7  C   UNL     1      -9.702   8.133  68.961  1.00  0.00    -0.163 A  
HETATM    8  I   UNL     1      -8.570   6.417  69.626  1.00  0.00    -0.134 I  
HETATM    9  C   UNL     1     -10.651   8.703  69.852  1.00  0.00    -0.227 A  
HETATM   10  C   UNL     1     -11.145   7.917  71.014  1.00  0.00    -0.250 C  
HETATM   11  C   UNL     1     -11.210   9.963  69.537  1.00  0.00    -0.177 A  
HETATM   12  C   UNL     1     -10.866  10.632  68.339  1.00  0.00    -0.237 A  
HETATM   13  I   UNL     1     -12.620  10.932  70.848  1.00  0.00    -0.425 I  
HETATM   14  O   UNL     1     -11.021   8.529  72.208  1.00  0.00    -0.338 OA 
HETATM   15  O   UNL     1     -11.622   6.802  70.884  1.00  0.00    -0.311 OA 
HETATM   16  C   UNL     1     -10.061   9.962  67.397  1.00  0.00    -0.205 A  
HETATM   17  I   UNL     1     -10.221  10.618  65.327  1.00  0.00    -0.199 I  
BRANCH  12  18
HETATM   18  N   UNL     1     -11.471  11.882  68.075  1.00  0.00    -0.299 N  
HETATM   19  C   UNL     1     -10.937  13.140  68.174  1.00  0.00    -0.251 C  
HETATM   20  H   UNL     1     -12.442  11.842  67.767  1.00  0.00     0.000 HD 
HETATM   21  O   UNL     1     -11.706  14.096  68.087  1.00  0.00    -0.316 OA 
HETATM   22  C   UNL     1      -9.470  13.361  68.435  1.00  0.00    -0.176 C  
ENDBRANCH  12  18
ENDBRANCH   3   6
TORSDOF 2
ENDMDL
MODEL       50
REMARK 921   NORMALIZED FREE ENERGY PREDICTED BY IDOCK:   -4.08 KCAL/MOL
REMARK 922        TOTAL FREE ENERGY PREDICTED BY IDOCK:   -4.99 KCAL/MOL
REMARK 923 INTER-LIGAND FREE ENERGY PREDICTED BY IDOCK:   -4.52 KCAL/MOL
REMARK 924 INTRA-LIGAND FREE ENERGY PREDICTED BY IDOCK:   -0.47 KCAL/MOL
REMARK 927      BINDING AFFINITY PREDICTED BY RF-SCORE:    0.00 PKD
ROOT
HETATM    1  C   UNL     1      -7.134  13.736  67.812  1.00  0.00    -0.167 C  
HETATM    2  N   UNL     1      -7.858  12.774  68.605  1.00  0.00    -0.279 N  
HETATM    3  C   UNL     1      -8.435  11.635  68.050  1.00  0.00    -0.151 C  
HETATM    4  H   UNL     1      -7.951  12.934  69.608  1.00  0.00     0.000 HD 
HETATM    5  O   UNL     1      -8.345  11.350  66.864  1.00  0.00    -0.147 OA 
ENDROOT
BRANCH   3   6
HETATM    6  C   UNL     1      -9.205  10.766  68.997  1.00  0.00    -0.157 A  
HETATM    7  C   UNL     1     -10.545  11.084  69.354  1.00  0.00    -0.174 A  
HETATM    8  I   UNL     1     -11.630  12.617  68.285  1.00  0.00    -0.365 I  
HETATM    9  C   UNL     1     -11.237  10.329  70.340  1.00  0.00    -0.407 A  
HETATM   10  C   UNL     1     -12.513  10.840  70.907  1.00  0.00    -0.402 C  
HETATM   11  C   UNL     1     -10.623   9.167  70.861  1.00  0.00    -0.273 A  
HETATM   12  C   UNL     1      -9.330   8.777  70.444  1.00  0.00    -0.180 A  
HETATM   13  I   UNL     1     -11.613   7.930  72.323  1.00  0.00    -0.436 I  
HETATM   14  O   UNL     1     -13.549   9.983  70.837  1.00  0.00    -0.297 OA 
HETATM   15  O   UNL     1     -12.603  11.955  71.393  1.00  0.00    -0.326 OA 
HETATM   16  C   UNL     1      -8.602   9.640  69.600  1.00  0.00    -0.187 A  
HETATM   17  I   UNL     1      -6.433   9.452  69.640  1.00  0.00    -0.050 I  
BRANCH  12  18
HETATM   18  N   UNL     1      -8.766   7.613  71.014  1.00  0.00    -0.135 N  
HETATM   19  C   UNL     1      -8.701   6.344  70.503  1.00  0.00    -0.144 C  
HETATM   20  H   UNL     1      -8.350   7.735  71.937  1.00  0.00     0.000 HD 
HETATM   21  O   UNL     1      -8.343   5.440  71.259  1.00  0.00    -0.120 OA 
HETATM   22  C   UNL     1      -9.103   6.038  69.084  1.00  0.00    -0.124 C  
ENDBRANCH  12  18
ENDBRANCH   3   6
TORSDOF 2
ENDMDL
MODEL       51
REMARK 921   NORMALIZED FREE ENERGY PREDICTED BY IDOCK:   -4.04 KCAL/MOL
REMARK 922        TOTAL FREE ENERGY PREDICTED BY IDOCK:   -4.94 KCAL/MOL
REMARK 923 INTER-LIGAND FREE ENERGY PREDICTED BY IDOCK:   -4.48 KCAL/MOL
REMARK 924 INTRA-LIGAND FREE ENERGY PREDICTED BY IDOCK:   -0.46 KCAL/MOL
REMARK 927      BINDING AFFINITY PREDICTED BY RF-SCORE:    0.00 PKD
ROOT
HETATM    1  C   UNL     1      -7.991   4.744  70.571  1.00  0.00    -0.072 C  
HETATM    2  N   UNL     1      -8.495   6.015  70.112  1.00  0.00    -0.126 N  
HETATM    3  C   UNL     1      -9.841   6.225  69.827  1.00  0.00    -0.165 C  
HETATM    4  H   UNL     1      -7.840   6.788  69.992  1.00  0.00     0.000 HD 
HETATM    5  O   UNL     1     -10.697   5.363  69.972  1.00  0.00    -0.308 OA 
ENDROOT
BRANCH   3   6
HETATM    6  C   UNL     1     -10.193   7.583  69.302  1.00  0.00    -0.201 A  
HETATM    7  C   UNL     1     -10.878   8.525  70.119  1.00  0.00    -0.233 A  
HETATM    8  I   UNL     1     -11.124   8.168  72.236  1.00  0.00    -0.435 I  
HETATM    9  C   UNL     1     -11.316   9.769  69.588  1.00  0.00    -0.165 A  
HETATM   10  C   UNL     1     -12.272  10.610  70.357  1.00  0.00    -0.345 C  
HETATM   11  C   UNL     1     -10.935  10.119  68.272  1.00  0.00    -0.248 A  
HETATM   12  C   UNL     1     -10.167   9.236  67.478  1.00  0.00    -0.242 A  
HETATM   13  I   UNL     1     -11.509  12.003  67.396  1.00  0.00    -0.312 I  
HETATM   14  O   UNL     1     -11.872  11.880  70.563  1.00  0.00    -0.320 OA 
HETATM   15  O   UNL     1     -13.333  10.171  70.767  1.00  0.00    -0.361 OA 
HETATM   16  C   UNL     1      -9.900   7.943  67.968  1.00  0.00    -0.165 A  
HETATM   17  I   UNL     1      -9.471   6.402  66.490  1.00  0.00    -0.094 I  
BRANCH  12  18
HETATM   18  N   UNL     1      -9.833   9.639  66.165  1.00  0.00    -0.247 N  
HETATM   19  C   UNL     1      -8.658  10.165  65.694  1.00  0.00    -0.155 C  
HETATM   20  H   UNL     1     -10.569   9.522  65.470  1.00  0.00     0.000 HD 
HETATM   21  O   UNL     1      -8.656  10.630  64.554  1.00  0.00    -0.172 OA 
HETATM   22  C   UNL     1      -7.419  10.230  66.548  1.00  0.00    -0.113 C  
ENDBRANCH  12  18
ENDBRANCH   3   6
TORSDOF 2
ENDMDL
MODEL       52
REMARK 921   NORMALIZED FREE ENERGY PREDICTED BY IDOCK:   -4.02 KCAL/MOL
REMARK 922        TOTAL FREE ENERGY PREDICTED BY IDOCK:   -4.92 KCAL/MOL
REMARK 923 INTER-LIGAND FREE ENERGY PREDICTED BY IDOCK:   -4.61 KCAL/MOL
REMARK 924 INTRA-LIGAND FREE ENERGY PREDICTED BY IDOCK:   -0.31 KCAL/MOL
REMARK 927      BINDING AFFINITY PREDICTED BY RF-SCORE:    0.00 PKD
ROOT
HETATM    1  C   UNL     1     -11.391   5.742  72.532  1.00  0.00    -0.307 C  
HETATM    2  N   UNL     1     -10.805   6.862  71.838  1.00  0.00    -0.226 N  
HETATM    3  C   UNL     1     -11.110   7.160  70.512  1.00  0.00    -0.271 C  
HETATM    4  H   UNL     1     -10.143   7.457  72.336  1.00  0.00     0.000 HD 
HETATM    5  O   UNL     1     -11.915   6.518  69.852  1.00  0.00    -0.319 OA 
ENDROOT
BRANCH   3   6
HETATM    6  C   UNL     1     -10.371   8.319  69.917  1.00  0.00    -0.218 A  
HETATM    7  C   UNL     1      -9.071   8.150  69.366  1.00  0.00    -0.148 A  
HETATM    8  I   UNL     1      -8.262   6.171  69.051  1.00  0.00    -0.112 I  
HETATM    9  C   UNL     1      -8.321   9.268  68.908  1.00  0.00    -0.120 A  
HETATM   10  C   UNL     1      -6.872   9.118  68.608  1.00  0.00    -0.062 C  
HETATM   11  C   UNL     1      -8.943  10.537  68.875  1.00  0.00    -0.172 A  
HETATM   12  C   UNL     1     -10.272  10.707  69.326  1.00  0.00    -0.213 A  
HETATM   13  I   UNL     1      -7.906  12.282  68.151  1.00  0.00    -0.161 I  
HETATM   14  O   UNL     1      -6.502   9.524  67.378  1.00  0.00    -0.067 OA 
HETATM   15  O   UNL     1      -6.088   8.658  69.421  1.00  0.00    -0.039 OA 
HETATM   16  C   UNL     1     -10.925   9.618  69.936  1.00  0.00    -0.252 A  
HETATM   17  I   UNL     1     -12.556  10.091  71.300  1.00  0.00    -0.563 I  
BRANCH  12  18
HETATM   18  N   UNL     1     -10.832  12.005  69.282  1.00  0.00    -0.431 N  
HETATM   19  C   UNL     1     -11.448  12.646  68.239  1.00  0.00    -0.313 C  
HETATM   20  H   UNL     1     -10.767  12.539  70.148  1.00  0.00     0.000 HD 
HETATM   21  O   UNL     1     -11.680  13.848  68.365  1.00  0.00    -0.315 OA 
HETATM   22  C   UNL     1     -11.786  11.932  66.957  1.00  0.00    -0.304 C  
ENDBRANCH  12  18
ENDBRANCH   3   6
TORSDOF 2
ENDMDL
MODEL       53
REMARK 921   NORMALIZED FREE ENERGY PREDICTED BY IDOCK:   -4.02 KCAL/MOL
REMARK 922        TOTAL FREE ENERGY PREDICTED BY IDOCK:   -4.92 KCAL/MOL
REMARK 923 INTER-LIGAND FREE ENERGY PREDICTED BY IDOCK:   -4.61 KCAL/MOL
REMARK 924 INTRA-LIGAND FREE ENERGY PREDICTED BY IDOCK:   -0.30 KCAL/MOL
REMARK 927      BINDING AFFINITY PREDICTED BY RF-SCORE:    0.00 PKD
ROOT
HETATM    1  C   UNL     1     -10.042  11.622  63.457  1.00  0.00    -0.425 C  
HETATM    2  N   UNL     1     -10.180  10.633  64.496  1.00  0.00    -0.349 N  
HETATM    3  C   UNL     1      -9.295  10.547  65.567  1.00  0.00    -0.202 C  
HETATM    4  H   UNL     1     -10.955   9.971  64.445  1.00  0.00     0.000 HD 
HETATM    5  O   UNL     1      -8.358  11.319  65.723  1.00  0.00    -0.106 OA 
ENDROOT
BRANCH   3   6
HETATM    6  C   UNL     1      -9.540   9.426  66.530  1.00  0.00    -0.267 A  
HETATM    7  C   UNL     1      -9.121   8.101  66.228  1.00  0.00    -0.185 A  
HETATM    8  I   UNL     1      -7.817   7.719  64.548  1.00  0.00    -0.077 I  
HETATM    9  C   UNL     1      -9.456   7.017  67.085  1.00  0.00    -0.176 A  
HETATM   10  C   UNL     1      -9.268   5.617  66.619  1.00  0.00    -0.134 C  
HETATM   11  C   UNL     1     -10.091   7.294  68.317  1.00  0.00    -0.170 A  
HETATM   12  C   UNL     1     -10.426   8.619  68.681  1.00  0.00    -0.177 A  
HETATM   13  I   UNL     1     -10.594   5.723  69.704  1.00  0.00    -0.330 I  
HETATM   14  O   UNL     1      -8.531   4.841  67.437  1.00  0.00    -0.105 OA 
HETATM   15  O   UNL     1      -9.747   5.214  65.573  1.00  0.00    -0.120 OA 
HETATM   16  C   UNL     1     -10.241   9.648  67.736  1.00  0.00    -0.205 A  
HETATM   17  I   UNL     1     -11.464  11.433  67.978  1.00  0.00    -0.293 I  
BRANCH  12  18
HETATM   18  N   UNL     1     -11.073   8.828  69.920  1.00  0.00    -0.401 N  
HETATM   19  C   UNL     1     -10.529   8.948  71.171  1.00  0.00    -0.266 C  
HETATM   20  H   UNL     1     -12.090   8.898  69.876  1.00  0.00     0.000 HD 
HETATM   21  O   UNL     1     -11.296   8.925  72.134  1.00  0.00    -0.356 OA 
HETATM   22  C   UNL     1      -9.041   9.051  71.382  1.00  0.00    -0.271 C  
ENDBRANCH  12  18
ENDBRANCH   3   6
TORSDOF 2
ENDMDL
MODEL       54
REMARK 921   NORMALIZED FREE ENERGY PREDICTED BY IDOCK:   -4.01 KCAL/MOL
REMARK 922        TOTAL FREE ENERGY PREDICTED BY IDOCK:   -4.90 KCAL/MOL
REMARK 923 INTER-LIGAND FREE ENERGY PREDICTED BY IDOCK:   -4.59 KCAL/MOL
REMARK 924 INTRA-LIGAND FREE ENERGY PREDICTED BY IDOCK:   -0.31 KCAL/MOL
REMARK 927      BINDING AFFINITY PREDICTED BY RF-SCORE:    0.00 PKD
ROOT
HETATM    1  C   UNL     1     -10.522  18.612  67.656  1.00  0.00    -0.423 C  
HETATM    2  N   UNL     1     -10.437  17.179  67.523  1.00  0.00    -0.348 N  
HETATM    3  C   UNL     1      -9.547  16.562  66.648  1.00  0.00    -0.258 C  
HETATM    4  H   UNL     1     -11.052  16.596  68.091  1.00  0.00     0.000 HD 
HETATM    5  O   UNL     1      -8.753  17.184  65.955  1.00  0.00    -0.526 OA 
ENDROOT
BRANCH   3   6
HETATM    6  C   UNL     1      -9.624  15.068  66.584  1.00  0.00    -0.281 A  
HETATM    7  C   UNL     1     -10.559  14.422  65.729  1.00  0.00    -0.318 A  
HETATM    8  I   UNL     1     -11.651  15.552  64.245  1.00  0.00     0.463 I  
HETATM    9  C   UNL     1     -10.715  13.009  65.752  1.00  0.00    -0.291 A  
HETATM   10  C   UNL     1     -11.881  12.379  65.077  1.00  0.00    -0.388 C  
HETATM   11  C   UNL     1      -9.826  12.239  66.536  1.00  0.00    -0.229 A  
HETATM   12  C   UNL     1      -8.823  12.858  67.317  1.00  0.00    -0.206 A  
HETATM   13  I   UNL     1      -9.951  10.088  66.598  1.00  0.00    -0.288 I  
HETATM   14  O   UNL     1     -11.570  11.414  64.190  1.00  0.00    -0.240 OA 
HETATM   15  O   UNL     1     -13.027  12.721  65.313  1.00  0.00    -0.690 OA 
HETATM   16  C   UNL     1      -8.807  14.264  67.410  1.00  0.00    -0.205 A  
HETATM   17  I   UNL     1      -7.852  15.121  69.169  1.00  0.00    -0.174 I  
BRANCH  12  18
HETATM   18  N   UNL     1      -7.975  12.033  68.091  1.00  0.00    -0.144 N  
HETATM   19  C   UNL     1      -6.821  11.392  67.725  1.00  0.00    -0.075 C  
HETATM   20  H   UNL     1      -8.264  11.895  69.060  1.00  0.00     0.000 HD 
HETATM   21  O   UNL     1      -6.354  10.564  68.506  1.00  0.00    -0.050 OA 
HETATM   22  C   UNL     1      -6.164  11.641  66.392  1.00  0.00     0.081 C  
ENDBRANCH  12  18
ENDBRANCH   3   6
TORSDOF 2
ENDMDL
MODEL       55
REMARK 921   NORMALIZED FREE ENERGY PREDICTED BY IDOCK:   -3.99 KCAL/MOL
REMARK 922        TOTAL FREE ENERGY PREDICTED BY IDOCK:   -4.88 KCAL/MOL
REMARK 923 INTER-LIGAND FREE ENERGY PREDICTED BY IDOCK:   -5.09 KCAL/MOL
REMARK 924 INTRA-LIGAND FREE ENERGY PREDICTED BY IDOCK:    0.21 KCAL/MOL
REMARK 927      BINDING AFFINITY PREDICTED BY RF-SCORE:    0.00 PKD
ROOT
HETATM    1  C   UNL     1     -10.593   8.852  71.995  1.00  0.00    -0.318 C  
HETATM    2  N   UNL     1     -10.547   9.674  70.811  1.00  0.00    -0.312 N  
HETATM    3  C   UNL     1     -11.698  10.117  70.166  1.00  0.00    -0.256 C  
HETATM    4  H   UNL     1      -9.638   9.941  70.433  1.00  0.00     0.000 HD 
HETATM    5  O   UNL     1     -12.827   9.871  70.568  1.00  0.00    -0.187 OA 
ENDROOT
BRANCH   3   6
HETATM    6  C   UNL     1     -11.481  10.912  68.915  1.00  0.00    -0.369 A  
HETATM    7  C   UNL     1     -10.859  10.326  67.777  1.00  0.00    -0.292 A  
HETATM    8  I   UNL     1     -10.526   8.193  67.686  1.00  0.00    -0.155 I  
HETATM    9  C   UNL     1     -10.546  11.109  66.632  1.00  0.00    -0.314 A  
HETATM   10  C   UNL     1      -9.647  10.561  65.582  1.00  0.00    -0.226 C  
HETATM   11  C   UNL     1     -10.990  12.450  66.583  1.00  0.00    -0.268 A  
HETATM   12  C   UNL     1     -11.699  13.022  67.664  1.00  0.00    -0.366 A  
HETATM   13  I   UNL     1     -10.607  13.702  64.870  1.00  0.00    -0.398 I  
HETATM   14  O   UNL     1     -10.150  10.591  64.332  1.00  0.00    -0.340 OA 
HETATM   15  O   UNL     1      -8.541  10.119  65.843  1.00  0.00    -0.138 OA 
HETATM   16  C   UNL     1     -11.839  12.277  68.852  1.00  0.00    -0.303 A  
HETATM   17  I   UNL     1     -12.171  13.405  70.685  1.00  0.00    -0.083 I  
BRANCH  12  18
HETATM   18  N   UNL     1     -12.102  14.373  67.559  1.00  0.00    -0.587 N  
HETATM   19  C   UNL     1     -11.394  15.512  67.839  1.00  0.00    -0.308 C  
HETATM   20  H   UNL     1     -13.055  14.520  67.227  1.00  0.00     0.000 HD 
HETATM   21  O   UNL     1     -12.011  16.577  67.865  1.00  0.00     0.347 OA 
HETATM   22  C   UNL     1      -9.923  15.473  68.160  1.00  0.00    -0.217 C  
ENDBRANCH  12  18
ENDBRANCH   3   6
TORSDOF 2
ENDMDL
MODEL       56
REMARK 921   NORMALIZED FREE ENERGY PREDICTED BY IDOCK:   -3.99 KCAL/MOL
REMARK 922        TOTAL FREE ENERGY PREDICTED BY IDOCK:   -4.88 KCAL/MOL
REMARK 923 INTER-LIGAND FREE ENERGY PREDICTED BY IDOCK:   -4.45 KCAL/MOL
REMARK 924 INTRA-LIGAND FREE ENERGY PREDICTED BY IDOCK:   -0.43 KCAL/MOL
REMARK 927      BINDING AFFINITY PREDICTED BY RF-SCORE:    0.00 PKD
ROOT
HETATM    1  C   UNL     1      -6.936  17.865  68.762  1.00  0.00    -0.262 C  
HETATM    2  N   UNL     1      -7.590  16.586  68.635  1.00  0.00    -0.200 N  
HETATM    3  C   UNL     1      -7.283  15.690  67.614  1.00  0.00    -0.173 C  
HETATM    4  H   UNL     1      -8.304  16.329  69.317  1.00  0.00     0.000 HD 
HETATM    5  O   UNL     1      -6.420  15.905  66.774  1.00  0.00    -0.255 OA 
ENDROOT
BRANCH   3   6
HETATM    6  C   UNL     1      -8.094  14.431  67.585  1.00  0.00    -0.188 A  
HETATM    7  C   UNL     1      -9.440  14.441  67.126  1.00  0.00    -0.222 A  
HETATM    8  I   UNL     1     -10.248  16.183  66.134  1.00  0.00    -0.374 I  
HETATM    9  C   UNL     1     -10.248  13.274  67.207  1.00  0.00    -0.240 A  
HETATM   10  C   UNL     1     -11.717  13.371  66.999  1.00  0.00    -0.381 C  
HETATM   11  C   UNL     1      -9.651  12.061  67.620  1.00  0.00    -0.188 A  
HETATM   12  C   UNL     1      -8.286  12.009  67.985  1.00  0.00    -0.156 A  
HETATM   13  I   UNL     1     -10.780  10.228  67.727  1.00  0.00    -0.322 I  
HETATM   14  O   UNL     1     -12.214  12.540  66.062  1.00  0.00    -0.605 OA 
HETATM   15  O   UNL     1     -12.409  14.150  67.632  1.00  0.00    -0.273 OA 
HETATM   16  C   UNL     1      -7.560  13.214  68.062  1.00  0.00    -0.144 A  
HETATM   17  I   UNL     1      -5.808  13.222  69.357  1.00  0.00    -0.114 I  
BRANCH  12  18
HETATM   18  N   UNL     1      -7.752  10.768  68.403  1.00  0.00    -0.106 N  
HETATM   19  C   UNL     1      -7.104   9.813  67.665  1.00  0.00    -0.088 C  
HETATM   20  H   UNL     1      -7.867  10.554  69.393  1.00  0.00     0.000 HD 
HETATM   21  O   UNL     1      -6.903   8.720  68.195  1.00  0.00    -0.067 OA 
HETATM   22  C   UNL     1      -6.695  10.056  66.236  1.00  0.00    -0.094 C  
ENDBRANCH  12  18
ENDBRANCH   3   6
TORSDOF 2
ENDMDL
MODEL       57
REMARK 921   NORMALIZED FREE ENERGY PREDICTED BY IDOCK:   -3.96 KCAL/MOL
REMARK 922        TOTAL FREE ENERGY PREDICTED BY IDOCK:   -4.85 KCAL/MOL
REMARK 923 INTER-LIGAND FREE ENERGY PREDICTED BY IDOCK:   -4.39 KCAL/MOL
REMARK 924 INTRA-LIGAND FREE ENERGY PREDICTED BY IDOCK:   -0.46 KCAL/MOL
REMARK 927      BINDING AFFINITY PREDICTED BY RF-SCORE:    0.00 PKD
ROOT
HETATM    1  C   UNL     1      -9.268   9.859  62.780  1.00  0.00    -0.268 C  
HETATM    2  N   UNL     1      -9.703   9.616  64.133  1.00  0.00    -0.413 N  
HETATM    3  C   UNL     1      -9.048  10.158  65.236  1.00  0.00    -0.195 C  
HETATM    4  H   UNL     1     -10.520   9.025  64.288  1.00  0.00     0.000 HD 
HETATM    5  O   UNL     1      -8.081  10.901  65.140  1.00  0.00    -0.057 OA 
ENDROOT
BRANCH   3   6
HETATM    6  C   UNL     1      -9.587   9.760  66.575  1.00  0.00    -0.249 A  
HETATM    7  C   UNL     1     -10.536  10.577  67.251  1.00  0.00    -0.250 A  
HETATM    8  I   UNL     1     -11.491  12.224  66.229  1.00  0.00    -0.354 I  
HETATM    9  C   UNL     1     -10.960  10.263  68.571  1.00  0.00    -0.294 A  
HETATM   10  C   UNL     1     -11.717  11.266  69.366  1.00  0.00    -0.339 C  
HETATM   11  C   UNL     1     -10.534   9.047  69.152  1.00  0.00    -0.225 A  
HETATM   12  C   UNL     1      -9.669   8.172  68.455  1.00  0.00    -0.161 A  
HETATM   13  I   UNL     1     -11.163   8.460  71.128  1.00  0.00    -0.363 I  
HETATM   14  O   UNL     1     -12.889  10.827  69.867  1.00  0.00    -0.190 OA 
HETATM   15  O   UNL     1     -11.301  12.398  69.543  1.00  0.00    -0.245 OA 
HETATM   16  C   UNL     1      -9.127   8.593  67.224  1.00  0.00    -0.133 A  
HETATM   17  I   UNL     1      -7.259   7.661  66.604  1.00  0.00    -0.091 I  
BRANCH  12  18
HETATM   18  N   UNL     1      -9.267   6.978  69.097  1.00  0.00    -0.139 N  
HETATM   19  C   UNL     1      -9.711   5.697  68.899  1.00  0.00    -0.138 C  
HETATM   20  H   UNL     1      -8.545   7.086  69.809  1.00  0.00     0.000 HD 
HETATM   21  O   UNL     1      -9.364   4.839  69.711  1.00  0.00    -0.117 OA 
HETATM   22  C   UNL     1     -10.636   5.345  67.763  1.00  0.00    -0.172 C  
ENDBRANCH  12  18
ENDBRANCH   3   6
TORSDOF 2
ENDMDL
MODEL       58
REMARK 921   NORMALIZED FREE ENERGY PREDICTED BY IDOCK:   -3.96 KCAL/MOL
REMARK 922        TOTAL FREE ENERGY PREDICTED BY IDOCK:   -4.85 KCAL/MOL
REMARK 923 INTER-LIGAND FREE ENERGY PREDICTED BY IDOCK:   -4.39 KCAL/MOL
REMARK 924 INTRA-LIGAND FREE ENERGY PREDICTED BY IDOCK:   -0.46 KCAL/MOL
REMARK 927      BINDING AFFINITY PREDICTED BY RF-SCORE:    0.00 PKD
ROOT
HETATM    1  C   UNL     1     -11.394   6.393  69.825  1.00  0.00    -0.427 C  
HETATM    2  N   UNL     1     -10.851   7.630  69.319  1.00  0.00    -0.396 N  
HETATM    3  C   UNL     1     -10.171   8.533  70.131  1.00  0.00    -0.195 C  
HETATM    4  H   UNL     1     -10.971   7.850  68.330  1.00  0.00     0.000 HD 
HETATM    5  O   UNL     1      -9.956   8.333  71.319  1.00  0.00    -0.178 OA 
ENDROOT
BRANCH   3   6
HETATM    6  C   UNL     1      -9.722   9.798  69.467  1.00  0.00    -0.228 A  
HETATM    7  C   UNL     1      -8.378   9.955  69.030  1.00  0.00    -0.130 A  
HETATM    8  I   UNL     1      -7.032   8.265  68.989  1.00  0.00    -0.063 I  
HETATM    9  C   UNL     1      -7.921  11.196  68.506  1.00  0.00    -0.143 A  
HETATM   10  C   UNL     1      -6.464  11.435  68.328  1.00  0.00    -0.056 C  
HETATM   11  C   UNL     1      -8.859  12.231  68.292  1.00  0.00    -0.178 A  
HETATM   12  C   UNL     1     -10.222  12.058  68.627  1.00  0.00    -0.177 A  
HETATM   13  I   UNL     1      -8.272  14.130  67.457  1.00  0.00    -0.192 I  
HETATM   14  O   UNL     1      -6.100  11.823  67.090  1.00  0.00    -0.113 OA 
HETATM   15  O   UNL     1      -5.668  11.285  69.239  1.00  0.00    -0.041 OA 
HETATM   16  C   UNL     1     -10.609  10.885  69.305  1.00  0.00    -0.217 A  
HETATM   17  I   UNL     1     -12.432  10.994  70.492  1.00  0.00    -0.352 I  
BRANCH  12  18
HETATM   18  N   UNL     1     -11.107  13.138  68.403  1.00  0.00    -0.254 N  
HETATM   19  C   UNL     1     -11.863  13.420  67.296  1.00  0.00    -0.376 C  
HETATM   20  H   UNL     1     -11.194  13.800  69.173  1.00  0.00     0.000 HD 
HETATM   21  O   UNL     1     -12.410  14.522  67.242  1.00  0.00    -0.276 OA 
HETATM   22  C   UNL     1     -11.988  12.449  66.151  1.00  0.00    -0.397 C  
ENDBRANCH  12  18
ENDBRANCH   3   6
TORSDOF 2
ENDMDL
MODEL       59
REMARK 921   NORMALIZED FREE ENERGY PREDICTED BY IDOCK:   -3.95 KCAL/MOL
REMARK 922        TOTAL FREE ENERGY PREDICTED BY IDOCK:   -4.84 KCAL/MOL
REMARK 923 INTER-LIGAND FREE ENERGY PREDICTED BY IDOCK:   -4.79 KCAL/MOL
REMARK 924 INTRA-LIGAND FREE ENERGY PREDICTED BY IDOCK:   -0.05 KCAL/MOL
REMARK 927      BINDING AFFINITY PREDICTED BY RF-SCORE:    0.00 PKD
ROOT
HETATM    1  C   UNL     1      -6.383   5.194  71.501  1.00  0.00    -0.031 C  
HETATM    2  N   UNL     1      -7.394   6.221  71.472  1.00  0.00    -0.087 N  
HETATM    3  C   UNL     1      -8.427   6.225  70.538  1.00  0.00    -0.138 C  
HETATM    4  H   UNL     1      -7.352   6.972  72.162  1.00  0.00     0.000 HD 
HETATM    5  O   UNL     1      -8.571   5.348  69.698  1.00  0.00    -0.101 OA 
ENDROOT
BRANCH   3   6
HETATM    6  C   UNL     1      -9.361   7.394  70.603  1.00  0.00    -0.160 A  
HETATM    7  C   UNL     1     -10.604   7.297  71.288  1.00  0.00    -0.220 A  
HETATM    8  I   UNL     1     -11.034   5.593  72.545  1.00  0.00    -0.322 I  
HETATM    9  C   UNL     1     -11.542   8.364  71.252  1.00  0.00    -0.326 A  
HETATM   10  C   UNL     1     -12.937   8.143  71.719  1.00  0.00    -0.342 C  
HETATM   11  C   UNL     1     -11.164   9.583  70.644  1.00  0.00    -0.302 A  
HETATM   12  C   UNL     1      -9.891   9.733  70.045  1.00  0.00    -0.251 A  
HETATM   13  I   UNL     1     -12.498  11.275  70.583  1.00  0.00    -0.302 I  
HETATM   14  O   UNL     1     -13.367   9.010  72.656  1.00  0.00    -0.458 OA 
HETATM   15  O   UNL     1     -13.629   7.240  71.281  1.00  0.00    -0.365 OA 
HETATM   16  C   UNL     1      -9.055   8.604  69.943  1.00  0.00    -0.151 A  
HETATM   17  I   UNL     1      -7.549   8.640  68.370  1.00  0.00    -0.098 I  
BRANCH  12  18
HETATM   18  N   UNL     1      -9.580  10.972  69.441  1.00  0.00    -0.422 N  
HETATM   19  C   UNL     1      -9.855  11.409  68.172  1.00  0.00    -0.191 C  
HETATM   20  H   UNL     1      -9.079  11.634  70.033  1.00  0.00     0.000 HD 
HETATM   21  O   UNL     1      -9.313  12.448  67.795  1.00  0.00    -0.183 OA 
HETATM   22  C   UNL     1     -10.743  10.629  67.239  1.00  0.00    -0.338 C  
ENDBRANCH  12  18
ENDBRANCH   3   6
TORSDOF 2
ENDMDL
MODEL       60
REMARK 921   NORMALIZED FREE ENERGY PREDICTED BY IDOCK:   -3.95 KCAL/MOL
REMARK 922        TOTAL FREE ENERGY PREDICTED BY IDOCK:   -4.83 KCAL/MOL
REMARK 923 INTER-LIGAND FREE ENERGY PREDICTED BY IDOCK:   -4.36 KCAL/MOL
REMARK 924 INTRA-LIGAND FREE ENERGY PREDICTED BY IDOCK:   -0.48 KCAL/MOL
REMARK 927      BINDING AFFINITY PREDICTED BY RF-SCORE:    0.00 PKD
ROOT
HETATM    1  C   UNL     1     -12.213  14.770  64.163  1.00  0.00    -0.295 C  
HETATM    2  N   UNL     1     -11.054  14.128  64.731  1.00  0.00    -0.375 N  
HETATM    3  C   UNL     1     -11.137  12.934  65.443  1.00  0.00    -0.281 C  
HETATM    4  H   UNL     1     -10.141  14.564  64.607  1.00  0.00     0.000 HD 
HETATM    5  O   UNL     1     -12.186  12.329  65.612  1.00  0.00    -0.605 OA 
ENDROOT
BRANCH   3   6
HETATM    6  C   UNL     1      -9.851  12.428  66.020  1.00  0.00    -0.268 A  
HETATM    7  C   UNL     1      -9.114  11.399  65.370  1.00  0.00    -0.103 A  
HETATM    8  I   UNL     1      -9.633  10.778  63.367  1.00  0.00    -0.415 I  
HETATM    9  C   UNL     1      -7.957  10.837  65.974  1.00  0.00    -0.154 A  
HETATM   10  C   UNL     1      -7.372   9.582  65.432  1.00  0.00    -0.099 C  
HETATM   11  C   UNL     1      -7.464  11.413  67.168  1.00  0.00    -0.138 A  
HETATM   12  C   UNL     1      -8.127  12.503  67.777  1.00  0.00    -0.164 A  
HETATM   13  I   UNL     1      -5.688  10.662  68.132  1.00  0.00    -0.041 I  
HETATM   14  O   UNL     1      -6.061   9.651  65.130  1.00  0.00    -0.068 OA 
HETATM   15  O   UNL     1      -8.038   8.573  65.275  1.00  0.00    -0.121 OA 
HETATM   16  C   UNL     1      -9.365  12.923  67.251  1.00  0.00    -0.212 A  
HETATM   17  I   UNL     1     -10.701  13.977  68.609  1.00  0.00    -0.265 I  
BRANCH  12  18
HETATM   18  N   UNL     1      -7.591  13.024  68.977  1.00  0.00    -0.323 N  
HETATM   19  C   UNL     1      -6.714  14.062  69.154  1.00  0.00    -0.112 C  
HETATM   20  H   UNL     1      -7.902  12.562  69.831  1.00  0.00     0.000 HD 
HETATM   21  O   UNL     1      -6.228  14.214  70.275  1.00  0.00    -0.153 OA 
HETATM   22  C   UNL     1      -6.306  14.960  68.016  1.00  0.00    -0.163 C  
ENDBRANCH  12  18
ENDBRANCH   3   6
TORSDOF 2
ENDMDL
MODEL       61
REMARK 921   NORMALIZED FREE ENERGY PREDICTED BY IDOCK:   -3.93 KCAL/MOL
REMARK 922        TOTAL FREE ENERGY PREDICTED BY IDOCK:   -4.82 KCAL/MOL
REMARK 923 INTER-LIGAND FREE ENERGY PREDICTED BY IDOCK:   -4.44 KCAL/MOL
REMARK 924 INTRA-LIGAND FREE ENERGY PREDICTED BY IDOCK:   -0.37 KCAL/MOL
REMARK 927      BINDING AFFINITY PREDICTED BY RF-SCORE:    0.00 PKD
ROOT
HETATM    1  C   UNL     1     -11.176   4.932  73.231  1.00  0.00    -0.345 C  
HETATM    2  N   UNL     1     -10.554   5.915  72.378  1.00  0.00    -0.207 N  
HETATM    3  C   UNL     1     -10.080   7.130  72.864  1.00  0.00    -0.210 C  
HETATM    4  H   UNL     1     -10.460   5.713  71.383  1.00  0.00     0.000 HD 
HETATM    5  O   UNL     1     -10.124   7.441  74.047  1.00  0.00    -0.269 OA 
ENDROOT
BRANCH   3   6
HETATM    6  C   UNL     1      -9.516   8.067  71.840  1.00  0.00    -0.240 A  
HETATM    7  C   UNL     1      -8.110   8.206  71.675  1.00  0.00    -0.124 A  
HETATM    8  I   UNL     1      -6.750   6.830  72.637  1.00  0.00    -0.062 I  
HETATM    9  C   UNL     1      -7.572   9.178  70.787  1.00  0.00    -0.149 A  
HETATM   10  C   UNL     1      -6.124   9.510  70.838  1.00  0.00    -0.077 C  
HETATM   11  C   UNL     1      -8.457   9.910  69.963  1.00  0.00    -0.165 A  
HETATM   12  C   UNL     1      -9.855   9.714  70.042  1.00  0.00    -0.246 A  
HETATM   13  I   UNL     1      -7.735  11.370  68.551  1.00  0.00    -0.115 I  
HETATM   14  O   UNL     1      -5.476   9.410  69.661  1.00  0.00    -0.034 OA 
HETATM   15  O   UNL     1      -5.573   9.843  71.873  1.00  0.00    -0.221 OA 
HETATM   16  C   UNL     1     -10.365   8.874  71.051  1.00  0.00    -0.253 A  
HETATM   17  I   UNL     1     -12.427   9.217  71.664  1.00  0.00    -0.502 I  
BRANCH  12  18
HETATM   18  N   UNL     1     -10.687  10.488  69.201  1.00  0.00    -0.215 N  
HETATM   19  C   UNL     1     -11.070  10.251  67.907  1.00  0.00    -0.276 C  
HETATM   20  H   UNL     1     -11.054  11.344  69.616  1.00  0.00     0.000 HD 
HETATM   21  O   UNL     1     -11.636  11.162  67.302  1.00  0.00    -0.514 OA 
HETATM   22  C   UNL     1     -10.766   8.948  67.215  1.00  0.00    -0.219 C  
ENDBRANCH  12  18
ENDBRANCH   3   6
TORSDOF 2
ENDMDL
MODEL       62
REMARK 921   NORMALIZED FREE ENERGY PREDICTED BY IDOCK:   -3.93 KCAL/MOL
REMARK 922        TOTAL FREE ENERGY PREDICTED BY IDOCK:   -4.82 KCAL/MOL
REMARK 923 INTER-LIGAND FREE ENERGY PREDICTED BY IDOCK:   -4.32 KCAL/MOL
REMARK 924 INTRA-LIGAND FREE ENERGY PREDICTED BY IDOCK:   -0.50 KCAL/MOL
REMARK 927      BINDING AFFINITY PREDICTED BY RF-SCORE:    0.00 PKD
ROOT
HETATM    1  C   UNL     1     -10.885   6.253  73.094  1.00  0.00    -0.254 C  
HETATM    2  N   UNL     1     -10.414   6.994  71.951  1.00  0.00    -0.200 N  
HETATM    3  C   UNL     1     -11.163   7.121  70.784  1.00  0.00    -0.279 C  
HETATM    4  H   UNL     1      -9.498   7.442  71.999  1.00  0.00     0.000 HD 
HETATM    5  O   UNL     1     -12.281   6.644  70.653  1.00  0.00    -0.377 OA 
ENDROOT
BRANCH   3   6
HETATM    6  C   UNL     1     -10.507   7.872  69.666  1.00  0.00    -0.226 A  
HETATM    7  C   UNL     1     -10.853   9.224  69.394  1.00  0.00    -0.169 A  
HETATM    8  I   UNL     1     -12.068  10.347  70.784  1.00  0.00    -0.503 I  
HETATM    9  C   UNL     1     -10.319   9.901  68.263  1.00  0.00    -0.232 A  
HETATM   10  C   UNL     1     -10.904  11.198  67.829  1.00  0.00    -0.239 C  
HETATM   11  C   UNL     1      -9.326   9.257  67.491  1.00  0.00    -0.127 A  
HETATM   12  C   UNL     1      -8.895   7.948  67.806  1.00  0.00    -0.122 A  
HETATM   13  I   UNL     1      -8.421  10.220  65.788  1.00  0.00    -0.188 I  
HETATM   14  O   UNL     1     -10.019  12.207  67.705  1.00  0.00    -0.190 OA 
HETATM   15  O   UNL     1     -12.096  11.328  67.609  1.00  0.00    -0.600 OA 
HETATM   16  C   UNL     1      -9.567   7.240  68.822  1.00  0.00    -0.142 A  
HETATM   17  I   UNL     1      -9.464   5.066  68.736  1.00  0.00    -0.235 I  
BRANCH  12  18
HETATM   18  N   UNL     1      -7.909   7.353  66.986  1.00  0.00    -0.113 N  
HETATM   19  C   UNL     1      -6.555   7.276  67.178  1.00  0.00    -0.063 C  
HETATM   20  H   UNL     1      -8.255   6.921  66.129  1.00  0.00     0.000 HD 
HETATM   21  O   UNL     1      -5.865   6.887  66.235  1.00  0.00    -0.028 OA 
HETATM   22  C   UNL     1      -5.911   7.699  68.472  1.00  0.00    -0.031 C  
ENDBRANCH  12  18
ENDBRANCH   3   6
TORSDOF 2
ENDMDL
MODEL       63
REMARK 921   NORMALIZED FREE ENERGY PREDICTED BY IDOCK:   -3.93 KCAL/MOL
REMARK 922        TOTAL FREE ENERGY PREDICTED BY IDOCK:   -4.81 KCAL/MOL
REMARK 923 INTER-LIGAND FREE ENERGY PREDICTED BY IDOCK:   -4.76 KCAL/MOL
REMARK 924 INTRA-LIGAND FREE ENERGY PREDICTED BY IDOCK:   -0.06 KCAL/MOL
REMARK 927      BINDING AFFINITY PREDICTED BY RF-SCORE:    0.00 PKD
ROOT
HETATM    1  C   UNL     1     -10.768  14.320  66.906  1.00  0.00    -0.290 C  
HETATM    2  N   UNL     1     -10.230  13.062  67.359  1.00  0.00    -0.229 N  
HETATM    3  C   UNL     1     -10.914  11.859  67.204  1.00  0.00    -0.269 C  
HETATM    4  H   UNL     1      -9.315  13.052  67.809  1.00  0.00     0.000 HD 
HETATM    5  O   UNL     1     -12.001  11.775  66.649  1.00  0.00    -0.561 OA 
ENDROOT
BRANCH   3   6
HETATM    6  C   UNL     1     -10.246  10.649  67.782  1.00  0.00    -0.212 A  
HETATM    7  C   UNL     1      -9.464   9.787  66.965  1.00  0.00    -0.157 A  
HETATM    8  I   UNL     1      -8.925  10.372  64.956  1.00  0.00    -0.280 I  
HETATM    9  C   UNL     1      -8.927   8.578  67.485  1.00  0.00    -0.142 A  
HETATM   10  C   UNL     1      -8.367   7.556  66.560  1.00  0.00    -0.126 C  
HETATM   11  C   UNL     1      -9.061   8.312  68.867  1.00  0.00    -0.147 A  
HETATM   12  C   UNL     1      -9.750   9.208  69.716  1.00  0.00    -0.181 A  
HETATM   13  I   UNL     1      -8.238   6.529  69.757  1.00  0.00    -0.129 I  
HETATM   14  O   UNL     1      -7.109   7.165  66.842  1.00  0.00    -0.077 OA 
HETATM   15  O   UNL     1      -9.005   7.116  65.620  1.00  0.00    -0.081 OA 
HETATM   16  C   UNL     1     -10.420  10.306  69.142  1.00  0.00    -0.224 A  
HETATM   17  I   UNL     1     -12.073  11.151  70.280  1.00  0.00    -0.437 I  
BRANCH  12  18
HETATM   18  N   UNL     1      -9.861   8.877  71.086  1.00  0.00    -0.248 N  
HETATM   19  C   UNL     1     -10.802   8.105  71.715  1.00  0.00    -0.256 C  
HETATM   20  H   UNL     1      -9.140   9.269  71.691  1.00  0.00     0.000 HD 
HETATM   21  O   UNL     1     -10.820   8.115  72.946  1.00  0.00    -0.357 OA 
HETATM   22  C   UNL     1     -11.820   7.308  70.943  1.00  0.00    -0.351 C  
ENDBRANCH  12  18
ENDBRANCH   3   6
TORSDOF 2
ENDMDL
MODEL       64
REMARK 921   NORMALIZED FREE ENERGY PREDICTED BY IDOCK:   -3.90 KCAL/MOL
REMARK 922        TOTAL FREE ENERGY PREDICTED BY IDOCK:   -4.78 KCAL/MOL
REMARK 923 INTER-LIGAND FREE ENERGY PREDICTED BY IDOCK:   -4.73 KCAL/MOL
REMARK 924 INTRA-LIGAND FREE ENERGY PREDICTED BY IDOCK:   -0.06 KCAL/MOL
REMARK 927      BINDING AFFINITY PREDICTED BY RF-SCORE:    0.00 PKD
ROOT
HETATM    1  C   UNL     1     -12.275  12.055  63.365  1.00  0.00    -0.519 C  
HETATM    2  N   UNL     1     -11.154  12.155  64.266  1.00  0.00    -0.322 N  
HETATM    3  C   UNL     1     -11.312  12.257  65.645  1.00  0.00    -0.350 C  
HETATM    4  H   UNL     1     -10.210  12.151  63.879  1.00  0.00     0.000 HD 
HETATM    5  O   UNL     1     -12.405  12.237  66.196  1.00  0.00    -0.588 OA 
ENDROOT
BRANCH   3   6
HETATM    6  C   UNL     1     -10.051  12.415  66.438  1.00  0.00    -0.252 A  
HETATM    7  C   UNL     1      -9.510  11.324  67.172  1.00  0.00    -0.170 A  
HETATM    8  I   UNL     1     -10.282   9.324  66.895  1.00  0.00    -0.256 I  
HETATM    9  C   UNL     1      -8.380  11.501  68.017  1.00  0.00    -0.146 A  
HETATM   10  C   UNL     1      -8.006  10.440  68.990  1.00  0.00    -0.131 C  
HETATM   11  C   UNL     1      -7.712  12.747  68.008  1.00  0.00    -0.137 A  
HETATM   12  C   UNL     1      -8.177  13.815  67.206  1.00  0.00    -0.159 A  
HETATM   13  I   UNL     1      -5.962  13.097  69.216  1.00  0.00    -0.114 I  
HETATM   14  O   UNL     1      -6.730  10.017  68.905  1.00  0.00    -0.052 OA 
HETATM   15  O   UNL     1      -8.803   9.993  69.796  1.00  0.00    -0.203 OA 
HETATM   16  C   UNL     1      -9.397  13.664  66.517  1.00  0.00    -0.228 A  
HETATM   17  I   UNL     1     -10.463  15.491  65.998  1.00  0.00    -0.381 I  
BRANCH  12  18
HETATM   18  N   UNL     1      -7.474  15.041  67.253  1.00  0.00    -0.203 N  
HETATM   19  C   UNL     1      -7.629  16.095  68.115  1.00  0.00    -0.137 C  
HETATM   20  H   UNL     1      -6.749  15.157  66.546  1.00  0.00     0.000 HD 
HETATM   21  O   UNL     1      -7.044  17.144  67.846  1.00  0.00    -0.156 OA 
HETATM   22  C   UNL     1      -8.525  16.007  69.322  1.00  0.00    -0.224 C  
ENDBRANCH  12  18
ENDBRANCH   3   6
TORSDOF 2
ENDMDL
MODEL       65
REMARK 921   NORMALIZED FREE ENERGY PREDICTED BY IDOCK:   -3.90 KCAL/MOL
REMARK 922        TOTAL FREE ENERGY PREDICTED BY IDOCK:   -4.78 KCAL/MOL
REMARK 923 INTER-LIGAND FREE ENERGY PREDICTED BY IDOCK:   -4.49 KCAL/MOL
REMARK 924 INTRA-LIGAND FREE ENERGY PREDICTED BY IDOCK:   -0.29 KCAL/MOL
REMARK 927      BINDING AFFINITY PREDICTED BY RF-SCORE:    0.00 PKD
ROOT
HETATM    1  C   UNL     1      -7.442  15.121  67.245  1.00  0.00    -0.194 C  
HETATM    2  N   UNL     1      -8.281  14.257  68.037  1.00  0.00    -0.141 N  
HETATM    3  C   UNL     1      -9.325  13.520  67.484  1.00  0.00    -0.220 C  
HETATM    4  H   UNL     1      -8.104  14.183  69.038  1.00  0.00     0.000 HD 
HETATM    5  O   UNL     1      -9.587  13.525  66.289  1.00  0.00    -0.272 OA 
ENDROOT
BRANCH   3   6
HETATM    6  C   UNL     1     -10.141  12.718  68.450  1.00  0.00    -0.226 A  
HETATM    7  C   UNL     1      -9.872  11.337  68.662  1.00  0.00    -0.202 A  
HETATM    8  I   UNL     1      -8.073  10.437  67.872  1.00  0.00    -0.104 I  
HETATM    9  C   UNL     1     -10.716  10.547  69.489  1.00  0.00    -0.291 A  
HETATM   10  C   UNL     1     -10.597   9.065  69.471  1.00  0.00    -0.225 C  
HETATM   11  C   UNL     1     -11.749  11.185  70.214  1.00  0.00    -0.341 A  
HETATM   12  C   UNL     1     -11.969  12.577  70.093  1.00  0.00    -0.301 A  
HETATM   13  I   UNL     1     -13.050  10.081  71.531  1.00  0.00    -0.498 I  
HETATM   14  O   UNL     1     -10.416   8.495  70.679  1.00  0.00    -0.194 OA 
HETATM   15  O   UNL     1     -10.657   8.424  68.436  1.00  0.00    -0.190 OA 
HETATM   16  C   UNL     1     -11.231  13.299  69.135  1.00  0.00    -0.251 A  
HETATM   17  I   UNL     1     -12.113  15.154  68.412  1.00  0.00     0.386 I  
BRANCH  12  18
HETATM   18  N   UNL     1     -13.028  13.152  70.833  1.00  0.00    -0.135 N  
HETATM   19  C   UNL     1     -12.974  14.058  71.859  1.00  0.00    -0.360 C  
HETATM   20  H   UNL     1     -13.964  12.848  70.566  1.00  0.00     0.000 HD 
HETATM   21  O   UNL     1     -14.009  14.269  72.491  1.00  0.00    -0.520 OA 
HETATM   22  C   UNL     1     -11.689  14.740  72.249  1.00  0.00    -0.213 C  
ENDBRANCH  12  18
ENDBRANCH   3   6
TORSDOF 2
ENDMDL
MODEL       66
REMARK 921   NORMALIZED FREE ENERGY PREDICTED BY IDOCK:   -3.89 KCAL/MOL
REMARK 922        TOTAL FREE ENERGY PREDICTED BY IDOCK:   -4.78 KCAL/MOL
REMARK 923 INTER-LIGAND FREE ENERGY PREDICTED BY IDOCK:   -4.99 KCAL/MOL
REMARK 924 INTRA-LIGAND FREE ENERGY PREDICTED BY IDOCK:    0.22 KCAL/MOL
REMARK 927      BINDING AFFINITY PREDICTED BY RF-SCORE:    0.00 PKD
ROOT
HETATM    1  C   UNL     1     -11.590  14.244  70.126  1.00  0.00    -0.246 C  
HETATM    2  N   UNL     1     -10.987  13.561  69.008  1.00  0.00    -0.325 N  
HETATM    3  C   UNL     1     -11.447  12.329  68.551  1.00  0.00    -0.303 C  
HETATM    4  H   UNL     1     -10.195  13.997  68.536  1.00  0.00     0.000 HD 
HETATM    5  O   UNL     1     -12.408  11.751  69.039  1.00  0.00    -0.254 OA 
ENDROOT
BRANCH   3   6
HETATM    6  C   UNL     1     -10.674  11.724  67.419  1.00  0.00    -0.277 A  
HETATM    7  C   UNL     1     -10.923  12.115  66.075  1.00  0.00    -0.293 A  
HETATM    8  I   UNL     1     -12.162  13.832  65.644  1.00  0.00    -0.539 I  
HETATM    9  C   UNL     1     -10.276  11.460  64.992  1.00  0.00    -0.333 A  
HETATM   10  C   UNL     1     -10.754  11.676  63.600  1.00  0.00    -0.435 C  
HETATM   11  C   UNL     1      -9.271  10.506  65.276  1.00  0.00    -0.200 A  
HETATM   12  C   UNL     1      -8.939  10.176  66.610  1.00  0.00    -0.140 A  
HETATM   13  I   UNL     1      -8.199   9.496  63.702  1.00  0.00    -0.215 I  
HETATM   14  O   UNL     1      -9.806  12.074  62.730  1.00  0.00    -0.187 OA 
HETATM   15  O   UNL     1     -11.919  11.505  63.284  1.00  0.00    -0.303 OA 
HETATM   16  C   UNL     1      -9.718  10.711  67.655  1.00  0.00    -0.165 A  
HETATM   17  I   UNL     1      -9.734   9.607  69.531  1.00  0.00    -0.272 I  
BRANCH  12  18
HETATM   18  N   UNL     1      -7.936   9.203  66.827  1.00  0.00    -0.104 N  
HETATM   19  C   UNL     1      -8.048   7.839  66.868  1.00  0.00    -0.116 C  
HETATM   20  H   UNL     1      -6.995   9.570  66.973  1.00  0.00     0.000 HD 
HETATM   21  O   UNL     1      -7.078   7.196  67.270  1.00  0.00    -0.079 OA 
HETATM   22  C   UNL     1      -9.326   7.136  66.490  1.00  0.00    -0.208 C  
ENDBRANCH  12  18
ENDBRANCH   3   6
TORSDOF 2
ENDMDL
MODEL       67
REMARK 921   NORMALIZED FREE ENERGY PREDICTED BY IDOCK:   -3.89 KCAL/MOL
REMARK 922        TOTAL FREE ENERGY PREDICTED BY IDOCK:   -4.77 KCAL/MOL
REMARK 923 INTER-LIGAND FREE ENERGY PREDICTED BY IDOCK:   -4.75 KCAL/MOL
REMARK 924 INTRA-LIGAND FREE ENERGY PREDICTED BY IDOCK:   -0.03 KCAL/MOL
REMARK 927      BINDING AFFINITY PREDICTED BY RF-SCORE:    0.00 PKD
ROOT
HETATM    1  C   UNL     1     -13.914   8.812  72.071  1.00  0.00    -0.451 C  
HETATM    2  N   UNL     1     -13.093   8.771  70.887  1.00  0.00    -0.487 N  
HETATM    3  C   UNL     1     -11.737   9.087  70.908  1.00  0.00    -0.276 C  
HETATM    4  H   UNL     1     -13.522   8.501  70.001  1.00  0.00     0.000 HD 
HETATM    5  O   UNL     1     -11.138   9.389  71.930  1.00  0.00    -0.344 OA 
ENDROOT
BRANCH   3   6
HETATM    6  C   UNL     1     -11.039   9.055  69.583  1.00  0.00    -0.080 A  
HETATM    7  C   UNL     1     -10.232   7.944  69.210  1.00  0.00    -0.216 A  
HETATM    8  I   UNL     1     -10.263   6.125  70.377  1.00  0.00    -0.312 I  
HETATM    9  C   UNL     1      -9.476   7.962  68.006  1.00  0.00    -0.159 A  
HETATM   10  C   UNL     1      -8.426   6.936  67.773  1.00  0.00    -0.123 C  
HETATM   11  C   UNL     1      -9.648   9.043  67.111  1.00  0.00    -0.167 A  
HETATM   12  C   UNL     1     -10.524  10.110  67.419  1.00  0.00    -0.256 A  
HETATM   13  I   UNL     1      -8.584   9.136  65.239  1.00  0.00    -0.214 I  
HETATM   14  O   UNL     1      -8.541   6.259  66.615  1.00  0.00    -0.114 OA 
HETATM   15  O   UNL     1      -7.534   6.730  68.578  1.00  0.00    -0.088 OA 
HETATM   16  C   UNL     1     -11.123  10.149  68.694  1.00  0.00    -0.205 A  
HETATM   17  I   UNL     1     -11.759  12.101  69.419  1.00  0.00    -0.285 I  
BRANCH  12  18
HETATM   18  N   UNL     1     -10.640  11.168  66.488  1.00  0.00    -0.256 N  
HETATM   19  C   UNL     1      -9.941  12.344  66.424  1.00  0.00    -0.242 C  
HETATM   20  H   UNL     1     -11.345  11.037  65.763  1.00  0.00     0.000 HD 
HETATM   21  O   UNL     1     -10.346  13.209  65.647  1.00  0.00    -0.276 OA 
HETATM   22  C   UNL     1      -8.748  12.607  67.305  1.00  0.00    -0.198 C  
ENDBRANCH  12  18
ENDBRANCH   3   6
TORSDOF 2
ENDMDL
MODEL       68
REMARK 921   NORMALIZED FREE ENERGY PREDICTED BY IDOCK:   -3.84 KCAL/MOL
REMARK 922        TOTAL FREE ENERGY PREDICTED BY IDOCK:   -4.72 KCAL/MOL
REMARK 923 INTER-LIGAND FREE ENERGY PREDICTED BY IDOCK:   -4.81 KCAL/MOL
REMARK 924 INTRA-LIGAND FREE ENERGY PREDICTED BY IDOCK:    0.09 KCAL/MOL
REMARK 927      BINDING AFFINITY PREDICTED BY RF-SCORE:    0.00 PKD
ROOT
HETATM    1  C   UNL     1     -10.970  12.148  63.586  1.00  0.00    -0.461 C  
HETATM    2  N   UNL     1     -10.160  12.882  64.526  1.00  0.00    -0.569 N  
HETATM    3  C   UNL     1     -10.525  13.039  65.861  1.00  0.00    -0.281 C  
HETATM    4  H   UNL     1      -9.289  13.301  64.202  1.00  0.00     0.000 HD 
HETATM    5  O   UNL     1     -11.536  12.544  66.340  1.00  0.00    -0.349 OA 
ENDROOT
BRANCH   3   6
HETATM    6  C   UNL     1      -9.607  13.879  66.694  1.00  0.00    -0.297 A  
HETATM    7  C   UNL     1      -9.495  15.279  66.470  1.00  0.00    -0.283 A  
HETATM    8  I   UNL     1     -10.889  16.297  65.169  1.00  0.00     0.108 I  
HETATM    9  C   UNL     1      -8.540  16.058  67.179  1.00  0.00    -0.219 A  
HETATM   10  C   UNL     1      -8.235  17.444  66.735  1.00  0.00    -0.249 C  
HETATM   11  C   UNL     1      -7.798  15.447  68.216  1.00  0.00    -0.123 A  
HETATM   12  C   UNL     1      -7.968  14.077  68.521  1.00  0.00    -0.141 A  
HETATM   13  I   UNL     1      -6.363  16.557  69.380  1.00  0.00    -0.175 I  
HETATM   14  O   UNL     1      -8.357  18.386  67.690  1.00  0.00    -0.247 OA 
HETATM   15  O   UNL     1      -7.904  17.698  65.589  1.00  0.00    -0.533 OA 
HETATM   16  C   UNL     1      -8.791  13.294  67.687  1.00  0.00    -0.200 A  
HETATM   17  I   UNL     1      -8.405  11.151  67.662  1.00  0.00    -0.136 I  
BRANCH  12  18
HETATM   18  N   UNL     1      -7.185  13.522  69.559  1.00  0.00    -0.318 N  
HETATM   19  C   UNL     1      -5.955  12.923  69.490  1.00  0.00    -0.111 C  
HETATM   20  H   UNL     1      -7.594  13.575  70.492  1.00  0.00     0.000 HD 
HETATM   21  O   UNL     1      -5.549  12.333  70.491  1.00  0.00    -0.144 OA 
HETATM   22  C   UNL     1      -5.140  12.930  68.224  1.00  0.00    -0.076 C  
ENDBRANCH  12  18
ENDBRANCH   3   6
TORSDOF 2
ENDMDL
MODEL       69
REMARK 921   NORMALIZED FREE ENERGY PREDICTED BY IDOCK:   -3.83 KCAL/MOL
REMARK 922        TOTAL FREE ENERGY PREDICTED BY IDOCK:   -4.70 KCAL/MOL
REMARK 923 INTER-LIGAND FREE ENERGY PREDICTED BY IDOCK:   -4.22 KCAL/MOL
REMARK 924 INTRA-LIGAND FREE ENERGY PREDICTED BY IDOCK:   -0.48 KCAL/MOL
REMARK 927      BINDING AFFINITY PREDICTED BY RF-SCORE:    0.00 PKD
ROOT
HETATM    1  C   UNL     1     -10.076  19.529  68.535  1.00  0.00    -0.445 C  
HETATM    2  N   UNL     1      -9.808  18.126  68.339  1.00  0.00    -0.350 N  
HETATM    3  C   UNL     1      -8.868  17.668  67.420  1.00  0.00    -0.235 C  
HETATM    4  H   UNL     1     -10.325  17.445  68.895  1.00  0.00     0.000 HD 
HETATM    5  O   UNL     1      -8.182  18.415  66.736  1.00  0.00    -0.238 OA 
ENDROOT
BRANCH   3   6
HETATM    6  C   UNL     1      -8.751  16.180  67.293  1.00  0.00    -0.202 A  
HETATM    7  C   UNL     1      -7.665  15.480  67.888  1.00  0.00    -0.130 A  
HETATM    8  I   UNL     1      -6.346  16.480  69.277  1.00  0.00    -0.209 I  
HETATM    9  C   UNL     1      -7.488  14.086  67.672  1.00  0.00    -0.186 A  
HETATM   10  C   UNL     1      -6.208  13.432  68.051  1.00  0.00    -0.133 C  
HETATM   11  C   UNL     1      -8.489  13.374  66.972  1.00  0.00    -0.125 A  
HETATM   12  C   UNL     1      -9.629  14.036  66.459  1.00  0.00    -0.293 A  
HETATM   13  I   UNL     1      -8.335  11.250  66.636  1.00  0.00    -0.116 I  
HETATM   14  O   UNL     1      -6.335  12.361  68.859  1.00  0.00    -0.073 OA 
HETATM   15  O   UNL     1      -5.130  13.844  67.658  1.00  0.00    -0.290 OA 
HETATM   16  C   UNL     1      -9.688  15.441  66.537  1.00  0.00    -0.272 A  
HETATM   17  I   UNL     1     -10.962  16.451  65.087  1.00  0.00     0.214 I  
BRANCH  12  18
HETATM   18  N   UNL     1     -10.586  13.269  65.755  1.00  0.00    -0.279 N  
HETATM   19  C   UNL     1     -11.743  12.697  66.215  1.00  0.00    -0.402 C  
HETATM   20  H   UNL     1     -10.386  13.121  64.766  1.00  0.00     0.000 HD 
HETATM   21  O   UNL     1     -12.322  11.904  65.473  1.00  0.00    -0.352 OA 
HETATM   22  C   UNL     1     -12.271  12.974  67.597  1.00  0.00    -0.104 C  
ENDBRANCH  12  18
ENDBRANCH   3   6
TORSDOF 2
ENDMDL
MODEL       70
REMARK 921   NORMALIZED FREE ENERGY PREDICTED BY IDOCK:   -3.82 KCAL/MOL
REMARK 922        TOTAL FREE ENERGY PREDICTED BY IDOCK:   -4.69 KCAL/MOL
REMARK 923 INTER-LIGAND FREE ENERGY PREDICTED BY IDOCK:   -4.27 KCAL/MOL
REMARK 924 INTRA-LIGAND FREE ENERGY PREDICTED BY IDOCK:   -0.42 KCAL/MOL
REMARK 927      BINDING AFFINITY PREDICTED BY RF-SCORE:    0.00 PKD
ROOT
HETATM    1  C   UNL     1      -7.503   9.004  70.978  1.00  0.00    -0.114 C  
HETATM    2  N   UNL     1      -7.993  10.161  70.272  1.00  0.00    -0.290 N  
HETATM    3  C   UNL     1      -8.132  10.187  68.887  1.00  0.00    -0.117 C  
HETATM    4  H   UNL     1      -8.247  10.992  70.807  1.00  0.00     0.000 HD 
HETATM    5  O   UNL     1      -7.881   9.226  68.173  1.00  0.00    -0.094 OA 
ENDROOT
BRANCH   3   6
HETATM    6  C   UNL     1      -8.597  11.485  68.302  1.00  0.00    -0.161 A  
HETATM    7  C   UNL     1      -9.977  11.719  68.051  1.00  0.00    -0.188 A  
HETATM    8  I   UNL     1     -11.477  10.368  68.822  1.00  0.00     0.020 I  
HETATM    9  C   UNL     1     -10.409  12.901  67.389  1.00  0.00    -0.233 A  
HETATM   10  C   UNL     1     -11.802  13.000  66.880  1.00  0.00    -0.380 C  
HETATM   11  C   UNL     1      -9.458  13.909  67.108  1.00  0.00    -0.246 A  
HETATM   12  C   UNL     1      -8.095  13.736  67.441  1.00  0.00    -0.177 A  
HETATM   13  I   UNL     1     -10.024  15.756  66.152  1.00  0.00    -0.423 I  
HETATM   14  O   UNL     1     -12.485  14.083  67.300  1.00  0.00    -0.260 OA 
HETATM   15  O   UNL     1     -12.282  12.158  66.140  1.00  0.00    -0.611 OA 
HETATM   16  C   UNL     1      -7.672  12.486  67.935  1.00  0.00    -0.138 A  
HETATM   17  I   UNL     1      -5.569  11.986  67.665  1.00  0.00    -0.126 I  
BRANCH  12  18
HETATM   18  N   UNL     1      -7.192  14.776  67.120  1.00  0.00    -0.239 N  
HETATM   19  C   UNL     1      -6.793  15.841  67.883  1.00  0.00    -0.145 C  
HETATM   20  H   UNL     1      -6.781  14.726  66.188  1.00  0.00     0.000 HD 
HETATM   21  O   UNL     1      -6.152  16.734  67.328  1.00  0.00    -0.139 OA 
HETATM   22  C   UNL     1      -7.164  15.959  69.338  1.00  0.00    -0.214 C  
ENDBRANCH  12  18
ENDBRANCH   3   6
TORSDOF 2
ENDMDL
MODEL       71
REMARK 921   NORMALIZED FREE ENERGY PREDICTED BY IDOCK:   -3.81 KCAL/MOL
REMARK 922        TOTAL FREE ENERGY PREDICTED BY IDOCK:   -4.68 KCAL/MOL
REMARK 923 INTER-LIGAND FREE ENERGY PREDICTED BY IDOCK:   -4.19 KCAL/MOL
REMARK 924 INTRA-LIGAND FREE ENERGY PREDICTED BY IDOCK:   -0.49 KCAL/MOL
REMARK 927      BINDING AFFINITY PREDICTED BY RF-SCORE:    0.00 PKD
ROOT
HETATM    1  C   UNL     1     -11.094  14.466  64.625  1.00  0.00    -0.354 C  
HETATM    2  N   UNL     1     -10.283  13.348  65.039  1.00  0.00    -0.478 N  
HETATM    3  C   UNL     1     -10.738  12.034  64.980  1.00  0.00    -0.296 C  
HETATM    4  H   UNL     1      -9.342  13.528  65.389  1.00  0.00     0.000 HD 
HETATM    5  O   UNL     1     -11.840  11.728  64.545  1.00  0.00    -0.260 OA 
ENDROOT
BRANCH   3   6
HETATM    6  C   UNL     1      -9.797  10.993  65.505  1.00  0.00    -0.292 A  
HETATM    7  C   UNL     1      -9.033  10.187  64.617  1.00  0.00    -0.209 A  
HETATM    8  I   UNL     1      -8.936  10.662  62.511  1.00  0.00    -0.355 I  
HETATM    9  C   UNL     1      -8.229   9.122  65.107  1.00  0.00    -0.147 A  
HETATM   10  C   UNL     1      -7.673   8.116  64.163  1.00  0.00    -0.136 C  
HETATM   11  C   UNL     1      -8.087   8.964  66.505  1.00  0.00    -0.107 A  
HETATM   12  C   UNL     1      -8.761   9.821  67.405  1.00  0.00    -0.132 A  
HETATM   13  I   UNL     1      -6.851   7.410  67.344  1.00  0.00    -0.084 I  
HETATM   14  O   UNL     1      -6.339   7.942  64.240  1.00  0.00    -0.056 OA 
HETATM   15  O   UNL     1      -8.380   7.503  63.381  1.00  0.00    -0.000 OA 
HETATM   16  C   UNL     1      -9.685  10.751  66.892  1.00  0.00    -0.178 A  
HETATM   17  I   UNL     1     -11.241  11.441  68.251  1.00  0.00    -0.405 I  
BRANCH  12  18
HETATM   18  N   UNL     1      -8.589   9.601  68.791  1.00  0.00    -0.122 N  
HETATM   19  C   UNL     1      -7.723  10.207  69.663  1.00  0.00    -0.163 C  
HETATM   20  H   UNL     1      -9.195   8.890  69.200  1.00  0.00     0.000 HD 
HETATM   21  O   UNL     1      -7.605   9.718  70.786  1.00  0.00    -0.300 OA 
HETATM   22  C   UNL     1      -6.895  11.399  69.258  1.00  0.00    -0.119 C  
ENDBRANCH  12  18
ENDBRANCH   3   6
TORSDOF 2
ENDMDL
MODEL       72
REMARK 921   NORMALIZED FREE ENERGY PREDICTED BY IDOCK:   -3.77 KCAL/MOL
REMARK 922        TOTAL FREE ENERGY PREDICTED BY IDOCK:   -4.64 KCAL/MOL
REMARK 923 INTER-LIGAND FREE ENERGY PREDICTED BY IDOCK:   -4.14 KCAL/MOL
REMARK 924 INTRA-LIGAND FREE ENERGY PREDICTED BY IDOCK:   -0.50 KCAL/MOL
REMARK 927      BINDING AFFINITY PREDICTED BY RF-SCORE:    0.00 PKD
ROOT
HETATM    1  C   UNL     1      -7.782  17.189  66.215  1.00  0.00    -0.315 C  
HETATM    2  N   UNL     1      -8.193  15.852  66.566  1.00  0.00    -0.283 N  
HETATM    3  C   UNL     1      -8.316  15.434  67.888  1.00  0.00    -0.144 C  
HETATM    4  H   UNL     1      -8.401  15.190  65.819  1.00  0.00     0.000 HD 
HETATM    5  O   UNL     1      -8.117  16.171  68.844  1.00  0.00    -0.202 OA 
ENDROOT
BRANCH   3   6
HETATM    6  C   UNL     1      -8.694  13.998  68.086  1.00  0.00    -0.180 A  
HETATM    7  C   UNL     1     -10.030  13.633  68.409  1.00  0.00    -0.235 A  
HETATM    8  I   UNL     1     -11.625  15.086  68.283  1.00  0.00    -0.236 I  
HETATM    9  C   UNL     1     -10.367  12.285  68.711  1.00  0.00    -0.156 A  
HETATM   10  C   UNL     1     -11.684  11.968  69.323  1.00  0.00    -0.330 C  
HETATM   11  C   UNL     1      -9.381  11.285  68.547  1.00  0.00    -0.182 A  
HETATM   12  C   UNL     1      -8.071  11.616  68.129  1.00  0.00    -0.148 A  
HETATM   13  I   UNL     1      -9.808   9.208  68.933  1.00  0.00    -0.208 I  
HETATM   14  O   UNL     1     -12.406  11.039  68.666  1.00  0.00    -0.539 OA 
HETATM   15  O   UNL     1     -12.073  12.515  70.341  1.00  0.00    -0.362 OA 
HETATM   16  C   UNL     1      -7.723  12.975  68.008  1.00  0.00    -0.145 A  
HETATM   17  I   UNL     1      -5.607  13.464  68.174  1.00  0.00    -0.110 I  
BRANCH  12  18
HETATM   18  N   UNL     1      -7.128  10.571  67.999  1.00  0.00    -0.084 N  
HETATM   19  C   UNL     1      -6.739   9.892  66.874  1.00  0.00    -0.078 C  
HETATM   20  H   UNL     1      -6.673  10.282  68.864  1.00  0.00     0.000 HD 
HETATM   21  O   UNL     1      -6.049   8.884  67.025  1.00  0.00    -0.056 OA 
HETATM   22  C   UNL     1      -7.176  10.319  65.498  1.00  0.00    -0.149 C  
ENDBRANCH  12  18
ENDBRANCH   3   6
TORSDOF 2
ENDMDL
MODEL       73
REMARK 921   NORMALIZED FREE ENERGY PREDICTED BY IDOCK:   -3.76 KCAL/MOL
REMARK 922        TOTAL FREE ENERGY PREDICTED BY IDOCK:   -4.63 KCAL/MOL
REMARK 923 INTER-LIGAND FREE ENERGY PREDICTED BY IDOCK:   -4.72 KCAL/MOL
REMARK 924 INTRA-LIGAND FREE ENERGY PREDICTED BY IDOCK:    0.10 KCAL/MOL
REMARK 927      BINDING AFFINITY PREDICTED BY RF-SCORE:    0.00 PKD
ROOT
HETATM    1  C   UNL     1     -10.575  14.867  65.589  1.00  0.00    -0.344 C  
HETATM    2  N   UNL     1     -10.132  13.518  65.839  1.00  0.00    -0.300 N  
HETATM    3  C   UNL     1     -10.991  12.425  65.760  1.00  0.00    -0.298 C  
HETATM    4  H   UNL     1      -9.155  13.360  66.083  1.00  0.00     0.000 HD 
HETATM    5  O   UNL     1     -12.168  12.522  65.444  1.00  0.00    -0.497 OA 
ENDROOT
BRANCH   3   6
HETATM    6  C   UNL     1     -10.390  11.097  66.108  1.00  0.00    -0.302 A  
HETATM    7  C   UNL     1     -10.367  10.637  67.454  1.00  0.00    -0.219 A  
HETATM    8  I   UNL     1     -11.498  11.663  68.983  1.00  0.00    -0.450 I  
HETATM    9  C   UNL     1      -9.696   9.434  67.802  1.00  0.00    -0.182 A  
HETATM   10  C   UNL     1      -9.431   9.118  69.231  1.00  0.00    -0.158 C  
HETATM   11  C   UNL     1      -9.170   8.624  66.769  1.00  0.00    -0.169 A  
HETATM   12  C   UNL     1      -9.272   9.016  65.415  1.00  0.00    -0.176 A  
HETATM   13  I   UNL     1      -8.178   6.758  67.194  1.00  0.00    -0.123 I  
HETATM   14  O   UNL     1      -9.874   7.912  69.637  1.00  0.00    -0.176 OA 
HETATM   15  O   UNL     1      -8.859   9.900  69.971  1.00  0.00    -0.207 OA 
HETATM   16  C   UNL     1      -9.785  10.294  65.116  1.00  0.00    -0.300 A  
HETATM   17  I   UNL     1      -9.193  11.169  63.212  1.00  0.00    -0.193 I  
BRANCH  12  18
HETATM   18  N   UNL     1      -8.713   8.169  64.430  1.00  0.00    -0.385 N  
HETATM   19  C   UNL     1      -7.412   8.069  64.013  1.00  0.00    -0.109 C  
HETATM   20  H   UNL     1      -9.371   7.545  63.965  1.00  0.00     0.000 HD 
HETATM   21  O   UNL     1      -7.185   7.405  63.001  1.00  0.00    -0.069 OA 
HETATM   22  C   UNL     1      -6.293   8.785  64.723  1.00  0.00    -0.066 C  
ENDBRANCH  12  18
ENDBRANCH   3   6
TORSDOF 2
ENDMDL
MODEL       74
REMARK 921   NORMALIZED FREE ENERGY PREDICTED BY IDOCK:   -3.74 KCAL/MOL
REMARK 922        TOTAL FREE ENERGY PREDICTED BY IDOCK:   -4.61 KCAL/MOL
REMARK 923 INTER-LIGAND FREE ENERGY PREDICTED BY IDOCK:   -4.55 KCAL/MOL
REMARK 924 INTRA-LIGAND FREE ENERGY PREDICTED BY IDOCK:   -0.06 KCAL/MOL
REMARK 927      BINDING AFFINITY PREDICTED BY RF-SCORE:    0.00 PKD
ROOT
HETATM    1  C   UNL     1      -7.682   9.564  70.118  1.00  0.00    -0.154 C  
HETATM    2  N   UNL     1      -8.200  10.804  69.598  1.00  0.00    -0.381 N  
HETATM    3  C   UNL     1      -7.715  11.383  68.429  1.00  0.00    -0.127 C  
HETATM    4  H   UNL     1      -8.950  11.274  70.105  1.00  0.00     0.000 HD 
HETATM    5  O   UNL     1      -6.841  10.872  67.743  1.00  0.00    -0.070 OA 
ENDROOT
BRANCH   3   6
HETATM    6  C   UNL     1      -8.318  12.703  68.055  1.00  0.00    -0.175 A  
HETATM    7  C   UNL     1      -9.329  12.787  67.059  1.00  0.00    -0.229 A  
HETATM    8  I   UNL     1     -10.275  10.998  66.303  1.00  0.00    -0.299 I  
HETATM    9  C   UNL     1      -9.819  14.048  66.620  1.00  0.00    -0.288 A  
HETATM   10  C   UNL     1     -10.652  14.134  65.391  1.00  0.00    -0.346 C  
HETATM   11  C   UNL     1      -9.388  15.216  67.290  1.00  0.00    -0.203 A  
HETATM   12  C   UNL     1      -8.457  15.143  68.352  1.00  0.00    -0.157 A  
HETATM   13  I   UNL     1     -10.111  17.168  66.730  1.00  0.00    -0.298 I  
HETATM   14  O   UNL     1     -11.835  14.757  65.550  1.00  0.00    -0.324 OA 
HETATM   15  O   UNL     1     -10.282  13.669  64.326  1.00  0.00    -0.350 OA 
HETATM   16  C   UNL     1      -7.859  13.902  68.645  1.00  0.00    -0.120 A  
HETATM   17  I   UNL     1      -5.930  13.956  69.654  1.00  0.00    -0.131 I  
BRANCH  12  18
HETATM   18  N   UNL     1      -8.055  16.349  68.971  1.00  0.00    -0.233 N  
HETATM   19  C   UNL     1      -7.057  17.216  68.611  1.00  0.00    -0.217 C  
HETATM   20  H   UNL     1      -8.582  16.611  69.803  1.00  0.00     0.000 HD 
HETATM   21  O   UNL     1      -6.752  18.101  69.410  1.00  0.00    -0.248 OA 
HETATM   22  C   UNL     1      -6.311  17.071  67.310  1.00  0.00    -0.196 C  
ENDBRANCH  12  18
ENDBRANCH   3   6
TORSDOF 2
ENDMDL
MODEL       75
REMARK 921   NORMALIZED FREE ENERGY PREDICTED BY IDOCK:   -3.73 KCAL/MOL
REMARK 922        TOTAL FREE ENERGY PREDICTED BY IDOCK:   -4.59 KCAL/MOL
REMARK 923 INTER-LIGAND FREE ENERGY PREDICTED BY IDOCK:   -4.40 KCAL/MOL
REMARK 924 INTRA-LIGAND FREE ENERGY PREDICTED BY IDOCK:   -0.19 KCAL/MOL
REMARK 927      BINDING AFFINITY PREDICTED BY RF-SCORE:    0.00 PKD
ROOT
HETATM    1  C   UNL     1      -6.280  20.469  68.164  1.00  0.00    -0.301 C  
HETATM    2  N   UNL     1      -6.705  19.128  67.845  1.00  0.00    -0.223 N  
HETATM    3  C   UNL     1      -7.799  18.527  68.461  1.00  0.00    -0.318 C  
HETATM    4  H   UNL     1      -6.185  18.602  67.144  1.00  0.00     0.000 HD 
HETATM    5  O   UNL     1      -8.497  19.096  69.289  1.00  0.00    -0.169 OA 
ENDROOT
BRANCH   3   6
HETATM    6  C   UNL     1      -8.074  17.109  68.063  1.00  0.00    -0.210 A  
HETATM    7  C   UNL     1      -7.159  16.070  68.388  1.00  0.00    -0.125 A  
HETATM    8  I   UNL     1      -5.527  16.434  69.758  1.00  0.00    -0.187 I  
HETATM    9  C   UNL     1      -7.359  14.745  67.912  1.00  0.00    -0.162 A  
HETATM   10  C   UNL     1      -6.261  13.747  68.011  1.00  0.00    -0.141 C  
HETATM   11  C   UNL     1      -8.558  14.442  67.227  1.00  0.00    -0.215 A  
HETATM   12  C   UNL     1      -9.528  15.442  66.982  1.00  0.00    -0.220 A  
HETATM   13  I   UNL     1      -8.975  12.453  66.510  1.00  0.00     0.066 I  
HETATM   14  O   UNL     1      -6.594  12.597  68.629  1.00  0.00    -0.072 OA 
HETATM   15  O   UNL     1      -5.147  13.964  67.565  1.00  0.00    -0.323 OA 
HETATM   16  C   UNL     1      -9.222  16.777  67.311  1.00  0.00    -0.228 A  
HETATM   17  I   UNL     1     -10.304  18.326  66.228  1.00  0.00    -0.169 I  
BRANCH  12  18
HETATM   18  N   UNL     1     -10.699  15.078  66.279  1.00  0.00    -0.315 N  
HETATM   19  C   UNL     1     -11.873  14.562  66.762  1.00  0.00    -0.371 C  
HETATM   20  H   UNL     1     -10.665  15.218  65.270  1.00  0.00     0.000 HD 
HETATM   21  O   UNL     1     -12.688  14.132  65.946  1.00  0.00    -0.487 OA 
HETATM   22  C   UNL     1     -12.150  14.469  68.240  1.00  0.00    -0.234 C  
ENDBRANCH  12  18
ENDBRANCH   3   6
TORSDOF 2
ENDMDL
MODEL       76
REMARK 921   NORMALIZED FREE ENERGY PREDICTED BY IDOCK:   -3.73 KCAL/MOL
REMARK 922        TOTAL FREE ENERGY PREDICTED BY IDOCK:   -4.59 KCAL/MOL
REMARK 923 INTER-LIGAND FREE ENERGY PREDICTED BY IDOCK:   -4.25 KCAL/MOL
REMARK 924 INTRA-LIGAND FREE ENERGY PREDICTED BY IDOCK:   -0.34 KCAL/MOL
REMARK 927      BINDING AFFINITY PREDICTED BY RF-SCORE:    0.00 PKD
ROOT
HETATM    1  C   UNL     1     -12.727  13.248  71.228  1.00  0.00    -0.323 C  
HETATM    2  N   UNL     1     -11.711  12.517  70.511  1.00  0.00    -0.488 N  
HETATM    3  C   UNL     1     -11.982  11.326  69.843  1.00  0.00    -0.365 C  
HETATM    4  H   UNL     1     -10.760  12.885  70.494  1.00  0.00     0.000 HD 
HETATM    5  O   UNL     1     -13.099  10.831  69.786  1.00  0.00    -0.085 OA 
ENDROOT
BRANCH   3   6
HETATM    6  C   UNL     1     -10.807  10.658  69.198  1.00  0.00    -0.279 A  
HETATM    7  C   UNL     1     -10.436  10.966  67.860  1.00  0.00    -0.195 A  
HETATM    8  I   UNL     1     -11.325  12.647  66.834  1.00  0.00    -0.441 I  
HETATM    9  C   UNL     1      -9.395  10.250  67.208  1.00  0.00    -0.169 A  
HETATM   10  C   UNL     1      -9.214  10.378  65.737  1.00  0.00    -0.174 C  
HETATM   11  C   UNL     1      -8.636   9.321  67.956  1.00  0.00    -0.121 A  
HETATM   12  C   UNL     1      -8.926   9.073  69.317  1.00  0.00    -0.144 A  
HETATM   13  I   UNL     1      -7.007   8.222  67.068  1.00  0.00    -0.072 I  
HETATM   14  O   UNL     1      -7.973  10.728  65.347  1.00  0.00    -0.126 OA 
HETATM   15  O   UNL     1     -10.127  10.182  64.954  1.00  0.00    -0.330 OA 
HETATM   16  C   UNL     1     -10.071   9.667  69.885  1.00  0.00    -0.246 A  
HETATM   17  I   UNL     1     -10.928   8.677  71.625  1.00  0.00    -0.453 I  
BRANCH  12  18
HETATM   18  N   UNL     1      -8.139   8.121  70.005  1.00  0.00    -0.112 N  
HETATM   19  C   UNL     1      -6.983   8.306  70.717  1.00  0.00    -0.043 C  
HETATM   20  H   UNL     1      -8.480   7.161  69.966  1.00  0.00     0.000 HD 
HETATM   21  O   UNL     1      -6.359   7.303  71.065  1.00  0.00    -0.036 OA 
HETATM   22  C   UNL     1      -6.451   9.681  71.024  1.00  0.00    -0.051 C  
ENDBRANCH  12  18
ENDBRANCH   3   6
TORSDOF 2
ENDMDL
MODEL       77
REMARK 921   NORMALIZED FREE ENERGY PREDICTED BY IDOCK:   -3.70 KCAL/MOL
REMARK 922        TOTAL FREE ENERGY PREDICTED BY IDOCK:   -4.56 KCAL/MOL
REMARK 923 INTER-LIGAND FREE ENERGY PREDICTED BY IDOCK:   -4.29 KCAL/MOL
REMARK 924 INTRA-LIGAND FREE ENERGY PREDICTED BY IDOCK:   -0.27 KCAL/MOL
REMARK 927      BINDING AFFINITY PREDICTED BY RF-SCORE:    0.00 PKD
ROOT
HETATM    1  C   UNL     1      -6.689  15.550  69.655  1.00  0.00    -0.180 C  
HETATM    2  N   UNL     1      -7.130  14.734  68.552  1.00  0.00    -0.104 N  
HETATM    3  C   UNL     1      -8.418  14.210  68.480  1.00  0.00    -0.157 C  
HETATM    4  H   UNL     1      -6.474  14.533  67.797  1.00  0.00     0.000 HD 
HETATM    5  O   UNL     1      -9.275  14.427  69.325  1.00  0.00     0.003 OA 
ENDROOT
BRANCH   3   6
HETATM    6  C   UNL     1      -8.700  13.332  67.299  1.00  0.00    -0.214 A  
HETATM    7  C   UNL     1      -8.111  12.042  67.192  1.00  0.00    -0.177 A  
HETATM    8  I   UNL     1      -7.076  11.165  68.874  1.00  0.00    -0.113 I  
HETATM    9  C   UNL     1      -8.284  11.256  66.020  1.00  0.00    -0.045 A  
HETATM   10  C   UNL     1      -7.438  10.053  65.801  1.00  0.00    -0.121 C  
HETATM   11  C   UNL     1      -9.169  11.715  65.017  1.00  0.00     0.045 A  
HETATM   12  C   UNL     1      -9.843  12.950  65.152  1.00  0.00    -0.068 A  
HETATM   13  I   UNL     1      -9.535  10.571  63.227  1.00  0.00    -0.321 I  
HETATM   14  O   UNL     1      -8.119   8.916  65.559  1.00  0.00    -0.102 OA 
HETATM   15  O   UNL     1      -6.220  10.103  65.843  1.00  0.00    -0.080 OA 
HETATM   16  C   UNL     1      -9.517  13.785  66.239  1.00  0.00    -0.202 A  
HETATM   17  I   UNL     1      -9.912  15.912  65.996  1.00  0.00    -0.408 I  
BRANCH  12  18
HETATM   18  N   UNL     1     -10.703  13.359  64.108  1.00  0.00    -0.545 N  
HETATM   19  C   UNL     1     -12.068  13.477  64.107  1.00  0.00    -0.435 C  
HETATM   20  H   UNL     1     -10.243  13.600  63.230  1.00  0.00     0.000 HD 
HETATM   21  O   UNL     1     -12.626  13.658  63.024  1.00  0.00    -0.729 OA 
HETATM   22  C   UNL     1     -12.878  13.337  65.369  1.00  0.00    -0.340 C  
ENDBRANCH  12  18
ENDBRANCH   3   6
TORSDOF 2
ENDMDL
MODEL       78
REMARK 921   NORMALIZED FREE ENERGY PREDICTED BY IDOCK:   -3.66 KCAL/MOL
REMARK 922        TOTAL FREE ENERGY PREDICTED BY IDOCK:   -4.51 KCAL/MOL
REMARK 923 INTER-LIGAND FREE ENERGY PREDICTED BY IDOCK:   -4.08 KCAL/MOL
REMARK 924 INTRA-LIGAND FREE ENERGY PREDICTED BY IDOCK:   -0.44 KCAL/MOL
REMARK 927      BINDING AFFINITY PREDICTED BY RF-SCORE:    0.00 PKD
ROOT
HETATM    1  C   UNL     1     -12.297  13.462  70.581  1.00  0.00    -0.348 C  
HETATM    2  N   UNL     1     -11.429  12.340  70.324  1.00  0.00    -0.485 N  
HETATM    3  C   UNL     1     -11.849  11.220  69.612  1.00  0.00    -0.360 C  
HETATM    4  H   UNL     1     -10.472  12.368  70.677  1.00  0.00     0.000 HD 
HETATM    5  O   UNL     1     -12.967  11.118  69.127  1.00  0.00     0.089 OA 
ENDROOT
BRANCH   3   6
HETATM    6  C   UNL     1     -10.846  10.115  69.482  1.00  0.00    -0.289 A  
HETATM    7  C   UNL     1      -9.976  10.046  68.359  1.00  0.00    -0.160 A  
HETATM    8  I   UNL     1      -9.826  11.708  66.986  1.00  0.00    -0.231 I  
HETATM    9  C   UNL     1      -9.106   8.937  68.176  1.00  0.00    -0.142 A  
HETATM   10  C   UNL     1      -8.423   8.736  66.871  1.00  0.00    -0.111 C  
HETATM   11  C   UNL     1      -9.014   7.968  69.202  1.00  0.00    -0.145 A  
HETATM   12  C   UNL     1      -9.799   8.072  70.373  1.00  0.00    -0.183 A  
HETATM   13  I   UNL     1      -7.688   6.277  69.038  1.00  0.00    -0.103 I  
HETATM   14  O   UNL     1      -7.084   8.606  66.944  1.00  0.00    -0.073 OA 
HETATM   15  O   UNL     1      -9.038   8.697  65.819  1.00  0.00    -0.193 OA 
HETATM   16  C   UNL     1     -10.776   9.084  70.446  1.00  0.00    -0.227 A  
HETATM   17  I   UNL     1     -12.445   8.741  71.802  1.00  0.00    -0.490 I  
BRANCH  12  18
HETATM   18  N   UNL     1      -9.671   7.062  71.354  1.00  0.00    -0.170 N  
HETATM   19  C   UNL     1      -8.986   7.090  72.541  1.00  0.00    -0.128 C  
HETATM   20  H   UNL     1     -10.157   6.189  71.150  1.00  0.00     0.000 HD 
HETATM   21  O   UNL     1      -8.846   6.027  73.145  1.00  0.00    -0.129 OA 
HETATM   22  C   UNL     1      -8.373   8.358  73.073  1.00  0.00    -0.199 C  
ENDBRANCH  12  18
ENDBRANCH   3   6
TORSDOF 2
ENDMDL
MODEL       79
REMARK 921   NORMALIZED FREE ENERGY PREDICTED BY IDOCK:   -3.65 KCAL/MOL
REMARK 922        TOTAL FREE ENERGY PREDICTED BY IDOCK:   -4.51 KCAL/MOL
REMARK 923 INTER-LIGAND FREE ENERGY PREDICTED BY IDOCK:   -4.08 KCAL/MOL
REMARK 924 INTRA-LIGAND FREE ENERGY PREDICTED BY IDOCK:   -0.43 KCAL/MOL
REMARK 927      BINDING AFFINITY PREDICTED BY RF-SCORE:    0.00 PKD
ROOT
HETATM    1  C   UNL     1      -6.451  12.825  67.559  1.00  0.00    -0.160 C  
HETATM    2  N   UNL     1      -7.137  12.026  68.544  1.00  0.00    -0.091 N  
HETATM    3  C   UNL     1      -7.300  10.650  68.405  1.00  0.00    -0.091 C  
HETATM    4  H   UNL     1      -7.517  12.485  69.371  1.00  0.00     0.000 HD 
HETATM    5  O   UNL     1      -6.849  10.015  67.461  1.00  0.00    -0.079 OA 
ENDROOT
BRANCH   3   6
HETATM    6  C   UNL     1      -8.088   9.974  69.485  1.00  0.00    -0.166 A  
HETATM    7  C   UNL     1      -7.438   9.392  70.607  1.00  0.00    -0.136 A  
HETATM    8  I   UNL     1      -5.340   9.760  70.973  1.00  0.00    -0.072 I  
HETATM    9  C   UNL     1      -8.172   8.649  71.573  1.00  0.00    -0.209 A  
HETATM   10  C   UNL     1      -7.453   7.811  72.569  1.00  0.00    -0.086 C  
HETATM   11  C   UNL     1      -9.582   8.618  71.478  1.00  0.00    -0.257 A  
HETATM   12  C   UNL     1     -10.255   9.277  70.423  1.00  0.00    -0.233 A  
HETATM   13  I   UNL     1     -10.785   7.561  72.921  1.00  0.00    -0.420 I  
HETATM   14  O   UNL     1      -7.775   8.055  73.854  1.00  0.00    -0.150 OA 
HETATM   15  O   UNL     1      -6.634   6.972  72.236  1.00  0.00    -0.056 OA 
HETATM   16  C   UNL     1      -9.492   9.853  69.389  1.00  0.00    -0.213 A  
HETATM   17  I   UNL     1     -10.482  10.109  67.466  1.00  0.00    -0.334 I  
BRANCH  12  18
HETATM   18  N   UNL     1     -11.666   9.194  70.377  1.00  0.00    -0.453 N  
HETATM   19  C   UNL     1     -12.598  10.152  70.677  1.00  0.00    -0.269 C  
HETATM   20  H   UNL     1     -12.042   8.295  70.079  1.00  0.00     0.000 HD 
HETATM   21  O   UNL     1     -13.775   9.799  70.759  1.00  0.00    -0.182 OA 
HETATM   22  C   UNL     1     -12.209  11.580  70.954  1.00  0.00    -0.425 C  
ENDBRANCH  12  18
ENDBRANCH   3   6
TORSDOF 2
ENDMDL
MODEL       80
REMARK 921   NORMALIZED FREE ENERGY PREDICTED BY IDOCK:   -3.62 KCAL/MOL
REMARK 922        TOTAL FREE ENERGY PREDICTED BY IDOCK:   -4.47 KCAL/MOL
REMARK 923 INTER-LIGAND FREE ENERGY PREDICTED BY IDOCK:   -4.01 KCAL/MOL
REMARK 924 INTRA-LIGAND FREE ENERGY PREDICTED BY IDOCK:   -0.46 KCAL/MOL
REMARK 927      BINDING AFFINITY PREDICTED BY RF-SCORE:    0.00 PKD
ROOT
HETATM    1  C   UNL     1      -8.873  12.442  67.422  1.00  0.00    -0.188 C  
HETATM    2  N   UNL     1      -8.874  11.102  67.954  1.00  0.00    -0.133 N  
HETATM    3  C   UNL     1      -9.934  10.221  67.755  1.00  0.00    -0.173 C  
HETATM    4  H   UNL     1      -8.069  10.788  68.495  1.00  0.00     0.000 HD 
HETATM    5  O   UNL     1     -10.923  10.505  67.092  1.00  0.00    -0.282 OA 
ENDROOT
BRANCH   3   6
HETATM    6  C   UNL     1      -9.808   8.887  68.423  1.00  0.00    -0.191 A  
HETATM    7  C   UNL     1      -9.267   7.771  67.727  1.00  0.00    -0.136 A  
HETATM    8  I   UNL     1      -8.292   8.036  65.817  1.00  0.00    -0.157 I  
HETATM    9  C   UNL     1      -9.254   6.478  68.318  1.00  0.00    -0.116 A  
HETATM   10  C   UNL     1      -8.959   5.282  67.484  1.00  0.00    -0.108 C  
HETATM   11  C   UNL     1      -9.657   6.342  69.667  1.00  0.00    -0.146 A  
HETATM   12  C   UNL     1     -10.104   7.460  70.408  1.00  0.00    -0.192 A  
HETATM   13  I   UNL     1      -9.626   4.432  70.666  1.00  0.00    -0.265 I  
HETATM   14  O   UNL     1      -7.963   4.501  67.945  1.00  0.00    -0.087 OA 
HETATM   15  O   UNL     1      -9.577   5.040  66.462  1.00  0.00    -0.137 OA 
HETATM   16  C   UNL     1     -10.272   8.691  69.743  1.00  0.00    -0.206 A  
HETATM   17  I   UNL     1     -11.671  10.103  70.630  1.00  0.00    -0.456 I  
BRANCH  12  18
HETATM   18  N   UNL     1     -10.508   7.255  71.747  1.00  0.00    -0.197 N  
HETATM   19  C   UNL     1      -9.828   7.523  72.906  1.00  0.00    -0.219 C  
HETATM   20  H   UNL     1     -11.436   6.851  71.867  1.00  0.00     0.000 HD 
HETATM   21  O   UNL     1     -10.291   7.078  73.957  1.00  0.00    -0.364 OA 
HETATM   22  C   UNL     1      -8.530   8.286  72.907  1.00  0.00    -0.260 C  
ENDBRANCH  12  18
ENDBRANCH   3   6
TORSDOF 2
ENDMDL
MODEL       81
REMARK 921   NORMALIZED FREE ENERGY PREDICTED BY IDOCK:   -3.62 KCAL/MOL
REMARK 922        TOTAL FREE ENERGY PREDICTED BY IDOCK:   -4.47 KCAL/MOL
REMARK 923 INTER-LIGAND FREE ENERGY PREDICTED BY IDOCK:   -4.47 KCAL/MOL
REMARK 924 INTRA-LIGAND FREE ENERGY PREDICTED BY IDOCK:    0.01 KCAL/MOL
REMARK 927      BINDING AFFINITY PREDICTED BY RF-SCORE:    0.00 PKD
ROOT
HETATM    1  C   UNL     1      -5.740  15.457  70.745  1.00  0.00    -0.017 C  
HETATM    2  N   UNL     1      -6.783  15.503  69.750  1.00  0.00    -0.175 N  
HETATM    3  C   UNL     1      -6.515  15.435  68.386  1.00  0.00    -0.111 C  
HETATM    4  H   UNL     1      -7.752  15.588  70.058  1.00  0.00     0.000 HD 
HETATM    5  O   UNL     1      -5.386  15.301  67.933  1.00  0.00    -0.124 OA 
ENDROOT
BRANCH   3   6
HETATM    6  C   UNL     1      -7.702  15.557  67.481  1.00  0.00    -0.195 A  
HETATM    7  C   UNL     1      -8.363  16.804  67.309  1.00  0.00    -0.177 A  
HETATM    8  I   UNL     1      -7.481  18.627  68.062  1.00  0.00    -0.299 I  
HETATM    9  C   UNL     1      -9.558  16.898  66.543  1.00  0.00    -0.295 A  
HETATM   10  C   UNL     1     -10.388  18.129  66.610  1.00  0.00    -0.376 C  
HETATM   11  C   UNL     1     -10.004  15.758  65.836  1.00  0.00    -0.352 A  
HETATM   12  C   UNL     1      -9.302  14.533  65.914  1.00  0.00    -0.095 A  
HETATM   13  I   UNL     1     -11.776  15.814  64.610  1.00  0.00     0.344 I  
HETATM   14  O   UNL     1     -10.665  18.693  65.419  1.00  0.00    -0.572 OA 
HETATM   15  O   UNL     1     -10.781  18.587  67.670  1.00  0.00    -0.423 OA 
HETATM   16  C   UNL     1      -8.226  14.425  66.817  1.00  0.00     0.115 A  
HETATM   17  I   UNL     1      -7.719  12.422  67.506  1.00  0.00    -0.157 I  
BRANCH  12  18
HETATM   18  N   UNL     1      -9.808  13.426  65.194  1.00  0.00    -0.556 N  
HETATM   19  C   UNL     1     -10.754  12.509  65.570  1.00  0.00    -0.271 C  
HETATM   20  H   UNL     1      -9.412  13.291  64.264  1.00  0.00     0.000 HD 
HETATM   21  O   UNL     1     -10.896  11.511  64.863  1.00  0.00    -0.298 OA 
HETATM   22  C   UNL     1     -11.563  12.675  66.829  1.00  0.00    -0.438 C  
ENDBRANCH  12  18
ENDBRANCH   3   6
TORSDOF 2
ENDMDL
MODEL       82
REMARK 921   NORMALIZED FREE ENERGY PREDICTED BY IDOCK:   -3.60 KCAL/MOL
REMARK 922        TOTAL FREE ENERGY PREDICTED BY IDOCK:   -4.45 KCAL/MOL
REMARK 923 INTER-LIGAND FREE ENERGY PREDICTED BY IDOCK:   -4.39 KCAL/MOL
REMARK 924 INTRA-LIGAND FREE ENERGY PREDICTED BY IDOCK:   -0.05 KCAL/MOL
REMARK 927      BINDING AFFINITY PREDICTED BY RF-SCORE:    0.00 PKD
ROOT
HETATM    1  C   UNL     1      -7.859   6.296  62.792  1.00  0.00    -0.099 C  
HETATM    2  N   UNL     1      -8.430   7.283  63.674  1.00  0.00    -0.340 N  
HETATM    3  C   UNL     1      -7.653   8.227  64.340  1.00  0.00    -0.113 C  
HETATM    4  H   UNL     1      -9.440   7.290  63.815  1.00  0.00     0.000 HD 
HETATM    5  O   UNL     1      -6.440   8.310  64.204  1.00  0.00    -0.066 OA 
ENDROOT
BRANCH   3   6
HETATM    6  C   UNL     1      -8.391   9.144  65.267  1.00  0.00    -0.152 A  
HETATM    7  C   UNL     1      -8.774   8.713  66.567  1.00  0.00    -0.126 A  
HETATM    8  I   UNL     1      -8.008   6.863  67.380  1.00  0.00    -0.113 I  
HETATM    9  C   UNL     1      -9.574   9.538  67.403  1.00  0.00    -0.178 A  
HETATM   10  C   UNL     1     -10.203   8.970  68.625  1.00  0.00    -0.205 C  
HETATM   11  C   UNL     1      -9.868  10.855  66.980  1.00  0.00    -0.183 A  
HETATM   12  C   UNL     1      -9.410  11.337  65.732  1.00  0.00    -0.223 A  
HETATM   13  I   UNL     1     -11.033  12.198  68.200  1.00  0.00    -0.356 I  
HETATM   14  O   UNL     1      -9.941   9.641  69.764  1.00  0.00    -0.198 OA 
HETATM   15  O   UNL     1     -10.900   7.970  68.588  1.00  0.00    -0.079 OA 
HETATM   16  C   UNL     1      -8.771  10.440  64.853  1.00  0.00    -0.184 A  
HETATM   17  I   UNL     1      -8.822  10.940  62.734  1.00  0.00    -0.255 I  
BRANCH  12  18
HETATM   18  N   UNL     1      -9.750  12.658  65.360  1.00  0.00    -0.451 N  
HETATM   19  C   UNL     1     -10.869  13.114  64.714  1.00  0.00    -0.352 C  
HETATM   20  H   UNL     1      -9.066  13.372  65.608  1.00  0.00     0.000 HD 
HETATM   21  O   UNL     1     -10.863  14.278  64.314  1.00  0.00    -0.238 OA 
HETATM   22  C   UNL     1     -12.050  12.220  64.445  1.00  0.00    -0.481 C  
ENDBRANCH  12  18
ENDBRANCH   3   6
TORSDOF 2
ENDMDL
MODEL       83
REMARK 921   NORMALIZED FREE ENERGY PREDICTED BY IDOCK:   -3.59 KCAL/MOL
REMARK 922        TOTAL FREE ENERGY PREDICTED BY IDOCK:   -4.44 KCAL/MOL
REMARK 923 INTER-LIGAND FREE ENERGY PREDICTED BY IDOCK:   -3.95 KCAL/MOL
REMARK 924 INTRA-LIGAND FREE ENERGY PREDICTED BY IDOCK:   -0.49 KCAL/MOL
REMARK 927      BINDING AFFINITY PREDICTED BY RF-SCORE:    0.00 PKD
ROOT
HETATM    1  C   UNL     1     -11.425  13.771  69.602  1.00  0.00    -0.237 C  
HETATM    2  N   UNL     1     -10.579  12.906  68.818  1.00  0.00    -0.357 N  
HETATM    3  C   UNL     1     -11.088  11.871  68.039  1.00  0.00    -0.240 C  
HETATM    4  H   UNL     1      -9.570  13.058  68.835  1.00  0.00     0.000 HD 
HETATM    5  O   UNL     1     -12.285  11.638  67.937  1.00  0.00    -0.560 OA 
ENDROOT
BRANCH   3   6
HETATM    6  C   UNL     1     -10.073  11.025  67.333  1.00  0.00    -0.216 A  
HETATM    7  C   UNL     1      -9.803  11.213  65.949  1.00  0.00    -0.232 A  
HETATM    8  I   UNL     1     -10.580  12.937  64.904  1.00  0.00    -0.387 I  
HETATM    9  C   UNL     1      -8.928  10.337  65.251  1.00  0.00    -0.214 A  
HETATM   10  C   UNL     1      -8.881  10.363  63.765  1.00  0.00    -0.212 C  
HETATM   11  C   UNL     1      -8.217   9.359  65.984  1.00  0.00    -0.111 A  
HETATM   12  C   UNL     1      -8.397   9.222  67.379  1.00  0.00    -0.122 A  
HETATM   13  I   UNL     1      -6.830   8.017  65.022  1.00  0.00    -0.056 I  
HETATM   14  O   UNL     1      -7.652  10.531  63.239  1.00  0.00    -0.113 OA 
HETATM   15  O   UNL     1      -9.885  10.244  63.084  1.00  0.00    -0.253 OA 
HETATM   16  C   UNL     1      -9.398   9.986  68.011  1.00  0.00    -0.130 A  
HETATM   17  I   UNL     1     -10.191   9.207  69.884  1.00  0.00    -0.289 I  
BRANCH  12  18
HETATM   18  N   UNL     1      -7.667   8.215  68.052  1.00  0.00    -0.111 N  
HETATM   19  C   UNL     1      -6.480   8.313  68.729  1.00  0.00    -0.053 C  
HETATM   20  H   UNL     1      -8.082   7.285  68.028  1.00  0.00     0.000 HD 
HETATM   21  O   UNL     1      -5.926   7.267  69.066  1.00  0.00    -0.021 OA 
HETATM   22  C   UNL     1      -5.835   9.644  69.011  1.00  0.00    -0.035 C  
ENDBRANCH  12  18
ENDBRANCH   3   6
TORSDOF 2
ENDMDL
MODEL       84
REMARK 921   NORMALIZED FREE ENERGY PREDICTED BY IDOCK:   -3.59 KCAL/MOL
REMARK 922        TOTAL FREE ENERGY PREDICTED BY IDOCK:   -4.44 KCAL/MOL
REMARK 923 INTER-LIGAND FREE ENERGY PREDICTED BY IDOCK:   -3.98 KCAL/MOL
REMARK 924 INTRA-LIGAND FREE ENERGY PREDICTED BY IDOCK:   -0.46 KCAL/MOL
REMARK 927      BINDING AFFINITY PREDICTED BY RF-SCORE:    0.00 PKD
ROOT
HETATM    1  C   UNL     1     -14.045   8.143  71.497  1.00  0.00    -0.383 C  
HETATM    2  N   UNL     1     -12.903   7.382  71.054  1.00  0.00    -0.575 N  
HETATM    3  C   UNL     1     -11.600   7.713  71.417  1.00  0.00    -0.274 C  
HETATM    4  H   UNL     1     -13.056   6.571  70.454  1.00  0.00     0.000 HD 
HETATM    5  O   UNL     1     -11.330   8.648  72.158  1.00  0.00    -0.338 OA 
ENDROOT
BRANCH   3   6
HETATM    6  C   UNL     1     -10.521   6.859  70.825  1.00  0.00    -0.238 A  
HETATM    7  C   UNL     1      -9.936   5.800  71.574  1.00  0.00    -0.180 A  
HETATM    8  I   UNL     1     -10.813   5.164  73.443  1.00  0.00    -0.343 I  
HETATM    9  C   UNL     1      -8.834   5.065  71.059  1.00  0.00    -0.153 A  
HETATM   10  C   UNL     1      -8.055   4.169  71.955  1.00  0.00    -0.088 C  
HETATM   11  C   UNL     1      -8.416   5.305  69.730  1.00  0.00    -0.098 A  
HETATM   12  C   UNL     1      -9.052   6.286  68.934  1.00  0.00    -0.124 A  
HETATM   13  I   UNL     1      -6.787   4.207  68.844  1.00  0.00    -0.048 I  
HETATM   14  O   UNL     1      -7.929   2.900  71.520  1.00  0.00    -0.054 OA 
HETATM   15  O   UNL     1      -7.573   4.564  73.003  1.00  0.00    -0.083 OA 
HETATM   16  C   UNL     1     -10.022   7.117  69.529  1.00  0.00    -0.164 A  
HETATM   17  I   UNL     1     -10.366   9.051  68.590  1.00  0.00    -0.172 I  
BRANCH  12  18
HETATM   18  N   UNL     1      -8.578   6.489  67.618  1.00  0.00    -0.117 N  
HETATM   19  C   UNL     1      -9.154   6.135  66.426  1.00  0.00    -0.148 C  
HETATM   20  H   UNL     1      -7.679   6.965  67.545  1.00  0.00     0.000 HD 
HETATM   21  O   UNL     1      -8.468   6.232  65.408  1.00  0.00    -0.148 OA 
HETATM   22  C   UNL     1     -10.557   5.593  66.353  1.00  0.00    -0.254 C  
ENDBRANCH  12  18
ENDBRANCH   3   6
TORSDOF 2
ENDMDL
MODEL       85
REMARK 921   NORMALIZED FREE ENERGY PREDICTED BY IDOCK:   -3.59 KCAL/MOL
REMARK 922        TOTAL FREE ENERGY PREDICTED BY IDOCK:   -4.43 KCAL/MOL
REMARK 923 INTER-LIGAND FREE ENERGY PREDICTED BY IDOCK:   -4.02 KCAL/MOL
REMARK 924 INTRA-LIGAND FREE ENERGY PREDICTED BY IDOCK:   -0.42 KCAL/MOL
REMARK 927      BINDING AFFINITY PREDICTED BY RF-SCORE:    0.00 PKD
ROOT
HETATM    1  C   UNL     1      -5.887  17.111  67.589  1.00  0.00    -0.128 C  
HETATM    2  N   UNL     1      -6.970  16.334  68.139  1.00  0.00    -0.125 N  
HETATM    3  C   UNL     1      -8.001  15.829  67.352  1.00  0.00    -0.168 C  
HETATM    4  H   UNL     1      -6.982  16.149  69.142  1.00  0.00     0.000 HD 
HETATM    5  O   UNL     1      -8.049  15.977  66.138  1.00  0.00    -0.222 OA 
ENDROOT
BRANCH   3   6
HETATM    6  C   UNL     1      -9.082  15.095  68.084  1.00  0.00    -0.176 A  
HETATM    7  C   UNL     1     -10.074  15.801  68.819  1.00  0.00    -0.215 A  
HETATM    8  I   UNL     1     -10.267  17.944  68.623  1.00  0.00    -0.174 I  
HETATM    9  C   UNL     1     -11.031  15.106  69.608  1.00  0.00    -0.291 A  
HETATM   10  C   UNL     1     -11.866  15.850  70.588  1.00  0.00    -0.370 C  
HETATM   11  C   UNL     1     -11.072  13.694  69.541  1.00  0.00    -0.072 A  
HETATM   12  C   UNL     1     -10.156  12.978  68.736  1.00  0.00    -0.055 A  
HETATM   13  I   UNL     1     -12.517  12.554  70.663  1.00  0.00     0.075 I  
HETATM   14  O   UNL     1     -13.194  15.665  70.458  1.00  0.00    -0.434 OA 
HETATM   15  O   UNL     1     -11.376  16.572  71.439  1.00  0.00    -0.278 OA 
HETATM   16  C   UNL     1      -9.112  13.683  68.106  1.00  0.00    -0.195 A  
HETATM   17  I   UNL     1      -7.329  12.544  67.591  1.00  0.00    -0.145 I  
BRANCH  12  18
HETATM   18  N   UNL     1     -10.240  11.567  68.724  1.00  0.00    -0.273 N  
HETATM   19  C   UNL     1     -10.691  10.735  67.733  1.00  0.00    -0.251 C  
HETATM   20  H   UNL     1      -9.921  11.102  69.573  1.00  0.00     0.000 HD 
HETATM   21  O   UNL     1     -10.862   9.549  68.015  1.00  0.00    -0.233 OA 
HETATM   22  C   UNL     1     -11.023  11.249  66.356  1.00  0.00    -0.285 C  
ENDBRANCH  12  18
ENDBRANCH   3   6
TORSDOF 2
ENDMDL
MODEL       86
REMARK 921   NORMALIZED FREE ENERGY PREDICTED BY IDOCK:   -3.58 KCAL/MOL
REMARK 922        TOTAL FREE ENERGY PREDICTED BY IDOCK:   -4.42 KCAL/MOL
REMARK 923 INTER-LIGAND FREE ENERGY PREDICTED BY IDOCK:   -3.96 KCAL/MOL
REMARK 924 INTRA-LIGAND FREE ENERGY PREDICTED BY IDOCK:   -0.46 KCAL/MOL
REMARK 927      BINDING AFFINITY PREDICTED BY RF-SCORE:    0.00 PKD
ROOT
HETATM    1  C   UNL     1      -5.841   9.662  67.613  1.00  0.00    -0.044 C  
HETATM    2  N   UNL     1      -7.103   9.475  68.286  1.00  0.00    -0.074 N  
HETATM    3  C   UNL     1      -7.470  10.221  69.403  1.00  0.00    -0.128 C  
HETATM    4  H   UNL     1      -7.749   8.770  67.931  1.00  0.00     0.000 HD 
HETATM    5  O   UNL     1      -6.770  11.106  69.874  1.00  0.00    -0.141 OA 
ENDROOT
BRANCH   3   6
HETATM    6  C   UNL     1      -8.787   9.864  70.022  1.00  0.00    -0.194 A  
HETATM    7  C   UNL     1      -9.973  10.565  69.669  1.00  0.00    -0.112 A  
HETATM    8  I   UNL     1      -9.986  11.922  67.988  1.00  0.00    -0.212 I  
HETATM    9  C   UNL     1     -11.200  10.308  70.339  1.00  0.00    -0.407 A  
HETATM   10  C   UNL     1     -12.349  11.236  70.168  1.00  0.00    -0.276 C  
HETATM   11  C   UNL     1     -11.258   9.242  71.266  1.00  0.00    -0.355 A  
HETATM   12  C   UNL     1     -10.112   8.467  71.556  1.00  0.00    -0.226 A  
HETATM   13  I   UNL     1     -13.085   8.743  72.296  1.00  0.00    -0.359 I  
HETATM   14  O   UNL     1     -13.497  10.652  69.775  1.00  0.00     0.213 OA 
HETATM   15  O   UNL     1     -12.247  12.435  70.369  1.00  0.00    -0.346 OA 
HETATM   16  C   UNL     1      -8.874   8.858  71.009  1.00  0.00    -0.230 A  
HETATM   17  I   UNL     1      -7.084   8.206  72.066  1.00  0.00    -0.113 I  
BRANCH  12  18
HETATM   18  N   UNL     1     -10.232   7.425  72.504  1.00  0.00    -0.202 N  
HETATM   19  C   UNL     1     -10.464   6.090  72.297  1.00  0.00    -0.205 C  
HETATM   20  H   UNL     1     -10.133   7.706  73.479  1.00  0.00     0.000 HD 
HETATM   21  O   UNL     1     -10.731   5.397  73.279  1.00  0.00    -0.231 OA 
HETATM   22  C   UNL     1     -10.451   5.487  70.918  1.00  0.00    -0.319 C  
ENDBRANCH  12  18
ENDBRANCH   3   6
TORSDOF 2
ENDMDL
MODEL       87
REMARK 921   NORMALIZED FREE ENERGY PREDICTED BY IDOCK:   -3.57 KCAL/MOL
REMARK 922        TOTAL FREE ENERGY PREDICTED BY IDOCK:   -4.42 KCAL/MOL
REMARK 923 INTER-LIGAND FREE ENERGY PREDICTED BY IDOCK:   -4.02 KCAL/MOL
REMARK 924 INTRA-LIGAND FREE ENERGY PREDICTED BY IDOCK:   -0.39 KCAL/MOL
REMARK 927      BINDING AFFINITY PREDICTED BY RF-SCORE:    0.00 PKD
ROOT
HETATM    1  C   UNL     1      -5.227  14.215  71.702  1.00  0.00    -0.185 C  
HETATM    2  N   UNL     1      -6.367  13.976  70.851  1.00  0.00    -0.430 N  
HETATM    3  C   UNL     1      -6.236  13.632  69.508  1.00  0.00    -0.118 C  
HETATM    4  H   UNL     1      -7.303  14.063  71.247  1.00  0.00     0.000 HD 
HETATM    5  O   UNL     1      -5.153  13.476  68.961  1.00  0.00    -0.067 OA 
ENDROOT
BRANCH   3   6
HETATM    6  C   UNL     1      -7.516  13.478  68.746  1.00  0.00    -0.071 A  
HETATM    7  C   UNL     1      -8.304  14.612  68.406  1.00  0.00    -0.157 A  
HETATM    8  I   UNL     1      -7.521  16.609  68.665  1.00  0.00    -0.235 I  
HETATM    9  C   UNL     1      -9.575  14.459  67.787  1.00  0.00    -0.216 A  
HETATM   10  C   UNL     1     -10.504  15.617  67.703  1.00  0.00    -0.283 C  
HETATM   11  C   UNL     1      -9.984  13.167  67.383  1.00  0.00    -0.229 A  
HETATM   12  C   UNL     1      -9.168  12.038  67.623  1.00  0.00    -0.182 A  
HETATM   13  I   UNL     1     -11.871  12.841  66.393  1.00  0.00    -0.278 I  
HETATM   14  O   UNL     1     -10.953  15.895  66.464  1.00  0.00    -0.252 OA 
HETATM   15  O   UNL     1     -10.826  16.260  68.687  1.00  0.00    -0.284 OA 
HETATM   16  C   UNL     1      -7.999  12.198  68.393  1.00  0.00    -0.152 A  
HETATM   17  I   UNL     1      -7.241  10.426  69.406  1.00  0.00    -0.135 I  
BRANCH  12  18
HETATM   18  N   UNL     1      -9.641  10.772  67.207  1.00  0.00    -0.159 N  
HETATM   19  C   UNL     1      -9.259  10.016  66.130  1.00  0.00    -0.165 C  
HETATM   20  H   UNL     1     -10.370  10.364  67.792  1.00  0.00     0.000 HD 
HETATM   21  O   UNL     1      -9.946   9.035  65.847  1.00  0.00    -0.276 OA 
HETATM   22  C   UNL     1      -8.073  10.389  65.280  1.00  0.00    -0.152 C  
ENDBRANCH  12  18
ENDBRANCH   3   6
TORSDOF 2
ENDMDL
MODEL       88
REMARK 921   NORMALIZED FREE ENERGY PREDICTED BY IDOCK:   -3.57 KCAL/MOL
REMARK 922        TOTAL FREE ENERGY PREDICTED BY IDOCK:   -4.41 KCAL/MOL
REMARK 923 INTER-LIGAND FREE ENERGY PREDICTED BY IDOCK:   -4.38 KCAL/MOL
REMARK 924 INTRA-LIGAND FREE ENERGY PREDICTED BY IDOCK:   -0.03 KCAL/MOL
REMARK 927      BINDING AFFINITY PREDICTED BY RF-SCORE:    0.00 PKD
ROOT
HETATM    1  C   UNL     1      -6.392   5.866  65.680  1.00  0.00    -0.042 C  
HETATM    2  N   UNL     1      -7.243   6.781  66.400  1.00  0.00    -0.071 N  
HETATM    3  C   UNL     1      -8.632   6.733  66.311  1.00  0.00    -0.139 C  
HETATM    4  H   UNL     1      -6.812   7.488  66.994  1.00  0.00     0.000 HD 
HETATM    5  O   UNL     1      -9.231   5.898  65.647  1.00  0.00    -0.106 OA 
ENDROOT
BRANCH   3   6
HETATM    6  C   UNL     1      -9.371   7.790  67.072  1.00  0.00    -0.196 A  
HETATM    7  C   UNL     1      -9.419   9.131  66.599  1.00  0.00    -0.185 A  
HETATM    8  I   UNL     1      -8.733   9.616  64.608  1.00  0.00    -0.264 I  
HETATM    9  C   UNL     1     -10.019  10.159  67.376  1.00  0.00    -0.238 A  
HETATM   10  C   UNL     1      -9.808  11.585  67.012  1.00  0.00    -0.192 C  
HETATM   11  C   UNL     1     -10.696   9.804  68.566  1.00  0.00    -0.215 A  
HETATM   12  C   UNL     1     -10.746   8.460  69.002  1.00  0.00    -0.080 A  
HETATM   13  I   UNL     1     -11.679  11.285  69.786  1.00  0.00    -0.455 I  
HETATM   14  O   UNL     1     -10.937  12.304  66.856  1.00  0.00    -0.245 OA 
HETATM   15  O   UNL     1      -8.693  12.056  66.865  1.00  0.00    -0.184 OA 
HETATM   16  C   UNL     1      -9.995   7.494  68.305  1.00  0.00    -0.173 A  
HETATM   17  I   UNL     1      -9.437   5.701  69.408  1.00  0.00    -0.215 I  
BRANCH  12  18
HETATM   18  N   UNL     1     -11.426   8.174  70.207  1.00  0.00    -0.457 N  
HETATM   19  C   UNL     1     -10.953   8.190  71.493  1.00  0.00    -0.243 C  
HETATM   20  H   UNL     1     -12.409   7.919  70.106  1.00  0.00     0.000 HD 
HETATM   21  O   UNL     1     -11.669   7.712  72.373  1.00  0.00    -0.311 OA 
HETATM   22  C   UNL     1      -9.584   8.720  71.828  1.00  0.00    -0.371 C  
ENDBRANCH  12  18
ENDBRANCH   3   6
TORSDOF 2
ENDMDL
MODEL       89
REMARK 921   NORMALIZED FREE ENERGY PREDICTED BY IDOCK:   -3.55 KCAL/MOL
REMARK 922        TOTAL FREE ENERGY PREDICTED BY IDOCK:   -4.39 KCAL/MOL
REMARK 923 INTER-LIGAND FREE ENERGY PREDICTED BY IDOCK:   -4.39 KCAL/MOL
REMARK 924 INTRA-LIGAND FREE ENERGY PREDICTED BY IDOCK:   -0.00 KCAL/MOL
REMARK 927      BINDING AFFINITY PREDICTED BY RF-SCORE:    0.00 PKD
ROOT
HETATM    1  C   UNL     1     -11.252  13.707  69.544  1.00  0.00    -0.146 C  
HETATM    2  N   UNL     1     -10.643  12.531  68.974  1.00  0.00    -0.419 N  
HETATM    3  C   UNL     1     -11.390  11.435  68.553  1.00  0.00    -0.271 C  
HETATM    4  H   UNL     1      -9.628  12.502  68.877  1.00  0.00     0.000 HD 
HETATM    5  O   UNL     1     -12.612  11.399  68.604  1.00  0.00    -0.241 OA 
ENDROOT
BRANCH   3   6
HETATM    6  C   UNL     1     -10.604  10.268  68.040  1.00  0.00    -0.272 A  
HETATM    7  C   UNL     1     -10.126   9.264  68.927  1.00  0.00    -0.195 A  
HETATM    8  I   UNL     1     -10.806   9.197  70.977  1.00  0.00    -0.448 I  
HETATM    9  C   UNL     1      -9.282   8.219  68.460  1.00  0.00    -0.136 A  
HETATM   10  C   UNL     1      -8.561   7.356  69.433  1.00  0.00    -0.134 C  
HETATM   11  C   UNL     1      -9.038   8.110  67.071  1.00  0.00    -0.143 A  
HETATM   12  C   UNL     1      -9.588   9.042  66.161  1.00  0.00    -0.272 A  
HETATM   13  I   UNL     1      -7.813   6.532  66.262  1.00  0.00    -0.117 I  
HETATM   14  O   UNL     1      -8.754   6.032  69.269  1.00  0.00    -0.116 OA 
HETATM   15  O   UNL     1      -7.854   7.821  70.310  1.00  0.00    -0.088 OA 
HETATM   16  C   UNL     1     -10.273  10.163  66.671  1.00  0.00    -0.224 A  
HETATM   17  I   UNL     1     -10.377  11.917  65.384  1.00  0.00    -0.343 I  
BRANCH  12  18
HETATM   18  N   UNL     1      -9.295   8.886  64.787  1.00  0.00    -0.374 N  
HETATM   19  C   UNL     1      -8.231   9.366  64.070  1.00  0.00    -0.163 C  
HETATM   20  H   UNL     1      -9.971   8.339  64.254  1.00  0.00     0.000 HD 
HETATM   21  O   UNL     1      -8.282   9.278  62.843  1.00  0.00    -0.153 OA 
HETATM   22  C   UNL     1      -7.058  10.031  64.739  1.00  0.00    -0.137 C  
ENDBRANCH  12  18
ENDBRANCH   3   6
TORSDOF 2
ENDMDL
MODEL       90
REMARK 921   NORMALIZED FREE ENERGY PREDICTED BY IDOCK:   -3.55 KCAL/MOL
REMARK 922        TOTAL FREE ENERGY PREDICTED BY IDOCK:   -4.39 KCAL/MOL
REMARK 923 INTER-LIGAND FREE ENERGY PREDICTED BY IDOCK:   -4.35 KCAL/MOL
REMARK 924 INTRA-LIGAND FREE ENERGY PREDICTED BY IDOCK:   -0.04 KCAL/MOL
REMARK 927      BINDING AFFINITY PREDICTED BY RF-SCORE:    0.00 PKD
ROOT
HETATM    1  C   UNL     1      -7.656  12.483  68.339  1.00  0.00    -0.129 C  
HETATM    2  N   UNL     1      -8.140  11.378  69.129  1.00  0.00    -0.366 N  
HETATM    3  C   UNL     1      -9.014  10.422  68.619  1.00  0.00    -0.146 C  
HETATM    4  H   UNL     1      -7.830  11.294  70.097  1.00  0.00     0.000 HD 
HETATM    5  O   UNL     1      -9.410  10.429  67.461  1.00  0.00    -0.147 OA 
ENDROOT
BRANCH   3   6
HETATM    6  C   UNL     1      -9.469   9.373  69.585  1.00  0.00    -0.200 A  
HETATM    7  C   UNL     1      -8.812   8.114  69.658  1.00  0.00    -0.143 A  
HETATM    8  I   UNL     1      -6.933   7.797  68.640  1.00  0.00    -0.071 I  
HETATM    9  C   UNL     1      -9.314   7.075  70.489  1.00  0.00    -0.159 A  
HETATM   10  C   UNL     1      -8.797   5.689  70.339  1.00  0.00    -0.136 C  
HETATM   11  C   UNL     1     -10.396   7.358  71.353  1.00  0.00    -0.194 A  
HETATM   12  C   UNL     1     -11.000   8.637  71.367  1.00  0.00    -0.271 A  
HETATM   13  I   UNL     1     -11.196   5.864  72.686  1.00  0.00    -0.257 I  
HETATM   14  O   UNL     1      -8.337   5.128  71.475  1.00  0.00    -0.116 OA 
HETATM   15  O   UNL     1      -8.792   5.114  69.264  1.00  0.00    -0.095 OA 
HETATM   16  C   UNL     1     -10.596   9.587  70.410  1.00  0.00    -0.276 A  
HETATM   17  I   UNL     1     -12.024  11.158  69.922  1.00  0.00    -0.445 I  
BRANCH  12  18
HETATM   18  N   UNL     1     -12.089   8.851  72.244  1.00  0.00    -0.349 N  
HETATM   19  C   UNL     1     -13.420   8.593  72.049  1.00  0.00    -0.403 C  
HETATM   20  H   UNL     1     -11.849   9.255  73.149  1.00  0.00     0.000 HD 
HETATM   21  O   UNL     1     -14.217   9.045  72.871  1.00  0.00    -0.528 OA 
HETATM   22  C   UNL     1     -13.913   7.832  70.847  1.00  0.00     0.077 C  
ENDBRANCH  12  18
ENDBRANCH   3   6
TORSDOF 2
ENDMDL
MODEL       91
REMARK 921   NORMALIZED FREE ENERGY PREDICTED BY IDOCK:   -3.54 KCAL/MOL
REMARK 922        TOTAL FREE ENERGY PREDICTED BY IDOCK:   -4.39 KCAL/MOL
REMARK 923 INTER-LIGAND FREE ENERGY PREDICTED BY IDOCK:   -4.35 KCAL/MOL
REMARK 924 INTRA-LIGAND FREE ENERGY PREDICTED BY IDOCK:   -0.03 KCAL/MOL
REMARK 927      BINDING AFFINITY PREDICTED BY RF-SCORE:    0.00 PKD
ROOT
HETATM    1  C   UNL     1     -13.061  10.146  71.484  1.00  0.00    -0.429 C  
HETATM    2  N   UNL     1     -12.375   9.439  70.432  1.00  0.00    -0.466 N  
HETATM    3  C   UNL     1     -10.991   9.288  70.415  1.00  0.00    -0.255 C  
HETATM    4  H   UNL     1     -12.923   9.034  69.673  1.00  0.00     0.000 HD 
HETATM    5  O   UNL     1     -10.261   9.713  71.300  1.00  0.00    -0.245 OA 
ENDROOT
BRANCH   3   6
HETATM    6  C   UNL     1     -10.426   8.579  69.222  1.00  0.00    -0.224 A  
HETATM    7  C   UNL     1      -9.936   7.248  69.328  1.00  0.00    -0.170 A  
HETATM    8  I   UNL     1     -10.304   6.083  71.110  1.00  0.00    -0.304 I  
HETATM    9  C   UNL     1      -9.295   6.616  68.228  1.00  0.00    -0.119 A  
HETATM   10  C   UNL     1      -8.538   5.353  68.435  1.00  0.00    -0.095 C  
HETATM   11  C   UNL     1      -9.276   7.279  66.979  1.00  0.00    -0.145 A  
HETATM   12  C   UNL     1      -9.848   8.563  66.828  1.00  0.00    -0.257 A  
HETATM   13  I   UNL     1      -8.371   6.381  65.241  1.00  0.00     0.011 I  
HETATM   14  O   UNL     1      -8.901   4.335  67.630  1.00  0.00    -0.104 OA 
HETATM   15  O   UNL     1      -7.659   5.256  69.275  1.00  0.00    -0.071 OA 
HETATM   16  C   UNL     1     -10.318   9.234  67.975  1.00  0.00    -0.221 A  
HETATM   17  I   UNL     1     -10.417  11.406  67.868  1.00  0.00    -0.272 I  
BRANCH  12  18
HETATM   18  N   UNL     1      -9.784   9.178  65.557  1.00  0.00    -0.462 N  
HETATM   19  C   UNL     1      -8.789   9.950  65.019  1.00  0.00    -0.190 C  
HETATM   20  H   UNL     1     -10.593   9.025  64.955  1.00  0.00     0.000 HD 
HETATM   21  O   UNL     1      -9.032  10.547  63.970  1.00  0.00    -0.192 OA 
HETATM   22  C   UNL     1      -7.457  10.117  65.702  1.00  0.00    -0.144 C  
ENDBRANCH  12  18
ENDBRANCH   3   6
TORSDOF 2
ENDMDL
MODEL       92
REMARK 921   NORMALIZED FREE ENERGY PREDICTED BY IDOCK:   -3.54 KCAL/MOL
REMARK 922        TOTAL FREE ENERGY PREDICTED BY IDOCK:   -4.38 KCAL/MOL
REMARK 923 INTER-LIGAND FREE ENERGY PREDICTED BY IDOCK:   -3.98 KCAL/MOL
REMARK 924 INTRA-LIGAND FREE ENERGY PREDICTED BY IDOCK:   -0.40 KCAL/MOL
REMARK 927      BINDING AFFINITY PREDICTED BY RF-SCORE:    0.00 PKD
ROOT
HETATM    1  C   UNL     1      -9.997  14.104  68.388  1.00  0.00    -0.235 C  
HETATM    2  N   UNL     1      -9.690  12.736  68.725  1.00  0.00    -0.416 N  
HETATM    3  C   UNL     1     -10.365  11.659  68.158  1.00  0.00    -0.194 C  
HETATM    4  H   UNL     1      -8.951  12.552  69.405  1.00  0.00     0.000 HD 
HETATM    5  O   UNL     1     -11.240  11.788  67.314  1.00  0.00    -0.267 OA 
ENDROOT
BRANCH   3   6
HETATM    6  C   UNL     1      -9.969  10.304  68.659  1.00  0.00    -0.183 A  
HETATM    7  C   UNL     1     -10.576   9.748  69.819  1.00  0.00    -0.257 A  
HETATM    8  I   UNL     1     -12.324  10.674  70.692  1.00  0.00    -0.485 I  
HETATM    9  C   UNL     1     -10.121   8.516  70.363  1.00  0.00    -0.208 A  
HETATM   10  C   UNL     1     -10.560   8.096  71.720  1.00  0.00    -0.250 C  
HETATM   11  C   UNL     1      -9.148   7.777  69.653  1.00  0.00    -0.146 A  
HETATM   12  C   UNL     1      -8.603   8.266  68.443  1.00  0.00    -0.133 A  
HETATM   13  I   UNL     1      -8.430   5.876  70.371  1.00  0.00    -0.136 I  
HETATM   14  O   UNL     1     -11.112   6.869  71.784  1.00  0.00    -0.234 OA 
HETATM   15  O   UNL     1     -10.428   8.818  72.694  1.00  0.00    -0.168 OA 
HETATM   16  C   UNL     1      -8.945   9.567  68.023  1.00  0.00    -0.123 A  
HETATM   17  I   UNL     1      -7.541  10.569  66.694  1.00  0.00    -0.135 I  
BRANCH  12  18
HETATM   18  N   UNL     1      -7.622   7.486  67.788  1.00  0.00    -0.104 N  
HETATM   19  C   UNL     1      -7.778   6.556  66.795  1.00  0.00    -0.099 C  
HETATM   20  H   UNL     1      -6.663   7.637  68.101  1.00  0.00     0.000 HD 
HETATM   21  O   UNL     1      -6.808   5.852  66.513  1.00  0.00    -0.056 OA 
HETATM   22  C   UNL     1      -9.098   6.351  66.100  1.00  0.00    -0.150 C  
ENDBRANCH  12  18
ENDBRANCH   3   6
TORSDOF 2
ENDMDL
MODEL       93
REMARK 921   NORMALIZED FREE ENERGY PREDICTED BY IDOCK:   -3.50 KCAL/MOL
REMARK 922        TOTAL FREE ENERGY PREDICTED BY IDOCK:   -4.34 KCAL/MOL
REMARK 923 INTER-LIGAND FREE ENERGY PREDICTED BY IDOCK:   -3.88 KCAL/MOL
REMARK 924 INTRA-LIGAND FREE ENERGY PREDICTED BY IDOCK:   -0.47 KCAL/MOL
REMARK 927      BINDING AFFINITY PREDICTED BY RF-SCORE:    0.00 PKD
ROOT
HETATM    1  C   UNL     1      -9.057   9.078  70.973  1.00  0.00    -0.257 C  
HETATM    2  N   UNL     1      -8.971   9.417  69.574  1.00  0.00    -0.152 N  
HETATM    3  C   UNL     1     -10.071   9.356  68.723  1.00  0.00    -0.193 C  
HETATM    4  H   UNL     1      -8.071   9.713  69.195  1.00  0.00     0.000 HD 
HETATM    5  O   UNL     1     -11.191   9.042  69.101  1.00  0.00     0.015 OA 
ENDROOT
BRANCH   3   6
HETATM    6  C   UNL     1      -9.803   9.682  67.286  1.00  0.00    -0.225 A  
HETATM    7  C   UNL     1      -9.234   8.715  66.412  1.00  0.00    -0.193 A  
HETATM    8  I   UNL     1      -9.060   6.650  67.026  1.00  0.00    -0.169 I  
HETATM    9  C   UNL     1      -8.871   9.057  65.081  1.00  0.00    -0.224 A  
HETATM   10  C   UNL     1      -8.022   8.134  64.282  1.00  0.00    -0.144 C  
HETATM   11  C   UNL     1      -9.215  10.337  64.590  1.00  0.00    -0.244 A  
HETATM   12  C   UNL     1      -9.872  11.280  65.414  1.00  0.00    -0.237 A  
HETATM   13  I   UNL     1      -8.752  10.932  62.570  1.00  0.00    -0.234 I  
HETATM   14  O   UNL     1      -8.530   7.791  63.082  1.00  0.00     0.017 OA 
HETATM   15  O   UNL     1      -6.950   7.723  64.693  1.00  0.00    -0.060 OA 
HETATM   16  C   UNL     1     -10.060  10.974  66.776  1.00  0.00    -0.220 A  
HETATM   17  I   UNL     1     -10.295  12.659  68.136  1.00  0.00    -0.252 I  
BRANCH  12  18
HETATM   18  N   UNL     1     -10.176  12.548  64.867  1.00  0.00    -0.339 N  
HETATM   19  C   UNL     1     -11.371  13.024  64.396  1.00  0.00    -0.357 C  
HETATM   20  H   UNL     1      -9.394  13.201  64.817  1.00  0.00     0.000 HD 
HETATM   21  O   UNL     1     -11.359  14.089  63.780  1.00  0.00     0.008 OA 
HETATM   22  C   UNL     1     -12.654  12.255  64.568  1.00  0.00    -0.416 C  
ENDBRANCH  12  18
ENDBRANCH   3   6
TORSDOF 2
ENDMDL
MODEL       94
REMARK 921   NORMALIZED FREE ENERGY PREDICTED BY IDOCK:   -3.48 KCAL/MOL
REMARK 922        TOTAL FREE ENERGY PREDICTED BY IDOCK:   -4.31 KCAL/MOL
REMARK 923 INTER-LIGAND FREE ENERGY PREDICTED BY IDOCK:   -4.02 KCAL/MOL
REMARK 924 INTRA-LIGAND FREE ENERGY PREDICTED BY IDOCK:   -0.29 KCAL/MOL
REMARK 927      BINDING AFFINITY PREDICTED BY RF-SCORE:    0.00 PKD
ROOT
HETATM    1  C   UNL     1     -14.318   7.432  71.357  1.00  0.00    -0.367 C  
HETATM    2  N   UNL     1     -13.032   7.547  70.714  1.00  0.00    -0.570 N  
HETATM    3  C   UNL     1     -12.015   8.352  71.221  1.00  0.00    -0.288 C  
HETATM    4  H   UNL     1     -12.863   7.021  69.858  1.00  0.00     0.000 HD 
HETATM    5  O   UNL     1     -12.123   8.992  72.258  1.00  0.00    -0.346 OA 
ENDROOT
BRANCH   3   6
HETATM    6  C   UNL     1     -10.761   8.411  70.403  1.00  0.00    -0.244 A  
HETATM    7  C   UNL     1     -10.562   9.444  69.447  1.00  0.00    -0.221 A  
HETATM    8  I   UNL     1     -11.886  11.151  69.384  1.00  0.00    -0.372 I  
HETATM    9  C   UNL     1      -9.428   9.437  68.589  1.00  0.00    -0.147 A  
HETATM   10  C   UNL     1      -9.379  10.347  67.414  1.00  0.00    -0.145 C  
HETATM   11  C   UNL     1      -8.425   8.462  68.796  1.00  0.00    -0.124 A  
HETATM   12  C   UNL     1      -8.558   7.485  69.809  1.00  0.00    -0.140 A  
HETATM   13  I   UNL     1      -6.647   8.398  67.579  1.00  0.00    -0.059 I  
HETATM   14  O   UNL     1      -8.283  11.127  67.345  1.00  0.00    -0.126 OA 
HETATM   15  O   UNL     1     -10.271  10.378  66.584  1.00  0.00    -0.219 OA 
HETATM   16  C   UNL     1      -9.770   7.411  70.524  1.00  0.00    -0.175 A  
HETATM   17  I   UNL     1     -10.256   5.495  71.438  1.00  0.00    -0.288 I  
BRANCH  12  18
HETATM   18  N   UNL     1      -7.527   6.528  69.954  1.00  0.00    -0.086 N  
HETATM   19  C   UNL     1      -6.499   6.496  70.859  1.00  0.00    -0.049 C  
HETATM   20  H   UNL     1      -7.552   5.754  69.292  1.00  0.00     0.000 HD 
HETATM   21  O   UNL     1      -5.601   5.674  70.675  1.00  0.00    -0.011 OA 
HETATM   22  C   UNL     1      -6.427   7.460  72.014  1.00  0.00    -0.043 C  
ENDBRANCH  12  18
ENDBRANCH   3   6
TORSDOF 2
ENDMDL
MODEL       95
REMARK 921   NORMALIZED FREE ENERGY PREDICTED BY IDOCK:   -3.47 KCAL/MOL
REMARK 922        TOTAL FREE ENERGY PREDICTED BY IDOCK:   -4.30 KCAL/MOL
REMARK 923 INTER-LIGAND FREE ENERGY PREDICTED BY IDOCK:   -3.88 KCAL/MOL
REMARK 924 INTRA-LIGAND FREE ENERGY PREDICTED BY IDOCK:   -0.43 KCAL/MOL
REMARK 927      BINDING AFFINITY PREDICTED BY RF-SCORE:    0.00 PKD
ROOT
HETATM    1  C   UNL     1     -12.056  14.602  64.333  1.00  0.00    -0.462 C  
HETATM    2  N   UNL     1     -10.905  13.889  64.826  1.00  0.00    -0.399 N  
HETATM    3  C   UNL     1     -10.997  12.613  65.376  1.00  0.00    -0.286 C  
HETATM    4  H   UNL     1      -9.989  14.335  64.770  1.00  0.00     0.000 HD 
HETATM    5  O   UNL     1     -12.048  11.993  65.453  1.00  0.00    -0.444 OA 
ENDROOT
BRANCH   3   6
HETATM    6  C   UNL     1      -9.718  12.033  65.897  1.00  0.00    -0.256 A  
HETATM    7  C   UNL     1      -9.152  12.495  67.118  1.00  0.00    -0.205 A  
HETATM    8  I   UNL     1     -10.281  13.787  68.431  1.00  0.00    -0.203 I  
HETATM    9  C   UNL     1      -7.882  12.030  67.555  1.00  0.00    -0.155 A  
HETATM   10  C   UNL     1      -7.178  12.726  68.665  1.00  0.00    -0.104 C  
HETATM   11  C   UNL     1      -7.250  10.994  66.831  1.00  0.00    -0.133 A  
HETATM   12  C   UNL     1      -7.845  10.451  65.668  1.00  0.00    -0.154 A  
HETATM   13  I   UNL     1      -5.346  10.189  67.443  1.00  0.00    -0.041 I  
HETATM   14  O   UNL     1      -6.800  11.930  69.685  1.00  0.00    -0.067 OA 
HETATM   15  O   UNL     1      -6.968  13.927  68.645  1.00  0.00    -0.094 OA 
HETATM   16  C   UNL     1      -9.015  11.052  65.164  1.00  0.00    -0.145 A  
HETATM   17  I   UNL     1      -9.429  10.767  63.045  1.00  0.00    -0.385 I  
BRANCH  12  18
HETATM   18  N   UNL     1      -7.155   9.427  64.981  1.00  0.00    -0.097 N  
HETATM   19  C   UNL     1      -7.282   8.068  65.099  1.00  0.00    -0.065 C  
HETATM   20  H   UNL     1      -6.466   9.744  64.300  1.00  0.00     0.000 HD 
HETATM   21  O   UNL     1      -6.437   7.364  64.545  1.00  0.00    -0.040 OA 
HETATM   22  C   UNL     1      -8.378   7.441  65.921  1.00  0.00    -0.140 C  
ENDBRANCH  12  18
ENDBRANCH   3   6
TORSDOF 2
ENDMDL
MODEL       96
REMARK 921   NORMALIZED FREE ENERGY PREDICTED BY IDOCK:   -3.47 KCAL/MOL
REMARK 922        TOTAL FREE ENERGY PREDICTED BY IDOCK:   -4.30 KCAL/MOL
REMARK 923 INTER-LIGAND FREE ENERGY PREDICTED BY IDOCK:   -4.04 KCAL/MOL
REMARK 924 INTRA-LIGAND FREE ENERGY PREDICTED BY IDOCK:   -0.26 KCAL/MOL
REMARK 927      BINDING AFFINITY PREDICTED BY RF-SCORE:    0.00 PKD
ROOT
HETATM    1  C   UNL     1      -5.758  11.946  70.527  1.00  0.00    -0.156 C  
HETATM    2  N   UNL     1      -6.792  11.998  69.524  1.00  0.00    -0.314 N  
HETATM    3  C   UNL     1      -6.510  12.174  68.172  1.00  0.00    -0.056 C  
HETATM    4  H   UNL     1      -7.764  11.902  69.815  1.00  0.00     0.000 HD 
HETATM    5  O   UNL     1      -5.372  12.266  67.732  1.00  0.00    -0.063 OA 
ENDROOT
BRANCH   3   6
HETATM    6  C   UNL     1      -7.699  12.266  67.264  1.00  0.00    -0.161 A  
HETATM    7  C   UNL     1      -8.601  13.362  67.353  1.00  0.00    -0.204 A  
HETATM    8  I   UNL     1      -8.107  15.095  68.546  1.00  0.00    -0.178 I  
HETATM    9  C   UNL     1      -9.791  13.394  66.576  1.00  0.00    -0.286 A  
HETATM   10  C   UNL     1     -10.855  14.386  66.885  1.00  0.00    -0.301 C  
HETATM   11  C   UNL     1      -9.996  12.387  65.605  1.00  0.00    -0.244 A  
HETATM   12  C   UNL     1      -9.059  11.342  65.432  1.00  0.00    -0.147 A  
HETATM   13  I   UNL     1     -11.744  12.376  64.344  1.00  0.00    -0.504 I  
HETATM   14  O   UNL     1     -11.242  15.146  65.843  1.00  0.00    -0.338 OA 
HETATM   15  O   UNL     1     -11.331  14.495  68.002  1.00  0.00    -0.278 OA 
HETATM   16  C   UNL     1      -7.982  11.241  66.335  1.00  0.00    -0.125 A  
HETATM   17  I   UNL     1      -7.077   9.274  66.567  1.00  0.00    -0.086 I  
BRANCH  12  18
HETATM   18  N   UNL     1      -9.330  10.357  64.454  1.00  0.00    -0.246 N  
HETATM   19  C   UNL     1      -8.749  10.173  63.227  1.00  0.00    -0.212 C  
HETATM   20  H   UNL     1     -10.061   9.689  64.697  1.00  0.00     0.000 HD 
HETATM   21  O   UNL     1      -9.280   9.373  62.457  1.00  0.00    -0.243 OA 
HETATM   22  C   UNL     1      -7.535  10.955  62.799  1.00  0.00     0.104 C  
ENDBRANCH  12  18
ENDBRANCH   3   6
TORSDOF 2
ENDMDL
MODEL       97
REMARK 921   NORMALIZED FREE ENERGY PREDICTED BY IDOCK:   -3.46 KCAL/MOL
REMARK 922        TOTAL FREE ENERGY PREDICTED BY IDOCK:   -4.29 KCAL/MOL
REMARK 923 INTER-LIGAND FREE ENERGY PREDICTED BY IDOCK:   -4.34 KCAL/MOL
REMARK 924 INTRA-LIGAND FREE ENERGY PREDICTED BY IDOCK:    0.04 KCAL/MOL
REMARK 927      BINDING AFFINITY PREDICTED BY RF-SCORE:    0.00 PKD
ROOT
HETATM    1  C   UNL     1      -7.570   9.227  69.390  1.00  0.00    -0.080 C  
HETATM    2  N   UNL     1      -8.077  10.443  68.804  1.00  0.00    -0.117 N  
HETATM    3  C   UNL     1      -7.392  11.133  67.808  1.00  0.00    -0.093 C  
HETATM    4  H   UNL     1      -8.971  10.810  69.131  1.00  0.00     0.000 HD 
HETATM    5  O   UNL     1      -6.331  10.747  67.336  1.00  0.00    -0.056 OA 
ENDROOT
BRANCH   3   6
HETATM    6  C   UNL     1      -8.023  12.411  67.347  1.00  0.00    -0.178 A  
HETATM    7  C   UNL     1      -7.784  13.632  68.036  1.00  0.00    -0.143 A  
HETATM    8  I   UNL     1      -6.242  13.758  69.544  1.00  0.00    -0.086 I  
HETATM    9  C   UNL     1      -8.473  14.822  67.672  1.00  0.00    -0.185 A  
HETATM   10  C   UNL     1      -8.434  16.006  68.571  1.00  0.00    -0.189 C  
HETATM   11  C   UNL     1      -9.295  14.808  66.522  1.00  0.00    -0.290 A  
HETATM   12  C   UNL     1      -9.466  13.626  65.765  1.00  0.00     0.039 A  
HETATM   13  I   UNL     1     -10.340  16.574  65.863  1.00  0.00    -0.173 I  
HETATM   14  O   UNL     1      -8.030  17.151  67.986  1.00  0.00    -0.200 OA 
HETATM   15  O   UNL     1      -8.745  15.935  69.748  1.00  0.00    -0.089 OA 
HETATM   16  C   UNL     1      -8.913  12.425  66.250  1.00  0.00    -0.037 A  
HETATM   17  I   UNL     1      -9.834  10.574  65.566  1.00  0.00    -0.361 I  
BRANCH  12  18
HETATM   18  N   UNL     1     -10.313  13.675  64.634  1.00  0.00    -0.540 N  
HETATM   19  C   UNL     1     -11.677  13.563  64.570  1.00  0.00    -0.397 C  
HETATM   20  H   UNL     1      -9.843  13.812  63.740  1.00  0.00     0.000 HD 
HETATM   21  O   UNL     1     -12.189  13.434  63.458  1.00  0.00    -0.648 OA 
HETATM   22  C   UNL     1     -12.531  13.541  65.810  1.00  0.00    -0.514 C  
ENDBRANCH  12  18
ENDBRANCH   3   6
TORSDOF 2
ENDMDL
MODEL       98
REMARK 921   NORMALIZED FREE ENERGY PREDICTED BY IDOCK:   -3.46 KCAL/MOL
REMARK 922        TOTAL FREE ENERGY PREDICTED BY IDOCK:   -4.29 KCAL/MOL
REMARK 923 INTER-LIGAND FREE ENERGY PREDICTED BY IDOCK:   -3.82 KCAL/MOL
REMARK 924 INTRA-LIGAND FREE ENERGY PREDICTED BY IDOCK:   -0.47 KCAL/MOL
REMARK 927      BINDING AFFINITY PREDICTED BY RF-SCORE:    0.00 PKD
ROOT
HETATM    1  C   UNL     1      -7.715  13.299  68.575  1.00  0.00    -0.120 C  
HETATM    2  N   UNL     1      -8.100  12.010  69.093  1.00  0.00    -0.333 N  
HETATM    3  C   UNL     1      -8.612  11.003  68.280  1.00  0.00    -0.143 C  
HETATM    4  H   UNL     1      -7.995  11.831  70.092  1.00  0.00     0.000 HD 
HETATM    5  O   UNL     1      -8.743  11.122  67.070  1.00  0.00    -0.141 OA 
ENDROOT
BRANCH   3   6
HETATM    6  C   UNL     1      -9.021   9.744  68.981  1.00  0.00    -0.154 A  
HETATM    7  C   UNL     1     -10.281   9.649  69.635  1.00  0.00    -0.222 A  
HETATM    8  I   UNL     1     -11.783  11.176  69.347  1.00  0.00    -0.454 I  
HETATM    9  C   UNL     1     -10.623   8.500  70.399  1.00  0.00    -0.242 A  
HETATM   10  C   UNL     1     -11.803   8.533  71.304  1.00  0.00    -0.291 C  
HETATM   11  C   UNL     1      -9.750   7.388  70.383  1.00  0.00    -0.175 A  
HETATM   12  C   UNL     1      -8.537   7.426  69.656  1.00  0.00    -0.137 A  
HETATM   13  I   UNL     1     -10.204   5.583  71.470  1.00  0.00    -0.286 I  
HETATM   14  O   UNL     1     -12.695   7.543  71.110  1.00  0.00    -0.310 OA 
HETATM   15  O   UNL     1     -11.943   9.398  72.151  1.00  0.00    -0.322 OA 
HETATM   16  C   UNL     1      -8.145   8.638  69.056  1.00  0.00    -0.121 A  
HETATM   17  I   UNL     1      -6.016   8.904  68.681  1.00  0.00    -0.045 I  
BRANCH  12  18
HETATM   18  N   UNL     1      -7.701   6.287  69.694  1.00  0.00    -0.097 N  
HETATM   19  C   UNL     1      -7.564   5.283  68.771  1.00  0.00    -0.082 C  
HETATM   20  H   UNL     1      -7.117   6.199  70.525  1.00  0.00     0.000 HD 
HETATM   21  O   UNL     1      -6.924   4.285  69.102  1.00  0.00    -0.048 OA 
HETATM   22  C   UNL     1      -8.214   5.358  67.415  1.00  0.00    -0.100 C  
ENDBRANCH  12  18
ENDBRANCH   3   6
TORSDOF 2
ENDMDL
MODEL       99
REMARK 921   NORMALIZED FREE ENERGY PREDICTED BY IDOCK:   -3.46 KCAL/MOL
REMARK 922        TOTAL FREE ENERGY PREDICTED BY IDOCK:   -4.29 KCAL/MOL
REMARK 923 INTER-LIGAND FREE ENERGY PREDICTED BY IDOCK:   -4.44 KCAL/MOL
REMARK 924 INTRA-LIGAND FREE ENERGY PREDICTED BY IDOCK:    0.15 KCAL/MOL
REMARK 927      BINDING AFFINITY PREDICTED BY RF-SCORE:    0.00 PKD
ROOT
HETATM    1  C   UNL     1      -5.808  19.540  70.840  1.00  0.00    -0.164 C  
HETATM    2  N   UNL     1      -6.724  18.806  70.003  1.00  0.00     0.102 N  
HETATM    3  C   UNL     1      -6.334  18.229  68.798  1.00  0.00    -0.220 C  
HETATM    4  H   UNL     1      -7.694  18.706  70.305  1.00  0.00     0.000 HD 
HETATM    5  O   UNL     1      -5.186  18.273  68.377  1.00  0.00    -0.164 OA 
ENDROOT
BRANCH   3   6
HETATM    6  C   UNL     1      -7.418  17.553  68.017  1.00  0.00    -0.214 A  
HETATM    7  C   UNL     1      -8.384  18.313  67.301  1.00  0.00    -0.246 A  
HETATM    8  I   UNL     1      -8.123  20.440  67.027  1.00  0.00    -0.202 I  
HETATM    9  C   UNL     1      -9.481  17.678  66.656  1.00  0.00    -0.288 A  
HETATM   10  C   UNL     1     -10.626  18.490  66.166  1.00  0.00    -0.338 C  
HETATM   11  C   UNL     1      -9.521  16.265  66.615  1.00  0.00    -0.248 A  
HETATM   12  C   UNL     1      -8.514  15.491  67.235  1.00  0.00    -0.193 A  
HETATM   13  I   UNL     1     -11.116  15.212  65.619  1.00  0.00    -0.237 I  
HETATM   14  O   UNL     1     -10.939  18.307  64.869  1.00  0.00    -0.660 OA 
HETATM   15  O   UNL     1     -11.228  19.263  66.893  1.00  0.00    -0.233 OA 
HETATM   16  C   UNL     1      -7.539  16.145  68.014  1.00  0.00    -0.133 A  
HETATM   17  I   UNL     1      -6.557  14.961  69.555  1.00  0.00    -0.182 I  
BRANCH  12  18
HETATM   18  N   UNL     1      -8.620  14.082  67.171  1.00  0.00    -0.246 N  
HETATM   19  C   UNL     1      -9.395  13.238  67.922  1.00  0.00    -0.214 C  
HETATM   20  H   UNL     1      -8.037  13.631  66.466  1.00  0.00     0.000 HD 
HETATM   21  O   UNL     1      -9.178  12.029  67.829  1.00  0.00    -0.177 OA 
HETATM   22  C   UNL     1     -10.441  13.756  68.873  1.00  0.00    -0.183 C  
ENDBRANCH  12  18
ENDBRANCH   3   6
TORSDOF 2
ENDMDL
MODEL      100
REMARK 921   NORMALIZED FREE ENERGY PREDICTED BY IDOCK:   -3.44 KCAL/MOL
REMARK 922        TOTAL FREE ENERGY PREDICTED BY IDOCK:   -4.27 KCAL/MOL
REMARK 923 INTER-LIGAND FREE ENERGY PREDICTED BY IDOCK:   -3.92 KCAL/MOL
REMARK 924 INTRA-LIGAND FREE ENERGY PREDICTED BY IDOCK:   -0.36 KCAL/MOL
REMARK 927      BINDING AFFINITY PREDICTED BY RF-SCORE:    0.00 PKD
ROOT
HETATM    1  C   UNL     1     -12.011  11.027  68.967  1.00  0.00    -0.293 C  
HETATM    2  N   UNL     1     -11.574   9.660  69.106  1.00  0.00    -0.412 N  
HETATM    3  C   UNL     1     -10.251   9.325  69.380  1.00  0.00    -0.210 C  
HETATM    4  H   UNL     1     -12.259   8.912  69.001  1.00  0.00     0.000 HD 
HETATM    5  O   UNL     1      -9.372  10.158  69.552  1.00  0.00    -0.210 OA 
ENDROOT
BRANCH   3   6
HETATM    6  C   UNL     1      -9.947   7.859  69.434  1.00  0.00    -0.189 A  
HETATM    7  C   UNL     1      -9.722   7.116  68.243  1.00  0.00    -0.144 A  
HETATM    8  I   UNL     1      -9.465   8.128  66.351  1.00  0.00    -0.182 I  
HETATM    9  C   UNL     1      -9.550   5.705  68.283  1.00  0.00    -0.145 A  
HETATM   10  C   UNL     1      -9.606   4.913  67.026  1.00  0.00    -0.159 C  
HETATM   11  C   UNL     1      -9.462   5.066  69.542  1.00  0.00    -0.143 A  
HETATM   12  C   UNL     1      -9.583   5.804  70.742  1.00  0.00    -0.171 A  
HETATM   13  I   UNL     1      -9.152   2.940  69.707  1.00  0.00    -0.183 I  
HETATM   14  O   UNL     1      -8.540   4.119  66.807  1.00  0.00    -0.107 OA 
HETATM   15  O   UNL     1     -10.549   4.988  66.257  1.00  0.00    -0.304 OA 
HETATM   16  C   UNL     1      -9.928   7.168  70.666  1.00  0.00    -0.190 A  
HETATM   17  I   UNL     1     -10.881   8.038  72.421  1.00  0.00    -0.425 I  
BRANCH  12  18
HETATM   18  N   UNL     1      -9.502   5.104  71.967  1.00  0.00    -0.147 N  
HETATM   19  C   UNL     1      -8.523   5.147  72.925  1.00  0.00    -0.116 C  
HETATM   20  H   UNL     1     -10.282   4.478  72.166  1.00  0.00     0.000 HD 
HETATM   21  O   UNL     1      -8.561   4.302  73.819  1.00  0.00    -0.092 OA 
HETATM   22  C   UNL     1      -7.402   6.151  72.870  1.00  0.00    -0.093 C  
ENDBRANCH  12  18
ENDBRANCH   3   6
TORSDOF 2
ENDMDL
MODEL      101
REMARK 921   NORMALIZED FREE ENERGY PREDICTED BY IDOCK:   -3.43 KCAL/MOL
REMARK 922        TOTAL FREE ENERGY PREDICTED BY IDOCK:   -4.26 KCAL/MOL
REMARK 923 INTER-LIGAND FREE ENERGY PREDICTED BY IDOCK:   -4.48 KCAL/MOL
REMARK 924 INTRA-LIGAND FREE ENERGY PREDICTED BY IDOCK:    0.22 KCAL/MOL
REMARK 927      BINDING AFFINITY PREDICTED BY RF-SCORE:    0.00 PKD
ROOT
HETATM    1  C   UNL     1      -9.803  10.191  64.211  1.00  0.00    -0.200 C  
HETATM    2  N   UNL     1     -10.094   9.772  65.559  1.00  0.00    -0.296 N  
HETATM    3  C   UNL     1      -9.287  10.120  66.639  1.00  0.00    -0.162 C  
HETATM    4  H   UNL     1     -10.922   9.200  65.728  1.00  0.00     0.000 HD 
HETATM    5  O   UNL     1      -8.295  10.828  66.531  1.00  0.00    -0.135 OA 
ENDROOT
BRANCH   3   6
HETATM    6  C   UNL     1      -9.693   9.555  67.966  1.00  0.00    -0.168 A  
HETATM    7  C   UNL     1      -9.411   8.201  68.299  1.00  0.00    -0.141 A  
HETATM    8  I   UNL     1      -8.092   7.018  67.062  1.00  0.00    -0.121 I  
HETATM    9  C   UNL     1      -9.897   7.630  69.507  1.00  0.00    -0.178 A  
HETATM   10  C   UNL     1      -9.846   6.157  69.706  1.00  0.00    -0.163 C  
HETATM   11  C   UNL     1     -10.545   8.469  70.443  1.00  0.00    -0.223 A  
HETATM   12  C   UNL     1     -10.746   9.842  70.173  1.00  0.00    -0.289 A  
HETATM   13  I   UNL     1     -11.273   7.707  72.324  1.00  0.00    -0.436 I  
HETATM   14  O   UNL     1      -9.232   5.758  70.836  1.00  0.00    -0.153 OA 
HETATM   15  O   UNL     1     -10.325   5.380  68.898  1.00  0.00    -0.204 OA 
HETATM   16  C   UNL     1     -10.411  10.337  68.897  1.00  0.00    -0.211 A  
HETATM   17  I   UNL     1     -11.439  12.143  68.245  1.00  0.00    -0.407 I  
BRANCH  12  18
HETATM   18  N   UNL     1     -11.414  10.623  71.144  1.00  0.00    -0.214 N  
HETATM   19  C   UNL     1     -12.754  10.699  71.419  1.00  0.00    -0.440 C  
HETATM   20  H   UNL     1     -10.814  11.213  71.719  1.00  0.00     0.000 HD 
HETATM   21  O   UNL     1     -13.133  11.596  72.173  1.00  0.00    -0.457 OA 
HETATM   22  C   UNL     1     -13.749   9.761  70.788  1.00  0.00     0.118 C  
ENDBRANCH  12  18
ENDBRANCH   3   6
TORSDOF 2
ENDMDL
MODEL      102
REMARK 921   NORMALIZED FREE ENERGY PREDICTED BY IDOCK:   -3.41 KCAL/MOL
REMARK 922        TOTAL FREE ENERGY PREDICTED BY IDOCK:   -4.24 KCAL/MOL
REMARK 923 INTER-LIGAND FREE ENERGY PREDICTED BY IDOCK:   -4.20 KCAL/MOL
REMARK 924 INTRA-LIGAND FREE ENERGY PREDICTED BY IDOCK:   -0.04 KCAL/MOL
REMARK 927      BINDING AFFINITY PREDICTED BY RF-SCORE:    0.00 PKD
ROOT
HETATM    1  C   UNL     1     -11.770  12.353  68.266  1.00  0.00    -0.345 C  
HETATM    2  N   UNL     1     -11.442  10.950  68.218  1.00  0.00    -0.311 N  
HETATM    3  C   UNL     1     -10.157  10.475  68.468  1.00  0.00    -0.173 C  
HETATM    4  H   UNL     1     -12.178  10.281  67.993  1.00  0.00     0.000 HD 
HETATM    5  O   UNL     1      -9.224  11.204  68.775  1.00  0.00    -0.180 OA 
ENDROOT
BRANCH   3   6
HETATM    6  C   UNL     1      -9.967   8.997  68.319  1.00  0.00    -0.198 A  
HETATM    7  C   UNL     1     -10.004   8.139  69.453  1.00  0.00    -0.188 A  
HETATM    8  I   UNL     1     -10.679   8.880  71.368  1.00  0.00    -0.455 I  
HETATM    9  C   UNL     1      -9.709   6.754  69.331  1.00  0.00    -0.155 A  
HETATM   10  C   UNL     1      -9.468   5.935  70.549  1.00  0.00    -0.167 C  
HETATM   11  C   UNL     1      -9.515   6.211  68.040  1.00  0.00    -0.113 A  
HETATM   12  C   UNL     1      -9.574   7.032  66.889  1.00  0.00    -0.168 A  
HETATM   13  I   UNL     1      -9.110   4.114  67.748  1.00  0.00    -0.221 I  
HETATM   14  O   UNL     1     -10.230   4.829  70.648  1.00  0.00    -0.230 OA 
HETATM   15  O   UNL     1      -8.643   6.253  71.388  1.00  0.00    -0.130 OA 
HETATM   16  C   UNL     1      -9.693   8.425  67.057  1.00  0.00    -0.206 A  
HETATM   17  I   UNL     1      -8.979   9.675  65.423  1.00  0.00    -0.295 I  
BRANCH  12  18
HETATM   18  N   UNL     1      -9.356   6.430  65.629  1.00  0.00    -0.377 N  
HETATM   19  C   UNL     1      -8.184   6.264  64.940  1.00  0.00    -0.119 C  
HETATM   20  H   UNL     1     -10.191   6.069  65.166  1.00  0.00     0.000 HD 
HETATM   21  O   UNL     1      -8.256   5.892  63.768  1.00  0.00    -0.116 OA 
HETATM   22  C   UNL     1      -6.848   6.574  65.561  1.00  0.00    -0.048 C  
ENDBRANCH  12  18
ENDBRANCH   3   6
TORSDOF 2
ENDMDL
MODEL      103
REMARK 921   NORMALIZED FREE ENERGY PREDICTED BY IDOCK:   -3.38 KCAL/MOL
REMARK 922        TOTAL FREE ENERGY PREDICTED BY IDOCK:   -4.20 KCAL/MOL
REMARK 923 INTER-LIGAND FREE ENERGY PREDICTED BY IDOCK:   -4.17 KCAL/MOL
REMARK 924 INTRA-LIGAND FREE ENERGY PREDICTED BY IDOCK:   -0.03 KCAL/MOL
REMARK 927      BINDING AFFINITY PREDICTED BY RF-SCORE:    0.00 PKD
ROOT
HETATM    1  C   UNL     1      -6.240   5.844  66.835  1.00  0.00    -0.030 C  
HETATM    2  N   UNL     1      -7.231   6.404  67.719  1.00  0.00    -0.084 N  
HETATM    3  C   UNL     1      -8.592   6.150  67.570  1.00  0.00    -0.106 C  
HETATM    4  H   UNL     1      -6.924   7.009  68.481  1.00  0.00     0.000 HD 
HETATM    5  O   UNL     1      -9.044   5.413  66.705  1.00  0.00    -0.119 OA 
ENDROOT
BRANCH   3   6
HETATM    6  C   UNL     1      -9.497   6.856  68.533  1.00  0.00    -0.133 A  
HETATM    7  C   UNL     1      -9.894   8.203  68.308  1.00  0.00    -0.171 A  
HETATM    8  I   UNL     1      -9.498   9.160  66.411  1.00  0.00    -0.355 I  
HETATM    9  C   UNL     1     -10.656   8.911  69.277  1.00  0.00    -0.219 A  
HETATM   10  C   UNL     1     -10.814  10.386  69.164  1.00  0.00    -0.236 C  
HETATM   11  C   UNL     1     -11.136   8.213  70.408  1.00  0.00    -0.239 A  
HETATM   12  C   UNL     1     -10.835   6.844  70.600  1.00  0.00    -0.245 A  
HETATM   13  I   UNL     1     -12.340   9.188  71.907  1.00  0.00    -0.435 I  
HETATM   14  O   UNL     1     -12.088  10.823  69.180  1.00  0.00    -0.332 OA 
HETATM   15  O   UNL     1      -9.856  11.133  69.062  1.00  0.00    -0.189 OA 
HETATM   16  C   UNL     1      -9.935   6.219  69.715  1.00  0.00    -0.168 A  
HETATM   17  I   UNL     1      -8.888   4.461  70.462  1.00  0.00    -0.177 I  
BRANCH  12  18
HETATM   18  N   UNL     1     -11.333   6.207  71.759  1.00  0.00    -0.287 N  
HETATM   19  C   UNL     1     -10.753   6.081  72.994  1.00  0.00    -0.252 C  
HETATM   20  H   UNL     1     -12.255   5.781  71.663  1.00  0.00     0.000 HD 
HETATM   21  O   UNL     1     -11.280   5.313  73.798  1.00  0.00    -0.219 OA 
HETATM   22  C   UNL     1      -9.483   6.808  73.352  1.00  0.00    -0.177 C  
ENDBRANCH  12  18
ENDBRANCH   3   6
TORSDOF 2
ENDMDL
MODEL      104
REMARK 921   NORMALIZED FREE ENERGY PREDICTED BY IDOCK:   -3.37 KCAL/MOL
REMARK 922        TOTAL FREE ENERGY PREDICTED BY IDOCK:   -4.20 KCAL/MOL
REMARK 923 INTER-LIGAND FREE ENERGY PREDICTED BY IDOCK:   -4.01 KCAL/MOL
REMARK 924 INTRA-LIGAND FREE ENERGY PREDICTED BY IDOCK:   -0.19 KCAL/MOL
REMARK 927      BINDING AFFINITY PREDICTED BY RF-SCORE:    0.00 PKD
ROOT
HETATM    1  C   UNL     1     -10.903  18.032  67.510  1.00  0.00    -0.234 C  
HETATM    2  N   UNL     1     -10.946  16.601  67.683  1.00  0.00    -0.253 N  
HETATM    3  C   UNL     1     -10.747  15.993  68.920  1.00  0.00    -0.275 C  
HETATM    4  H   UNL     1     -11.129  16.013  66.870  1.00  0.00     0.000 HD 
HETATM    5  O   UNL     1     -10.553  16.622  69.951  1.00  0.00    -0.275 OA 
ENDROOT
BRANCH   3   6
HETATM    6  C   UNL     1     -10.763  14.495  68.921  1.00  0.00    -0.259 A  
HETATM    7  C   UNL     1     -11.724  13.776  69.685  1.00  0.00    -0.318 A  
HETATM    8  I   UNL     1     -13.398  14.802  70.587  1.00  0.00     0.199 I  
HETATM    9  C   UNL     1     -11.669  12.359  69.780  1.00  0.00    -0.361 A  
HETATM   10  C   UNL     1     -12.486  11.651  70.801  1.00  0.00    -0.330 C  
HETATM   11  C   UNL     1     -10.729  11.660  68.988  1.00  0.00    -0.179 A  
HETATM   12  C   UNL     1      -9.831  12.352  68.144  1.00  0.00    -0.213 A  
HETATM   13  I   UNL     1     -10.602   9.508  69.026  1.00  0.00    -0.164 I  
HETATM   14  O   UNL     1     -13.277  10.673  70.316  1.00  0.00    -0.156 OA 
HETATM   15  O   UNL     1     -12.439  11.943  71.984  1.00  0.00     0.061 OA 
HETATM   16  C   UNL     1      -9.793  13.759  68.204  1.00  0.00    -0.239 A  
HETATM   17  I   UNL     1      -7.945  14.719  67.566  1.00  0.00    -0.224 I  
BRANCH  12  18
HETATM   18  N   UNL     1      -8.906  11.596  67.388  1.00  0.00    -0.156 N  
HETATM   19  C   UNL     1      -8.954  11.243  66.065  1.00  0.00    -0.200 C  
HETATM   20  H   UNL     1      -8.089  11.266  67.901  1.00  0.00     0.000 HD 
HETATM   21  O   UNL     1      -8.139  10.411  65.666  1.00  0.00    -0.147 OA 
HETATM   22  C   UNL     1      -9.994  11.802  65.131  1.00  0.00    -0.285 C  
ENDBRANCH  12  18
ENDBRANCH   3   6
TORSDOF 2
ENDMDL
MODEL      105
REMARK 921   NORMALIZED FREE ENERGY PREDICTED BY IDOCK:   -3.36 KCAL/MOL
REMARK 922        TOTAL FREE ENERGY PREDICTED BY IDOCK:   -4.18 KCAL/MOL
REMARK 923 INTER-LIGAND FREE ENERGY PREDICTED BY IDOCK:   -4.50 KCAL/MOL
REMARK 924 INTRA-LIGAND FREE ENERGY PREDICTED BY IDOCK:    0.31 KCAL/MOL
REMARK 927      BINDING AFFINITY PREDICTED BY RF-SCORE:    0.00 PKD
ROOT
HETATM    1  C   UNL     1     -11.558  14.954  70.746  1.00  0.00    -0.296 C  
HETATM    2  N   UNL     1     -11.132  13.698  70.178  1.00  0.00    -0.389 N  
HETATM    3  C   UNL     1     -11.726  13.154  69.042  1.00  0.00    -0.321 C  
HETATM    4  H   UNL     1     -10.369  13.190  70.625  1.00  0.00     0.000 HD 
HETATM    5  O   UNL     1     -12.624  13.711  68.426  1.00  0.00     0.126 OA 
ENDROOT
BRANCH   3   6
HETATM    6  C   UNL     1     -11.210  11.815  68.614  1.00  0.00    -0.312 A  
HETATM    7  C   UNL     1     -11.358  10.675  69.452  1.00  0.00    -0.284 A  
HETATM    8  I   UNL     1     -12.628  10.754  71.199  1.00  0.00    -0.487 I  
HETATM    9  C   UNL     1     -10.768   9.430  69.101  1.00  0.00    -0.216 A  
HETATM   10  C   UNL     1     -10.682   8.339  70.108  1.00  0.00    -0.239 C  
HETATM   11  C   UNL     1     -10.151   9.302  67.835  1.00  0.00    -0.200 A  
HETATM   12  C   UNL     1     -10.082  10.399  66.946  1.00  0.00    -0.219 A  
HETATM   13  I   UNL     1      -9.272   7.441  67.193  1.00  0.00    -0.200 I  
HETATM   14  O   UNL     1     -11.205   7.161  69.715  1.00  0.00    -0.243 OA 
HETATM   15  O   UNL     1     -10.176   8.510  71.204  1.00  0.00    -0.193 OA 
HETATM   16  C   UNL     1     -10.519  11.661  67.392  1.00  0.00    -0.210 A  
HETATM   17  I   UNL     1      -9.683  13.401  66.383  1.00  0.00    -0.192 I  
BRANCH  12  18
HETATM   18  N   UNL     1      -9.438  10.210  65.701  1.00  0.00    -0.202 N  
HETATM   19  C   UNL     1      -8.138  10.464  65.352  1.00  0.00    -0.152 C  
HETATM   20  H   UNL     1     -10.025   9.831  64.958  1.00  0.00     0.000 HD 
HETATM   21  O   UNL     1      -7.846  10.412  64.158  1.00  0.00    -0.136 OA 
HETATM   22  C   UNL     1      -7.103  10.850  66.376  1.00  0.00    -0.133 C  
ENDBRANCH  12  18
ENDBRANCH   3   6
TORSDOF 2
ENDMDL
MODEL      106
REMARK 921   NORMALIZED FREE ENERGY PREDICTED BY IDOCK:   -3.36 KCAL/MOL
REMARK 922        TOTAL FREE ENERGY PREDICTED BY IDOCK:   -4.18 KCAL/MOL
REMARK 923 INTER-LIGAND FREE ENERGY PREDICTED BY IDOCK:   -4.11 KCAL/MOL
REMARK 924 INTRA-LIGAND FREE ENERGY PREDICTED BY IDOCK:   -0.07 KCAL/MOL
REMARK 927      BINDING AFFINITY PREDICTED BY RF-SCORE:    0.00 PKD
ROOT
HETATM    1  C   UNL     1     -10.693   4.549  64.736  1.00  0.00     0.049 C  
HETATM    2  N   UNL     1     -10.814   5.090  66.068  1.00  0.00    -0.688 N  
HETATM    3  C   UNL     1      -9.714   5.545  66.790  1.00  0.00    -0.155 C  
HETATM    4  H   UNL     1     -11.738   5.140  66.495  1.00  0.00     0.000 HD 
HETATM    5  O   UNL     1      -8.576   5.550  66.342  1.00  0.00    -0.117 OA 
ENDROOT
BRANCH   3   6
HETATM    6  C   UNL     1      -9.999   6.020  68.182  1.00  0.00    -0.168 A  
HETATM    7  C   UNL     1     -10.132   7.407  68.466  1.00  0.00    -0.175 A  
HETATM    8  I   UNL     1     -10.275   8.847  66.860  1.00  0.00    -0.255 I  
HETATM    9  C   UNL     1     -10.286   7.868  69.802  1.00  0.00    -0.212 A  
HETATM   10  C   UNL     1     -10.132   9.314  70.112  1.00  0.00    -0.213 C  
HETATM   11  C   UNL     1     -10.449   6.916  70.835  1.00  0.00    -0.211 A  
HETATM   12  C   UNL     1     -10.421   5.530  70.558  1.00  0.00    -0.277 A  
HETATM   13  I   UNL     1     -10.738   7.517  72.885  1.00  0.00    -0.420 I  
HETATM   14  O   UNL     1     -11.169   9.867  70.771  1.00  0.00    -0.303 OA 
HETATM   15  O   UNL     1      -9.140   9.943  69.786  1.00  0.00    -0.212 OA 
HETATM   16  C   UNL     1     -10.091   5.106  69.255  1.00  0.00    -0.213 A  
HETATM   17  I   UNL     1      -9.274   3.098  69.054  1.00  0.00    -0.138 I  
BRANCH  12  18
HETATM   18  N   UNL     1     -10.575   4.630  71.637  1.00  0.00    -0.050 N  
HETATM   19  C   UNL     1      -9.619   4.093  72.459  1.00  0.00    -0.139 C  
HETATM   20  H   UNL     1     -11.533   4.339  71.831  1.00  0.00     0.000 HD 
HETATM   21  O   UNL     1      -9.957   3.175  73.206  1.00  0.00    -0.106 OA 
HETATM   22  C   UNL     1      -8.188   4.561  72.424  1.00  0.00    -0.109 C  
ENDBRANCH  12  18
ENDBRANCH   3   6
TORSDOF 2
ENDMDL
MODEL      107
REMARK 921   NORMALIZED FREE ENERGY PREDICTED BY IDOCK:   -3.34 KCAL/MOL
REMARK 922        TOTAL FREE ENERGY PREDICTED BY IDOCK:   -4.16 KCAL/MOL
REMARK 923 INTER-LIGAND FREE ENERGY PREDICTED BY IDOCK:   -4.12 KCAL/MOL
REMARK 924 INTRA-LIGAND FREE ENERGY PREDICTED BY IDOCK:   -0.04 KCAL/MOL
REMARK 927      BINDING AFFINITY PREDICTED BY RF-SCORE:    0.00 PKD
ROOT
HETATM    1  C   UNL     1      -8.197   3.117  67.564  1.00  0.00    -0.081 C  
HETATM    2  N   UNL     1      -8.407   4.538  67.439  1.00  0.00    -0.104 N  
HETATM    3  C   UNL     1      -9.450   5.075  66.690  1.00  0.00    -0.146 C  
HETATM    4  H   UNL     1      -7.767   5.173  67.917  1.00  0.00     0.000 HD 
HETATM    5  O   UNL     1     -10.280   4.388  66.111  1.00  0.00    -0.243 OA 
ENDROOT
BRANCH   3   6
HETATM    6  C   UNL     1      -9.494   6.571  66.611  1.00  0.00    -0.193 A  
HETATM    7  C   UNL     1      -8.692   7.275  65.672  1.00  0.00    -0.070 A  
HETATM    8  I   UNL     1      -7.653   6.214  64.102  1.00  0.00    -0.107 I  
HETATM    9  C   UNL     1      -8.644   8.696  65.673  1.00  0.00    -0.191 A  
HETATM   10  C   UNL     1      -7.595   9.405  64.892  1.00  0.00    -0.110 C  
HETATM   11  C   UNL     1      -9.516   9.406  66.530  1.00  0.00    -0.190 A  
HETATM   12  C   UNL     1     -10.395   8.721  67.401  1.00  0.00    -0.280 A  
HETATM   13  I   UNL     1      -9.553  11.561  66.569  1.00  0.00    -0.254 I  
HETATM   14  O   UNL     1      -8.058  10.333  64.032  1.00  0.00    -0.156 OA 
HETATM   15  O   UNL     1      -6.410   9.155  65.026  1.00  0.00    -0.064 OA 
HETATM   16  C   UNL     1     -10.294   7.320  67.502  1.00  0.00    -0.242 A  
HETATM   17  I   UNL     1     -11.019   6.414  69.345  1.00  0.00    -0.410 I  
BRANCH  12  18
HETATM   18  N   UNL     1     -11.232   9.489  68.244  1.00  0.00    -0.505 N  
HETATM   19  C   UNL     1     -10.969  10.007  69.485  1.00  0.00    -0.253 C  
HETATM   20  H   UNL     1     -12.163   9.684  67.876  1.00  0.00     0.000 HD 
HETATM   21  O   UNL     1     -11.913  10.473  70.122  1.00  0.00    -0.281 OA 
HETATM   22  C   UNL     1      -9.589   9.965  70.086  1.00  0.00    -0.237 C  
ENDBRANCH  12  18
ENDBRANCH   3   6
TORSDOF 2
ENDMDL
MODEL      108
REMARK 921   NORMALIZED FREE ENERGY PREDICTED BY IDOCK:   -3.32 KCAL/MOL
REMARK 922        TOTAL FREE ENERGY PREDICTED BY IDOCK:   -4.14 KCAL/MOL
REMARK 923 INTER-LIGAND FREE ENERGY PREDICTED BY IDOCK:   -4.11 KCAL/MOL
REMARK 924 INTRA-LIGAND FREE ENERGY PREDICTED BY IDOCK:   -0.03 KCAL/MOL
REMARK 927      BINDING AFFINITY PREDICTED BY RF-SCORE:    0.00 PKD
ROOT
HETATM    1  C   UNL     1      -9.452   5.931  72.944  1.00  0.00    -0.151 C  
HETATM    2  N   UNL     1      -9.438   6.648  71.693  1.00  0.00    -0.160 N  
HETATM    3  C   UNL     1     -10.468   6.542  70.762  1.00  0.00    -0.220 C  
HETATM    4  H   UNL     1      -8.646   7.254  71.483  1.00  0.00     0.000 HD 
HETATM    5  O   UNL     1     -11.469   5.863  70.947  1.00  0.00    -0.234 OA 
ENDROOT
BRANCH   3   6
HETATM    6  C   UNL     1     -10.275   7.304  69.487  1.00  0.00    -0.200 A  
HETATM    7  C   UNL     1      -9.429   6.803  68.459  1.00  0.00    -0.131 A  
HETATM    8  I   UNL     1      -8.675   4.780  68.548  1.00  0.00    -0.139 I  
HETATM    9  C   UNL     1      -9.153   7.578  67.299  1.00  0.00    -0.137 A  
HETATM   10  C   UNL     1      -8.054   7.175  66.382  1.00  0.00    -0.116 C  
HETATM   11  C   UNL     1      -9.845   8.797  67.114  1.00  0.00    -0.207 A  
HETATM   12  C   UNL     1     -10.767   9.263  68.079  1.00  0.00    -0.174 A  
HETATM   13  I   UNL     1      -9.531  10.016  65.364  1.00  0.00    -0.370 I  
HETATM   14  O   UNL     1      -8.413   7.041  65.090  1.00  0.00    -0.111 OA 
HETATM   15  O   UNL     1      -6.918   6.980  66.780  1.00  0.00    -0.068 OA 
HETATM   16  C   UNL     1     -10.887   8.563  69.295  1.00  0.00    -0.056 A  
HETATM   17  I   UNL     1     -11.633   9.687  71.005  1.00  0.00    -0.490 I  
BRANCH  12  18
HETATM   18  N   UNL     1     -11.415  10.497  67.841  1.00  0.00    -0.431 N  
HETATM   19  C   UNL     1     -10.980  11.768  68.110  1.00  0.00    -0.228 C  
HETATM   20  H   UNL     1     -12.336  10.432  67.409  1.00  0.00     0.000 HD 
HETATM   21  O   UNL     1     -11.794  12.686  68.003  1.00  0.00    -0.338 OA 
HETATM   22  C   UNL     1      -9.575  12.045  68.575  1.00  0.00    -0.146 C  
ENDBRANCH  12  18
ENDBRANCH   3   6
TORSDOF 2
ENDMDL
MODEL      109
REMARK 921   NORMALIZED FREE ENERGY PREDICTED BY IDOCK:   -3.31 KCAL/MOL
REMARK 922        TOTAL FREE ENERGY PREDICTED BY IDOCK:   -4.13 KCAL/MOL
REMARK 923 INTER-LIGAND FREE ENERGY PREDICTED BY IDOCK:   -3.70 KCAL/MOL
REMARK 924 INTRA-LIGAND FREE ENERGY PREDICTED BY IDOCK:   -0.43 KCAL/MOL
REMARK 927      BINDING AFFINITY PREDICTED BY RF-SCORE:    0.00 PKD
ROOT
HETATM    1  C   UNL     1     -13.929   7.291  71.611  1.00  0.00    -0.363 C  
HETATM    2  N   UNL     1     -12.538   7.662  71.695  1.00  0.00    -0.329 N  
HETATM    3  C   UNL     1     -11.588   7.206  70.786  1.00  0.00    -0.318 C  
HETATM    4  H   UNL     1     -12.240   8.282  72.449  1.00  0.00     0.000 HD 
HETATM    5  O   UNL     1     -11.864   6.487  69.835  1.00  0.00    -0.381 OA 
ENDROOT
BRANCH   3   6
HETATM    6  C   UNL     1     -10.177   7.634  71.047  1.00  0.00    -0.200 A  
HETATM    7  C   UNL     1      -9.337   6.888  71.919  1.00  0.00    -0.141 A  
HETATM    8  I   UNL     1      -9.943   4.935  72.620  1.00  0.00    -0.239 I  
HETATM    9  C   UNL     1      -8.038   7.355  72.259  1.00  0.00    -0.113 A  
HETATM   10  C   UNL     1      -7.294   6.726  73.383  1.00  0.00    -0.079 C  
HETATM   11  C   UNL     1      -7.535   8.503  71.606  1.00  0.00    -0.105 A  
HETATM   12  C   UNL     1      -8.319   9.203  70.659  1.00  0.00    -0.205 A  
HETATM   13  I   UNL     1      -5.559   9.259  72.018  1.00  0.00     0.053 I  
HETATM   14  O   UNL     1      -6.058   6.290  73.071  1.00  0.00    -0.051 OA 
HETATM   15  O   UNL     1      -7.776   6.616  74.497  1.00  0.00    -0.108 OA 
HETATM   16  C   UNL     1      -9.661   8.818  70.475  1.00  0.00    -0.190 A  
HETATM   17  I   UNL     1     -11.016  10.333  69.690  1.00  0.00    -0.373 I  
BRANCH  12  18
HETATM   18  N   UNL     1      -7.763  10.352  70.051  1.00  0.00    -0.332 N  
HETATM   19  C   UNL     1      -7.201  10.488  68.810  1.00  0.00    -0.084 C  
HETATM   20  H   UNL     1      -7.783  11.199  70.618  1.00  0.00     0.000 HD 
HETATM   21  O   UNL     1      -6.600  11.534  68.565  1.00  0.00    -0.057 OA 
HETATM   22  C   UNL     1      -7.259   9.384  67.787  1.00  0.00    -0.083 C  
ENDBRANCH  12  18
ENDBRANCH   3   6
TORSDOF 2
ENDMDL
MODEL      110
REMARK 921   NORMALIZED FREE ENERGY PREDICTED BY IDOCK:   -3.29 KCAL/MOL
REMARK 922        TOTAL FREE ENERGY PREDICTED BY IDOCK:   -4.10 KCAL/MOL
REMARK 923 INTER-LIGAND FREE ENERGY PREDICTED BY IDOCK:   -4.09 KCAL/MOL
REMARK 924 INTRA-LIGAND FREE ENERGY PREDICTED BY IDOCK:   -0.02 KCAL/MOL
REMARK 927      BINDING AFFINITY PREDICTED BY RF-SCORE:    0.00 PKD
ROOT
HETATM    1  C   UNL     1      -5.872  14.386  71.309  1.00  0.00    -0.148 C  
HETATM    2  N   UNL     1      -6.839  14.041  70.297  1.00  0.00    -0.390 N  
HETATM    3  C   UNL     1      -6.624  13.017  69.379  1.00  0.00    -0.063 C  
HETATM    4  H   UNL     1      -7.711  14.567  70.252  1.00  0.00     0.000 HD 
HETATM    5  O   UNL     1      -5.621  12.316  69.382  1.00  0.00    -0.070 OA 
ENDROOT
BRANCH   3   6
HETATM    6  C   UNL     1      -7.699  12.823  68.354  1.00  0.00    -0.132 A  
HETATM    7  C   UNL     1      -8.328  11.559  68.186  1.00  0.00    -0.152 A  
HETATM    8  I   UNL     1      -8.012   9.977  69.624  1.00  0.00    -0.126 I  
HETATM    9  C   UNL     1      -9.264  11.342  67.138  1.00  0.00    -0.169 A  
HETATM   10  C   UNL     1      -9.689   9.958  66.797  1.00  0.00    -0.192 C  
HETATM   11  C   UNL     1      -9.668  12.443  66.349  1.00  0.00    -0.240 A  
HETATM   12  C   UNL     1      -9.127  13.731  66.566  1.00  0.00    -0.129 A  
HETATM   13  I   UNL     1     -11.117  12.224  64.768  1.00  0.00    -0.417 I  
HETATM   14  O   UNL     1     -11.022   9.760  66.791  1.00  0.00    -0.074 OA 
HETATM   15  O   UNL     1      -8.884   9.078  66.546  1.00  0.00    -0.127 OA 
HETATM   16  C   UNL     1      -8.076  13.877  67.493  1.00  0.00    -0.182 A  
HETATM   17  I   UNL     1      -6.763  15.593  67.224  1.00  0.00     0.199 I  
BRANCH  12  18
HETATM   18  N   UNL     1      -9.562  14.787  65.732  1.00  0.00    -0.477 N  
HETATM   19  C   UNL     1     -10.456  15.790  66.002  1.00  0.00    -0.338 C  
HETATM   20  H   UNL     1      -9.153  14.804  64.798  1.00  0.00     0.000 HD 
HETATM   21  O   UNL     1     -10.836  16.486  65.060  1.00  0.00    -0.622 OA 
HETATM   22  C   UNL     1     -11.005  16.013  67.386  1.00  0.00    -0.237 C  
ENDBRANCH  12  18
ENDBRANCH   3   6
TORSDOF 2
ENDMDL
MODEL      111
REMARK 921   NORMALIZED FREE ENERGY PREDICTED BY IDOCK:   -3.27 KCAL/MOL
REMARK 922        TOTAL FREE ENERGY PREDICTED BY IDOCK:   -4.08 KCAL/MOL
REMARK 923 INTER-LIGAND FREE ENERGY PREDICTED BY IDOCK:   -3.64 KCAL/MOL
REMARK 924 INTRA-LIGAND FREE ENERGY PREDICTED BY IDOCK:   -0.44 KCAL/MOL
REMARK 927      BINDING AFFINITY PREDICTED BY RF-SCORE:    0.00 PKD
ROOT
HETATM    1  C   UNL     1     -10.031   4.351  71.095  1.00  0.00    -0.173 C  
HETATM    2  N   UNL     1      -9.568   5.363  70.178  1.00  0.00    -0.166 N  
HETATM    3  C   UNL     1     -10.441   6.193  69.481  1.00  0.00    -0.254 C  
HETATM    4  H   UNL     1      -8.564   5.474  70.035  1.00  0.00     0.000 HD 
HETATM    5  O   UNL     1     -11.656   6.150  69.617  1.00  0.00    -0.407 OA 
ENDROOT
BRANCH   3   6
HETATM    6  C   UNL     1      -9.805   7.152  68.522  1.00  0.00    -0.155 A  
HETATM    7  C   UNL     1      -9.280   6.699  67.280  1.00  0.00    -0.125 A  
HETATM    8  I   UNL     1      -9.688   4.696  66.580  1.00  0.00    -0.268 I  
HETATM    9  C   UNL     1      -8.573   7.584  66.420  1.00  0.00    -0.145 A  
HETATM   10  C   UNL     1      -7.788   7.042  65.280  1.00  0.00    -0.121 C  
HETATM   11  C   UNL     1      -8.521   8.958  66.752  1.00  0.00    -0.115 A  
HETATM   12  C   UNL     1      -9.125   9.444  67.934  1.00  0.00    -0.129 A  
HETATM   13  I   UNL     1      -7.515  10.385  65.488  1.00  0.00    -0.014 I  
HETATM   14  O   UNL     1      -8.085   7.579  64.080  1.00  0.00    -0.131 OA 
HETATM   15  O   UNL     1      -6.944   6.176  65.430  1.00  0.00    -0.054 OA 
HETATM   16  C   UNL     1      -9.663   8.518  68.849  1.00  0.00    -0.170 A  
HETATM   17  I   UNL     1      -9.823   9.168  70.922  1.00  0.00    -0.313 I  
BRANCH  12  18
HETATM   18  N   UNL     1      -9.024  10.826  68.216  1.00  0.00    -0.137 N  
HETATM   19  C   UNL     1      -9.962  11.812  68.055  1.00  0.00    -0.188 C  
HETATM   20  H   UNL     1      -8.127  11.132  68.591  1.00  0.00     0.000 HD 
HETATM   21  O   UNL     1      -9.591  12.979  68.177  1.00  0.00    -0.218 OA 
HETATM   22  C   UNL     1     -11.388  11.498  67.687  1.00  0.00    -0.358 C  
ENDBRANCH  12  18
ENDBRANCH   3   6
TORSDOF 2
ENDMDL
MODEL      112
REMARK 921   NORMALIZED FREE ENERGY PREDICTED BY IDOCK:   -3.23 KCAL/MOL
REMARK 922        TOTAL FREE ENERGY PREDICTED BY IDOCK:   -4.04 KCAL/MOL
REMARK 923 INTER-LIGAND FREE ENERGY PREDICTED BY IDOCK:   -5.01 KCAL/MOL
REMARK 924 INTRA-LIGAND FREE ENERGY PREDICTED BY IDOCK:    0.97 KCAL/MOL
REMARK 927      BINDING AFFINITY PREDICTED BY RF-SCORE:    0.00 PKD
ROOT
HETATM    1  C   UNL     1     -12.580  14.121  71.832  1.00  0.00    -0.286 C  
HETATM    2  N   UNL     1     -11.865  13.257  70.926  1.00  0.00    -0.421 N  
HETATM    3  C   UNL     1     -12.313  11.979  70.605  1.00  0.00    -0.304 C  
HETATM    4  H   UNL     1     -10.999  13.595  70.506  1.00  0.00     0.000 HD 
HETATM    5  O   UNL     1     -13.355  11.507  71.038  1.00  0.00     0.029 OA 
ENDROOT
BRANCH   3   6
HETATM    6  C   UNL     1     -11.424  11.185  69.697  1.00  0.00    -0.383 A  
HETATM    7  C   UNL     1     -11.130  11.642  68.382  1.00  0.00    -0.234 A  
HETATM    8  I   UNL     1     -11.660  13.646  67.773  1.00  0.00    -0.409 I  
HETATM    9  C   UNL     1     -10.384  10.836  67.479  1.00  0.00    -0.244 A  
HETATM   10  C   UNL     1     -10.332  11.191  66.036  1.00  0.00    -0.254 C  
HETATM   11  C   UNL     1      -9.815   9.631  67.953  1.00  0.00    -0.154 A  
HETATM   12  C   UNL     1     -10.014   9.209  69.288  1.00  0.00    -0.187 A  
HETATM   13  I   UNL     1      -8.628   8.366  66.674  1.00  0.00    -0.165 I  
HETATM   14  O   UNL     1      -9.091  11.305  65.524  1.00  0.00    -0.209 OA 
HETATM   15  O   UNL     1     -11.343  11.365  65.377  1.00  0.00    -0.150 OA 
HETATM   16  C   UNL     1     -10.900   9.938  70.104  1.00  0.00    -0.304 A  
HETATM   17  I   UNL     1     -11.795   8.871  71.779  1.00  0.00    -0.452 I  
BRANCH  12  18
HETATM   18  N   UNL     1      -9.431   7.987  69.695  1.00  0.00    -0.163 N  
HETATM   19  C   UNL     1      -9.918   6.712  69.572  1.00  0.00    -0.163 C  
HETATM   20  H   UNL     1      -8.519   8.065  70.144  1.00  0.00     0.000 HD 
HETATM   21  O   UNL     1      -9.332   5.815  70.177  1.00  0.00    -0.150 OA 
HETATM   22  C   UNL     1     -11.158   6.411  68.772  1.00  0.00    -0.404 C  
ENDBRANCH  12  18
ENDBRANCH   3   6
TORSDOF 2
ENDMDL
MODEL      113
REMARK 921   NORMALIZED FREE ENERGY PREDICTED BY IDOCK:   -3.20 KCAL/MOL
REMARK 922        TOTAL FREE ENERGY PREDICTED BY IDOCK:   -4.01 KCAL/MOL
REMARK 923 INTER-LIGAND FREE ENERGY PREDICTED BY IDOCK:   -3.54 KCAL/MOL
REMARK 924 INTRA-LIGAND FREE ENERGY PREDICTED BY IDOCK:   -0.46 KCAL/MOL
REMARK 927      BINDING AFFINITY PREDICTED BY RF-SCORE:    0.00 PKD
ROOT
HETATM    1  C   UNL     1      -8.608   3.682  65.038  1.00  0.00    -0.109 C  
HETATM    2  N   UNL     1      -9.051   3.982  66.376  1.00  0.00    -0.129 N  
HETATM    3  C   UNL     1      -8.259   4.677  67.286  1.00  0.00    -0.105 C  
HETATM    4  H   UNL     1      -9.979   3.674  66.667  1.00  0.00     0.000 HD 
HETATM    5  O   UNL     1      -7.148   5.110  67.011  1.00  0.00    -0.067 OA 
ENDROOT
BRANCH   3   6
HETATM    6  C   UNL     1      -8.840   4.856  68.655  1.00  0.00    -0.116 A  
HETATM    7  C   UNL     1      -8.736   3.827  69.632  1.00  0.00    -0.078 A  
HETATM    8  I   UNL     1      -7.445   2.127  69.300  1.00  0.00    -0.047 I  
HETATM    9  C   UNL     1      -9.386   3.947  70.890  1.00  0.00    -0.222 A  
HETATM   10  C   UNL     1      -9.511   2.760  71.777  1.00  0.00    -0.136 C  
HETATM   11  C   UNL     1     -10.023   5.167  71.214  1.00  0.00    -0.192 A  
HETATM   12  C   UNL     1     -10.051   6.239  70.293  1.00  0.00    -0.184 A  
HETATM   13  I   UNL     1     -10.994   5.462  73.116  1.00  0.00    -0.311 I  
HETATM   14  O   UNL     1      -9.047   2.935  73.030  1.00  0.00    -0.085 OA 
HETATM   15  O   UNL     1      -9.996   1.711  71.389  1.00  0.00    -0.141 OA 
HETATM   16  C   UNL     1      -9.552   6.028  68.992  1.00  0.00    -0.131 A  
HETATM   17  I   UNL     1     -10.318   7.331  67.425  1.00  0.00    -0.389 I  
BRANCH  12  18
HETATM   18  N   UNL     1     -10.717   7.428  70.672  1.00  0.00    -0.225 N  
HETATM   19  C   UNL     1     -10.190   8.604  71.136  1.00  0.00    -0.230 C  
HETATM   20  H   UNL     1     -11.733   7.405  70.588  1.00  0.00     0.000 HD 
HETATM   21  O   UNL     1     -10.970   9.439  71.594  1.00  0.00    -0.369 OA 
HETATM   22  C   UNL     1      -8.706   8.861  71.142  1.00  0.00    -0.280 C  
ENDBRANCH  12  18
ENDBRANCH   3   6
TORSDOF 2
ENDMDL
MODEL      114
REMARK 921   NORMALIZED FREE ENERGY PREDICTED BY IDOCK:   -3.20 KCAL/MOL
REMARK 922        TOTAL FREE ENERGY PREDICTED BY IDOCK:   -4.00 KCAL/MOL
REMARK 923 INTER-LIGAND FREE ENERGY PREDICTED BY IDOCK:   -4.04 KCAL/MOL
REMARK 924 INTRA-LIGAND FREE ENERGY PREDICTED BY IDOCK:    0.05 KCAL/MOL
REMARK 927      BINDING AFFINITY PREDICTED BY RF-SCORE:    0.00 PKD
ROOT
HETATM    1  C   UNL     1      -5.900   8.540  65.607  1.00  0.00    -0.044 C  
HETATM    2  N   UNL     1      -6.954   8.856  66.540  1.00  0.00    -0.079 N  
HETATM    3  C   UNL     1      -8.153   8.150  66.577  1.00  0.00    -0.106 C  
HETATM    4  H   UNL     1      -6.815   9.625  67.195  1.00  0.00     0.000 HD 
HETATM    5  O   UNL     1      -8.389   7.195  65.849  1.00  0.00    -0.128 OA 
ENDROOT
BRANCH   3   6
HETATM    6  C   UNL     1      -9.169   8.640  67.562  1.00  0.00    -0.151 A  
HETATM    7  C   UNL     1      -9.827   9.887  67.371  1.00  0.00    -0.179 A  
HETATM    8  I   UNL     1      -9.649  10.946  65.496  1.00  0.00    -0.324 I  
HETATM    9  C   UNL     1     -10.704  10.408  68.362  1.00  0.00    -0.263 A  
HETATM   10  C   UNL     1     -11.152  11.824  68.285  1.00  0.00    -0.240 C  
HETATM   11  C   UNL     1     -11.025   9.603  69.479  1.00  0.00    -0.208 A  
HETATM   12  C   UNL     1     -10.457   8.317  69.635  1.00  0.00    -0.221 A  
HETATM   13  I   UNL     1     -12.382  10.286  71.008  1.00  0.00    -0.538 I  
HETATM   14  O   UNL     1     -12.487  12.000  68.319  1.00  0.00    -0.103 OA 
HETATM   15  O   UNL     1     -10.362  12.748  68.196  1.00  0.00    -0.225 OA 
HETATM   16  C   UNL     1      -9.460   7.902  68.730  1.00  0.00    -0.147 A  
HETATM   17  I   UNL     1      -8.079   6.370  69.428  1.00  0.00    -0.120 I  
BRANCH  12  18
HETATM   18  N   UNL     1     -10.807   7.568  70.782  1.00  0.00    -0.237 N  
HETATM   19  C   UNL     1     -10.228   7.565  72.023  1.00  0.00    -0.196 C  
HETATM   20  H   UNL     1     -11.604   6.941  70.669  1.00  0.00     0.000 HD 
HETATM   21  O   UNL     1     -10.571   6.685  72.813  1.00  0.00    -0.210 OA 
HETATM   22  C   UNL     1      -9.166   8.562  72.406  1.00  0.00    -0.328 C  
ENDBRANCH  12  18
ENDBRANCH   3   6
TORSDOF 2
ENDMDL
MODEL      115
REMARK 921   NORMALIZED FREE ENERGY PREDICTED BY IDOCK:   -3.19 KCAL/MOL
REMARK 922        TOTAL FREE ENERGY PREDICTED BY IDOCK:   -3.99 KCAL/MOL
REMARK 923 INTER-LIGAND FREE ENERGY PREDICTED BY IDOCK:   -3.51 KCAL/MOL
REMARK 924 INTRA-LIGAND FREE ENERGY PREDICTED BY IDOCK:   -0.48 KCAL/MOL
REMARK 927      BINDING AFFINITY PREDICTED BY RF-SCORE:    0.00 PKD
ROOT
HETATM    1  C   UNL     1      -6.912   1.753  68.033  1.00  0.00    -0.035 C  
HETATM    2  N   UNL     1      -7.440   3.095  68.052  1.00  0.00    -0.053 N  
HETATM    3  C   UNL     1      -8.806   3.359  68.015  1.00  0.00    -0.122 C  
HETATM    4  H   UNL     1      -6.789   3.879  68.095  1.00  0.00     0.000 HD 
HETATM    5  O   UNL     1      -9.657   2.479  67.995  1.00  0.00    -0.198 OA 
ENDROOT
BRANCH   3   6
HETATM    6  C   UNL     1      -9.191   4.806  67.980  1.00  0.00    -0.151 A  
HETATM    7  C   UNL     1      -9.699   5.454  69.140  1.00  0.00    -0.159 A  
HETATM    8  I   UNL     1      -9.607   4.482  71.068  1.00  0.00    -0.268 I  
HETATM    9  C   UNL     1     -10.173   6.793  69.080  1.00  0.00    -0.191 A  
HETATM   10  C   UNL     1     -10.959   7.354  70.210  1.00  0.00    -0.255 C  
HETATM   11  C   UNL     1     -10.001   7.522  67.880  1.00  0.00    -0.165 A  
HETATM   12  C   UNL     1      -9.406   6.925  66.745  1.00  0.00    -0.158 A  
HETATM   13  I   UNL     1     -10.643   9.573  67.707  1.00  0.00    -0.173 I  
HETATM   14  O   UNL     1     -10.486   8.512  70.711  1.00  0.00    -0.192 OA 
HETATM   15  O   UNL     1     -11.953   6.798  70.645  1.00  0.00    -0.386 OA 
HETATM   16  C   UNL     1      -9.108   5.549  66.781  1.00  0.00    -0.118 A  
HETATM   17  I   UNL     1      -8.983   4.522  64.865  1.00  0.00    -0.128 I  
BRANCH  12  18
HETATM   18  N   UNL     1      -9.277   7.704  65.572  1.00  0.00    -0.373 N  
HETATM   19  C   UNL     1      -8.171   8.339  65.073  1.00  0.00    -0.158 C  
HETATM   20  H   UNL     1     -10.128   7.807  65.020  1.00  0.00     0.000 HD 
HETATM   21  O   UNL     1      -8.336   9.127  64.141  1.00  0.00    -0.161 OA 
HETATM   22  C   UNL     1      -6.803   8.135  65.667  1.00  0.00    -0.066 C  
ENDBRANCH  12  18
ENDBRANCH   3   6
TORSDOF 2
ENDMDL
MODEL      116
REMARK 921   NORMALIZED FREE ENERGY PREDICTED BY IDOCK:   -3.15 KCAL/MOL
REMARK 922        TOTAL FREE ENERGY PREDICTED BY IDOCK:   -3.95 KCAL/MOL
REMARK 923 INTER-LIGAND FREE ENERGY PREDICTED BY IDOCK:   -3.66 KCAL/MOL
REMARK 924 INTRA-LIGAND FREE ENERGY PREDICTED BY IDOCK:   -0.29 KCAL/MOL
REMARK 927      BINDING AFFINITY PREDICTED BY RF-SCORE:    0.00 PKD
ROOT
HETATM    1  C   UNL     1     -12.631  12.175  70.900  1.00  0.00    -0.247 C  
HETATM    2  N   UNL     1     -11.723  11.055  70.897  1.00  0.00    -0.340 N  
HETATM    3  C   UNL     1     -11.519  10.264  69.770  1.00  0.00    -0.256 C  
HETATM    4  H   UNL     1     -11.213  10.834  71.752  1.00  0.00     0.000 HD 
HETATM    5  O   UNL     1     -12.065  10.476  68.697  1.00  0.00    -0.324 OA 
ENDROOT
BRANCH   3   6
HETATM    6  C   UNL     1     -10.590   9.102  69.948  1.00  0.00    -0.246 A  
HETATM    7  C   UNL     1     -10.933   8.018  70.803  1.00  0.00    -0.248 A  
HETATM    8  I   UNL     1     -12.935   7.838  71.597  1.00  0.00    -0.259 I  
HETATM    9  C   UNL     1     -10.006   6.973  71.064  1.00  0.00    -0.196 A  
HETATM   10  C   UNL     1     -10.261   6.012  72.171  1.00  0.00    -0.192 C  
HETATM   11  C   UNL     1      -8.787   6.950  70.349  1.00  0.00    -0.152 A  
HETATM   12  C   UNL     1      -8.471   7.966  69.418  1.00  0.00    -0.133 A  
HETATM   13  I   UNL     1      -7.338   5.380  70.639  1.00  0.00    -0.075 I  
HETATM   14  O   UNL     1     -10.228   4.714  71.814  1.00  0.00    -0.193 OA 
HETATM   15  O   UNL     1     -10.486   6.384  73.310  1.00  0.00    -0.220 OA 
HETATM   16  C   UNL     1      -9.329   9.078  69.312  1.00  0.00    -0.150 A  
HETATM   17  I   UNL     1      -8.458  10.920  68.544  1.00  0.00    -0.140 I  
BRANCH  12  18
HETATM   18  N   UNL     1      -7.229   7.894  68.746  1.00  0.00    -0.079 N  
HETATM   19  C   UNL     1      -6.940   7.362  67.517  1.00  0.00    -0.079 C  
HETATM   20  H   UNL     1      -6.436   8.294  69.248  1.00  0.00     0.000 HD 
HETATM   21  O   UNL     1      -5.754   7.228  67.216  1.00  0.00    -0.027 OA 
HETATM   22  C   UNL     1      -8.023   6.902  66.577  1.00  0.00    -0.109 C  
ENDBRANCH  12  18
ENDBRANCH   3   6
TORSDOF 2
ENDMDL
MODEL      117
REMARK 921   NORMALIZED FREE ENERGY PREDICTED BY IDOCK:   -3.14 KCAL/MOL
REMARK 922        TOTAL FREE ENERGY PREDICTED BY IDOCK:   -3.93 KCAL/MOL
REMARK 923 INTER-LIGAND FREE ENERGY PREDICTED BY IDOCK:   -3.65 KCAL/MOL
REMARK 924 INTRA-LIGAND FREE ENERGY PREDICTED BY IDOCK:   -0.28 KCAL/MOL
REMARK 927      BINDING AFFINITY PREDICTED BY RF-SCORE:    0.00 PKD
ROOT
HETATM    1  C   UNL     1      -5.158  12.844  68.569  1.00  0.00    -0.063 C  
HETATM    2  N   UNL     1      -6.316  13.283  67.831  1.00  0.00    -0.128 N  
HETATM    3  C   UNL     1      -7.360  13.984  68.428  1.00  0.00    -0.113 C  
HETATM    4  H   UNL     1      -6.372  13.072  66.835  1.00  0.00     0.000 HD 
HETATM    5  O   UNL     1      -7.359  14.305  69.609  1.00  0.00    -0.031 OA 
ENDROOT
BRANCH   3   6
HETATM    6  C   UNL     1      -8.518  14.315  67.538  1.00  0.00    -0.195 A  
HETATM    7  C   UNL     1      -8.814  15.663  67.198  1.00  0.00    -0.208 A  
HETATM    8  I   UNL     1      -7.415  17.244  67.660  1.00  0.00    -0.210 I  
HETATM    9  C   UNL     1      -9.979  15.989  66.450  1.00  0.00    -0.312 A  
HETATM   10  C   UNL     1     -10.428  17.403  66.352  1.00  0.00    -0.267 C  
HETATM   11  C   UNL     1     -10.766  14.938  65.925  1.00  0.00    -0.323 A  
HETATM   12  C   UNL     1     -10.430  13.586  66.168  1.00  0.00    -0.296 A  
HETATM   13  I   UNL     1     -12.522  15.330  64.738  1.00  0.00     0.785 I  
HETATM   14  O   UNL     1     -10.607  17.856  65.096  1.00  0.00    -0.573 OA 
HETATM   15  O   UNL     1     -10.613  18.092  67.340  1.00  0.00    -0.400 OA 
HETATM   16  C   UNL     1      -9.374  13.300  67.057  1.00  0.00    -0.242 A  
HETATM   17  I   UNL     1      -9.406  11.348  68.021  1.00  0.00    -0.189 I  
BRANCH  12  18
HETATM   18  N   UNL     1     -11.266  12.582  65.628  1.00  0.00    -0.305 N  
HETATM   19  C   UNL     1     -11.191  11.956  64.412  1.00  0.00    -0.336 C  
HETATM   20  H   UNL     1     -12.034  12.283  66.228  1.00  0.00     0.000 HD 
HETATM   21  O   UNL     1     -12.144  11.256  64.070  1.00  0.00     0.092 OA 
HETATM   22  C   UNL     1     -10.016  12.151  63.490  1.00  0.00    -0.341 C  
ENDBRANCH  12  18
ENDBRANCH   3   6
TORSDOF 2
ENDMDL
MODEL      118
REMARK 921   NORMALIZED FREE ENERGY PREDICTED BY IDOCK:   -3.12 KCAL/MOL
REMARK 922        TOTAL FREE ENERGY PREDICTED BY IDOCK:   -3.91 KCAL/MOL
REMARK 923 INTER-LIGAND FREE ENERGY PREDICTED BY IDOCK:   -3.49 KCAL/MOL
REMARK 924 INTRA-LIGAND FREE ENERGY PREDICTED BY IDOCK:   -0.42 KCAL/MOL
REMARK 927      BINDING AFFINITY PREDICTED BY RF-SCORE:    0.00 PKD
ROOT
HETATM    1  C   UNL     1      -7.618  11.150  68.909  1.00  0.00    -0.133 C  
HETATM    2  N   UNL     1      -7.936   9.865  69.480  1.00  0.00    -0.132 N  
HETATM    3  C   UNL     1      -8.705   8.920  68.806  1.00  0.00    -0.137 C  
HETATM    4  H   UNL     1      -7.586   9.641  70.411  1.00  0.00     0.000 HD 
HETATM    5  O   UNL     1      -9.138   9.094  67.675  1.00  0.00    -0.123 OA 
ENDROOT
BRANCH   3   6
HETATM    6  C   UNL     1      -8.997   7.658  69.560  1.00  0.00    -0.139 A  
HETATM    7  C   UNL     1      -9.926   7.650  70.636  1.00  0.00    -0.183 A  
HETATM    8  I   UNL     1     -11.201   9.357  70.997  1.00  0.00    -0.486 I  
HETATM    9  C   UNL     1     -10.118   6.484  71.427  1.00  0.00    -0.213 A  
HETATM   10  C   UNL     1     -10.863   6.572  72.710  1.00  0.00    -0.249 C  
HETATM   11  C   UNL     1      -9.475   5.286  71.039  1.00  0.00    -0.161 A  
HETATM   12  C   UNL     1      -8.624   5.250  69.910  1.00  0.00    -0.102 A  
HETATM   13  I   UNL     1      -9.742   3.455  72.145  1.00  0.00    -0.217 I  
HETATM   14  O   UNL     1     -11.892   5.710  72.829  1.00  0.00    -0.258 OA 
HETATM   15  O   UNL     1     -10.559   7.369  73.581  1.00  0.00    -0.370 OA 
HETATM   16  C   UNL     1      -8.317   6.458  69.254  1.00  0.00    -0.122 A  
HETATM   17  I   UNL     1      -6.463   6.512  68.114  1.00  0.00    -0.055 I  
BRANCH  12  18
HETATM   18  N   UNL     1      -7.999   4.024  69.584  1.00  0.00    -0.055 N  
HETATM   19  C   UNL     1      -8.331   3.115  68.615  1.00  0.00    -0.065 C  
HETATM   20  H   UNL     1      -7.187   3.783  70.151  1.00  0.00     0.000 HD 
HETATM   21  O   UNL     1      -7.769   2.020  68.641  1.00  0.00    -0.046 OA 
HETATM   22  C   UNL     1      -9.386   3.407  67.580  1.00  0.00    -0.246 C  
ENDBRANCH  12  18
ENDBRANCH   3   6
TORSDOF 2
ENDMDL
MODEL      119
REMARK 921   NORMALIZED FREE ENERGY PREDICTED BY IDOCK:   -3.09 KCAL/MOL
REMARK 922        TOTAL FREE ENERGY PREDICTED BY IDOCK:   -3.88 KCAL/MOL
REMARK 923 INTER-LIGAND FREE ENERGY PREDICTED BY IDOCK:   -3.58 KCAL/MOL
REMARK 924 INTRA-LIGAND FREE ENERGY PREDICTED BY IDOCK:   -0.30 KCAL/MOL
REMARK 927      BINDING AFFINITY PREDICTED BY RF-SCORE:    0.00 PKD
ROOT
HETATM    1  C   UNL     1      -6.655   2.576  68.730  1.00  0.00    -0.029 C  
HETATM    2  N   UNL     1      -7.252   3.878  68.895  1.00  0.00    -0.053 N  
HETATM    3  C   UNL     1      -8.630   4.065  68.960  1.00  0.00    -0.083 C  
HETATM    4  H   UNL     1      -6.641   4.692  68.966  1.00  0.00     0.000 HD 
HETATM    5  O   UNL     1      -9.432   3.142  68.915  1.00  0.00    -0.168 OA 
ENDROOT
BRANCH   3   6
HETATM    6  C   UNL     1      -9.092   5.485  69.072  1.00  0.00    -0.131 A  
HETATM    7  C   UNL     1      -9.180   6.126  70.339  1.00  0.00    -0.153 A  
HETATM    8  I   UNL     1      -8.326   5.203  72.096  1.00  0.00    -0.128 I  
HETATM    9  C   UNL     1      -9.727   7.432  70.460  1.00  0.00    -0.175 A  
HETATM   10  C   UNL     1     -10.079   7.969  71.801  1.00  0.00    -0.191 C  
HETATM   11  C   UNL     1     -10.054   8.145  69.283  1.00  0.00    -0.202 A  
HETATM   12  C   UNL     1      -9.879   7.561  68.007  1.00  0.00    -0.151 A  
HETATM   13  I   UNL     1     -10.844  10.149  69.361  1.00  0.00    -0.318 I  
HETATM   14  O   UNL     1      -9.530   9.164  72.096  1.00  0.00    -0.291 OA 
HETATM   15  O   UNL     1     -10.807   7.364  72.569  1.00  0.00    -0.241 OA 
HETATM   16  C   UNL     1      -9.501   6.206  67.928  1.00  0.00    -0.115 A  
HETATM   17  I   UNL     1     -10.021   5.147  66.098  1.00  0.00    -0.177 I  
BRANCH  12  18
HETATM   18  N   UNL     1     -10.239   8.320  66.870  1.00  0.00    -0.296 N  
HETATM   19  C   UNL     1      -9.446   9.082  66.052  1.00  0.00    -0.256 C  
HETATM   20  H   UNL     1     -11.228   8.298  66.624  1.00  0.00     0.000 HD 
HETATM   21  O   UNL     1     -10.004   9.818  65.239  1.00  0.00    -0.318 OA 
HETATM   22  C   UNL     1      -7.945   9.072  66.169  1.00  0.00    -0.103 C  
ENDBRANCH  12  18
ENDBRANCH   3   6
TORSDOF 2
ENDMDL
MODEL      120
REMARK 921   NORMALIZED FREE ENERGY PREDICTED BY IDOCK:   -3.06 KCAL/MOL
REMARK 922        TOTAL FREE ENERGY PREDICTED BY IDOCK:   -3.85 KCAL/MOL
REMARK 923 INTER-LIGAND FREE ENERGY PREDICTED BY IDOCK:   -3.37 KCAL/MOL
REMARK 924 INTRA-LIGAND FREE ENERGY PREDICTED BY IDOCK:   -0.48 KCAL/MOL
REMARK 927      BINDING AFFINITY PREDICTED BY RF-SCORE:    0.00 PKD
ROOT
HETATM    1  C   UNL     1      -9.248   7.984  66.252  1.00  0.00    -0.184 C  
HETATM    2  N   UNL     1      -8.944   7.410  67.539  1.00  0.00    -0.126 N  
HETATM    3  C   UNL     1      -9.897   6.739  68.300  1.00  0.00    -0.142 C  
HETATM    4  H   UNL     1      -7.996   7.499  67.905  1.00  0.00     0.000 HD 
HETATM    5  O   UNL     1     -11.047   6.560  67.924  1.00  0.00    -0.303 OA 
ENDROOT
BRANCH   3   6
HETATM    6  C   UNL     1      -9.438   6.255  69.641  1.00  0.00    -0.157 A  
HETATM    7  C   UNL     1      -9.137   4.882  69.857  1.00  0.00    -0.117 A  
HETATM    8  I   UNL     1      -8.992   3.516  68.189  1.00  0.00    -0.234 I  
HETATM    9  C   UNL     1      -8.814   4.400  71.155  1.00  0.00    -0.153 A  
HETATM   10  C   UNL     1      -8.787   2.937  71.419  1.00  0.00    -0.081 C  
HETATM   11  C   UNL     1      -8.657   5.331  72.207  1.00  0.00    -0.126 A  
HETATM   12  C   UNL     1      -8.855   6.715  71.989  1.00  0.00    -0.135 A  
HETATM   13  I   UNL     1      -8.121   4.703  74.198  1.00  0.00    -0.099 I  
HETATM   14  O   UNL     1      -7.643   2.479  71.962  1.00  0.00    -0.043 OA 
HETATM   15  O   UNL     1      -9.734   2.215  71.156  1.00  0.00    -0.146 OA 
HETATM   16  C   UNL     1      -9.344   7.140  70.738  1.00  0.00    -0.160 A  
HETATM   17  I   UNL     1     -10.381   9.054  70.690  1.00  0.00    -0.372 I  
BRANCH  12  18
HETATM   18  N   UNL     1      -8.698   7.592  73.086  1.00  0.00    -0.153 N  
HETATM   19  C   UNL     1      -7.599   8.319  73.462  1.00  0.00    -0.128 C  
HETATM   20  H   UNL     1      -9.518   7.699  73.682  1.00  0.00     0.000 HD 
HETATM   21  O   UNL     1      -7.622   8.863  74.566  1.00  0.00    -0.420 OA 
HETATM   22  C   UNL     1      -6.374   8.415  72.590  1.00  0.00    -0.087 C  
ENDBRANCH  12  18
ENDBRANCH   3   6
TORSDOF 2
ENDMDL
MODEL      121
REMARK 921   NORMALIZED FREE ENERGY PREDICTED BY IDOCK:   -3.06 KCAL/MOL
REMARK 922        TOTAL FREE ENERGY PREDICTED BY IDOCK:   -3.85 KCAL/MOL
REMARK 923 INTER-LIGAND FREE ENERGY PREDICTED BY IDOCK:   -4.29 KCAL/MOL
REMARK 924 INTRA-LIGAND FREE ENERGY PREDICTED BY IDOCK:    0.45 KCAL/MOL
REMARK 927      BINDING AFFINITY PREDICTED BY RF-SCORE:    0.00 PKD
ROOT
HETATM    1  C   UNL     1     -10.362  18.426  68.578  1.00  0.00    -0.294 C  
HETATM    2  N   UNL     1     -10.292  17.019  68.270  1.00  0.00    -0.326 N  
HETATM    3  C   UNL     1     -11.392  16.174  68.390  1.00  0.00    -0.345 C  
HETATM    4  H   UNL     1      -9.405  16.629  67.952  1.00  0.00     0.000 HD 
HETATM    5  O   UNL     1     -12.499  16.563  68.733  1.00  0.00     0.566 OA 
ENDROOT
BRANCH   3   6
HETATM    6  C   UNL     1     -11.140  14.728  68.090  1.00  0.00    -0.288 A  
HETATM    7  C   UNL     1     -10.976  14.279  66.750  1.00  0.00    -0.304 A  
HETATM    8  I   UNL     1     -10.736  15.699  65.139  1.00  0.00    -0.217 I  
HETATM    9  C   UNL     1     -10.854  12.894  66.454  1.00  0.00    -0.293 A  
HETATM   10  C   UNL     1     -10.974  12.421  65.049  1.00  0.00    -0.298 C  
HETATM   11  C   UNL     1     -10.754  11.976  67.524  1.00  0.00    -0.226 A  
HETATM   12  C   UNL     1     -10.814  12.415  68.867  1.00  0.00    -0.197 A  
HETATM   13  I   UNL     1     -10.517   9.861  67.177  1.00  0.00    -0.221 I  
HETATM   14  O   UNL     1      -9.945  11.670  64.612  1.00  0.00    -0.244 OA 
HETATM   15  O   UNL     1     -11.936  12.701  64.353  1.00  0.00    -0.355 OA 
HETATM   16  C   UNL     1     -11.112  13.767  69.125  1.00  0.00    -0.240 A  
HETATM   17  I   UNL     1     -11.981  14.228  71.067  1.00  0.00    -0.105 I  
BRANCH  12  18
HETATM   18  N   UNL     1     -10.724  11.444  69.891  1.00  0.00    -0.407 N  
HETATM   19  C   UNL     1     -11.723  10.727  70.494  1.00  0.00    -0.351 C  
HETATM   20  H   UNL     1      -9.781  11.252  70.230  1.00  0.00     0.000 HD 
HETATM   21  O   UNL     1     -11.436  10.082  71.502  1.00  0.00    -0.332 OA 
HETATM   22  C   UNL     1     -13.141  10.759  69.986  1.00  0.00     0.186 C  
ENDBRANCH  12  18
ENDBRANCH   3   6
TORSDOF 2
ENDMDL
MODEL      122
REMARK 921   NORMALIZED FREE ENERGY PREDICTED BY IDOCK:   -3.06 KCAL/MOL
REMARK 922        TOTAL FREE ENERGY PREDICTED BY IDOCK:   -3.85 KCAL/MOL
REMARK 923 INTER-LIGAND FREE ENERGY PREDICTED BY IDOCK:   -3.38 KCAL/MOL
REMARK 924 INTRA-LIGAND FREE ENERGY PREDICTED BY IDOCK:   -0.46 KCAL/MOL
REMARK 927      BINDING AFFINITY PREDICTED BY RF-SCORE:    0.00 PKD
ROOT
HETATM    1  C   UNL     1      -8.073  15.976  66.792  1.00  0.00    -0.267 C  
HETATM    2  N   UNL     1      -8.482  14.746  67.424  1.00  0.00    -0.188 N  
HETATM    3  C   UNL     1      -9.125  13.728  66.726  1.00  0.00    -0.221 C  
HETATM    4  H   UNL     1      -8.294  14.618  68.418  1.00  0.00     0.000 HD 
HETATM    5  O   UNL     1      -9.362  13.785  65.527  1.00  0.00     0.076 OA 
ENDROOT
BRANCH   3   6
HETATM    6  C   UNL     1      -9.539  12.540  67.539  1.00  0.00    -0.187 A  
HETATM    7  C   UNL     1     -10.710  12.580  68.345  1.00  0.00    -0.240 A  
HETATM    8  I   UNL     1     -12.114  14.213  68.160  1.00  0.00     0.132 I  
HETATM    9  C   UNL     1     -11.041  11.498  69.206  1.00  0.00    -0.305 A  
HETATM   10  C   UNL     1     -12.091  11.670  70.245  1.00  0.00    -0.358 C  
HETATM   11  C   UNL     1     -10.266  10.318  69.145  1.00  0.00    -0.218 A  
HETATM   12  C   UNL     1      -9.155  10.222  68.274  1.00  0.00    -0.139 A  
HETATM   13  I   UNL     1     -10.718   8.607  70.375  1.00  0.00    -0.271 I  
HETATM   14  O   UNL     1     -13.075  10.750  70.216  1.00  0.00    -0.196 OA 
HETATM   15  O   UNL     1     -12.056  12.581  71.055  1.00  0.00    -0.219 OA 
HETATM   16  C   UNL     1      -8.749  11.370  67.565  1.00  0.00    -0.140 A  
HETATM   17  I   UNL     1      -6.670  11.439  66.920  1.00  0.00    -0.072 I  
BRANCH  12  18
HETATM   18  N   UNL     1      -8.411   9.020  68.271  1.00  0.00    -0.128 N  
HETATM   19  C   UNL     1      -8.509   7.944  67.428  1.00  0.00    -0.122 C  
HETATM   20  H   UNL     1      -7.702   8.942  69.000  1.00  0.00     0.000 HD 
HETATM   21  O   UNL     1      -7.897   6.920  67.734  1.00  0.00    -0.109 OA 
HETATM   22  C   UNL     1      -9.373   7.978  66.196  1.00  0.00    -0.212 C  
ENDBRANCH  12  18
ENDBRANCH   3   6
TORSDOF 2
ENDMDL
MODEL      123
REMARK 921   NORMALIZED FREE ENERGY PREDICTED BY IDOCK:   -2.99 KCAL/MOL
REMARK 922        TOTAL FREE ENERGY PREDICTED BY IDOCK:   -3.76 KCAL/MOL
REMARK 923 INTER-LIGAND FREE ENERGY PREDICTED BY IDOCK:   -3.30 KCAL/MOL
REMARK 924 INTRA-LIGAND FREE ENERGY PREDICTED BY IDOCK:   -0.46 KCAL/MOL
REMARK 927      BINDING AFFINITY PREDICTED BY RF-SCORE:    0.00 PKD
ROOT
HETATM    1  C   UNL     1     -12.837   9.354  71.878  1.00  0.00    -0.412 C  
HETATM    2  N   UNL     1     -11.584   8.708  71.573  1.00  0.00    -0.282 N  
HETATM    3  C   UNL     1     -11.519   7.476  70.928  1.00  0.00    -0.281 C  
HETATM    4  H   UNL     1     -10.715   9.170  71.841  1.00  0.00     0.000 HD 
HETATM    5  O   UNL     1     -12.509   6.869  70.545  1.00  0.00    -0.270 OA 
ENDROOT
BRANCH   3   6
HETATM    6  C   UNL     1     -10.144   6.911  70.738  1.00  0.00    -0.208 A  
HETATM    7  C   UNL     1      -9.426   7.129  69.530  1.00  0.00    -0.151 A  
HETATM    8  I   UNL     1     -10.136   8.560  68.075  1.00  0.00    -0.263 I  
HETATM    9  C   UNL     1      -8.173   6.498  69.302  1.00  0.00    -0.123 A  
HETATM   10  C   UNL     1      -7.578   6.499  67.939  1.00  0.00    -0.103 C  
HETATM   11  C   UNL     1      -7.580   5.761  70.353  1.00  0.00    -0.090 A  
HETATM   12  C   UNL     1      -8.235   5.617  71.599  1.00  0.00    -0.119 A  
HETATM   13  I   UNL     1      -5.660   4.809  70.121  1.00  0.00    -0.018 I  
HETATM   14  O   UNL     1      -6.318   6.972  67.870  1.00  0.00    -0.039 OA 
HETATM   15  O   UNL     1      -8.194   6.102  66.965  1.00  0.00    -0.106 OA 
HETATM   16  C   UNL     1      -9.549   6.105  71.734  1.00  0.00    -0.150 A  
HETATM   17  I   UNL     1     -10.781   5.191  73.280  1.00  0.00    -0.398 I  
BRANCH  12  18
HETATM   18  N   UNL     1      -7.596   4.856  72.604  1.00  0.00    -0.090 N  
HETATM   19  C   UNL     1      -6.886   5.285  73.695  1.00  0.00    -0.080 C  
HETATM   20  H   UNL     1      -7.674   3.844  72.503  1.00  0.00     0.000 HD 
HETATM   21  O   UNL     1      -6.247   4.444  74.328  1.00  0.00    -0.038 OA 
HETATM   22  C   UNL     1      -6.834   6.738  74.086  1.00  0.00    -0.079 C  
ENDBRANCH  12  18
ENDBRANCH   3   6
TORSDOF 2
ENDMDL
MODEL      124
REMARK 921   NORMALIZED FREE ENERGY PREDICTED BY IDOCK:   -2.98 KCAL/MOL
REMARK 922        TOTAL FREE ENERGY PREDICTED BY IDOCK:   -3.76 KCAL/MOL
REMARK 923 INTER-LIGAND FREE ENERGY PREDICTED BY IDOCK:   -3.70 KCAL/MOL
REMARK 924 INTRA-LIGAND FREE ENERGY PREDICTED BY IDOCK:   -0.05 KCAL/MOL
REMARK 927      BINDING AFFINITY PREDICTED BY RF-SCORE:    0.00 PKD
ROOT
HETATM    1  C   UNL     1     -13.068   9.144  71.750  1.00  0.00    -0.392 C  
HETATM    2  N   UNL     1     -12.118   8.677  70.771  1.00  0.00    -0.478 N  
HETATM    3  C   UNL     1     -10.748   8.892  70.900  1.00  0.00    -0.231 C  
HETATM    4  H   UNL     1     -12.462   8.171  69.955  1.00  0.00     0.000 HD 
HETATM    5  O   UNL     1     -10.249   9.462  71.861  1.00  0.00    -0.155 OA 
ENDROOT
BRANCH   3   6
HETATM    6  C   UNL     1      -9.901   8.398  69.768  1.00  0.00    -0.187 A  
HETATM    7  C   UNL     1      -9.770   9.154  68.571  1.00  0.00    -0.155 A  
HETATM    8  I   UNL     1     -10.495  11.187  68.472  1.00  0.00    -0.278 I  
HETATM    9  C   UNL     1      -9.062   8.634  67.453  1.00  0.00    -0.148 A  
HETATM   10  C   UNL     1      -9.178   9.297  66.127  1.00  0.00    -0.196 C  
HETATM   11  C   UNL     1      -8.367   7.411  67.596  1.00  0.00    -0.118 A  
HETATM   12  C   UNL     1      -8.403   6.693  68.813  1.00  0.00    -0.120 A  
HETATM   13  I   UNL     1      -7.226   6.566  65.974  1.00  0.00    -0.075 I  
HETATM   14  O   UNL     1      -8.004   9.631  65.555  1.00  0.00    -0.109 OA 
HETATM   15  O   UNL     1     -10.258   9.520  65.607  1.00  0.00    -0.228 OA 
HETATM   16  C   UNL     1      -9.254   7.145  69.842  1.00  0.00    -0.141 A  
HETATM   17  I   UNL     1      -9.902   5.663  71.300  1.00  0.00    -0.255 I  
BRANCH  12  18
HETATM   18  N   UNL     1      -7.699   5.469  68.887  1.00  0.00    -0.090 N  
HETATM   19  C   UNL     1      -8.119   4.208  68.554  1.00  0.00    -0.076 C  
HETATM   20  H   UNL     1      -6.744   5.534  69.239  1.00  0.00     0.000 HD 
HETATM   21  O   UNL     1      -7.407   3.261  68.889  1.00  0.00    -0.049 OA 
HETATM   22  C   UNL     1      -9.430   3.968  67.852  1.00  0.00    -0.225 C  
ENDBRANCH  12  18
ENDBRANCH   3   6
TORSDOF 2
ENDMDL
MODEL      125
REMARK 921   NORMALIZED FREE ENERGY PREDICTED BY IDOCK:   -2.97 KCAL/MOL
REMARK 922        TOTAL FREE ENERGY PREDICTED BY IDOCK:   -3.74 KCAL/MOL
REMARK 923 INTER-LIGAND FREE ENERGY PREDICTED BY IDOCK:   -3.25 KCAL/MOL
REMARK 924 INTRA-LIGAND FREE ENERGY PREDICTED BY IDOCK:   -0.49 KCAL/MOL
REMARK 927      BINDING AFFINITY PREDICTED BY RF-SCORE:    0.00 PKD
ROOT
HETATM    1  C   UNL     1      -6.135  17.604  69.504  1.00  0.00    -0.250 C  
HETATM    2  N   UNL     1      -6.882  16.393  69.267  1.00  0.00    -0.210 N  
HETATM    3  C   UNL     1      -6.618  15.553  68.189  1.00  0.00    -0.130 C  
HETATM    4  H   UNL     1      -7.632  16.145  69.912  1.00  0.00     0.000 HD 
HETATM    5  O   UNL     1      -5.718  15.758  67.386  1.00  0.00    -0.274 OA 
ENDROOT
BRANCH   3   6
HETATM    6  C   UNL     1      -7.523  14.367  68.049  1.00  0.00    -0.144 A  
HETATM    7  C   UNL     1      -7.135  13.091  68.541  1.00  0.00    -0.105 A  
HETATM    8  I   UNL     1      -5.396  12.886  69.808  1.00  0.00    -0.115 I  
HETATM    9  C   UNL     1      -7.939  11.942  68.306  1.00  0.00    -0.148 A  
HETATM   10  C   UNL     1      -7.390  10.585  68.566  1.00  0.00    -0.088 C  
HETATM   11  C   UNL     1      -9.204  12.110  67.697  1.00  0.00    -0.181 A  
HETATM   12  C   UNL     1      -9.652  13.389  67.291  1.00  0.00    -0.234 A  
HETATM   13  I   UNL     1     -10.516  10.437  67.344  1.00  0.00    -0.332 I  
HETATM   14  O   UNL     1      -8.140   9.815  69.379  1.00  0.00    -0.104 OA 
HETATM   15  O   UNL     1      -6.338  10.209  68.078  1.00  0.00    -0.056 OA 
HETATM   16  C   UNL     1      -8.761  14.477  67.378  1.00  0.00    -0.199 A  
HETATM   17  I   UNL     1      -9.141  16.163  66.052  1.00  0.00    -0.001 I  
BRANCH  12  18
HETATM   18  N   UNL     1     -10.920  13.487  66.675  1.00  0.00    -0.286 N  
HETATM   19  C   UNL     1     -12.125  13.834  67.227  1.00  0.00    -0.357 C  
HETATM   20  H   UNL     1     -10.941  13.269  65.680  1.00  0.00     0.000 HD 
HETATM   21  O   UNL     1     -13.137  13.660  66.548  1.00  0.00     0.150 OA 
HETATM   22  C   UNL     1     -12.232  14.361  68.634  1.00  0.00    -0.185 C  
ENDBRANCH  12  18
ENDBRANCH   3   6
TORSDOF 2
ENDMDL
MODEL      126
REMARK 921   NORMALIZED FREE ENERGY PREDICTED BY IDOCK:   -2.97 KCAL/MOL
REMARK 922        TOTAL FREE ENERGY PREDICTED BY IDOCK:   -3.74 KCAL/MOL
REMARK 923 INTER-LIGAND FREE ENERGY PREDICTED BY IDOCK:   -3.24 KCAL/MOL
REMARK 924 INTRA-LIGAND FREE ENERGY PREDICTED BY IDOCK:   -0.50 KCAL/MOL
REMARK 927      BINDING AFFINITY PREDICTED BY RF-SCORE:    0.00 PKD
ROOT
HETATM    1  C   UNL     1     -10.541  10.909  65.760  1.00  0.00    -0.163 C  
HETATM    2  N   UNL     1     -10.379   9.846  66.720  1.00  0.00    -0.229 N  
HETATM    3  C   UNL     1      -9.549   9.964  67.832  1.00  0.00    -0.138 C  
HETATM    4  H   UNL     1     -10.891   8.975  66.579  1.00  0.00     0.000 HD 
HETATM    5  O   UNL     1      -8.924  10.983  68.093  1.00  0.00    -0.140 OA 
ENDROOT
BRANCH   3   6
HETATM    6  C   UNL     1      -9.444   8.748  68.700  1.00  0.00    -0.143 A  
HETATM    7  C   UNL     1     -10.183   8.650  69.911  1.00  0.00    -0.203 A  
HETATM    8  I   UNL     1     -11.738  10.080  70.366  1.00  0.00    -0.322 I  
HETATM    9  C   UNL     1      -9.996   7.551  70.793  1.00  0.00    -0.182 A  
HETATM   10  C   UNL     1     -10.549   7.604  72.173  1.00  0.00    -0.232 C  
HETATM   11  C   UNL     1      -9.167   6.482  70.382  1.00  0.00    -0.155 A  
HETATM   12  C   UNL     1      -8.502   6.515  69.135  1.00  0.00    -0.126 A  
HETATM   13  I   UNL     1      -8.861   4.750  71.629  1.00  0.00    -0.171 I  
HETATM   14  O   UNL     1     -11.334   6.562  72.510  1.00  0.00    -0.264 OA 
HETATM   15  O   UNL     1     -10.306   8.526  72.932  1.00  0.00    -0.179 OA 
HETATM   16  C   UNL     1      -8.567   7.692  68.364  1.00  0.00    -0.124 A  
HETATM   17  I   UNL     1      -6.955   8.022  66.938  1.00  0.00    -0.076 I  
BRANCH  12  18
HETATM   18  N   UNL     1      -7.676   5.421  68.790  1.00  0.00    -0.083 N  
HETATM   19  C   UNL     1      -7.969   4.324  68.024  1.00  0.00    -0.086 C  
HETATM   20  H   UNL     1      -6.728   5.453  69.164  1.00  0.00     0.000 HD 
HETATM   21  O   UNL     1      -7.159   3.396  68.020  1.00  0.00    -0.050 OA 
HETATM   22  C   UNL     1      -9.257   4.217  67.251  1.00  0.00    -0.178 C  
ENDBRANCH  12  18
ENDBRANCH   3   6
TORSDOF 2
ENDMDL
MODEL      127
REMARK 921   NORMALIZED FREE ENERGY PREDICTED BY IDOCK:   -2.96 KCAL/MOL
REMARK 922        TOTAL FREE ENERGY PREDICTED BY IDOCK:   -3.74 KCAL/MOL
REMARK 923 INTER-LIGAND FREE ENERGY PREDICTED BY IDOCK:   -3.70 KCAL/MOL
REMARK 924 INTRA-LIGAND FREE ENERGY PREDICTED BY IDOCK:   -0.04 KCAL/MOL
REMARK 927      BINDING AFFINITY PREDICTED BY RF-SCORE:    0.00 PKD
ROOT
HETATM    1  C   UNL     1      -8.307   9.376  66.227  1.00  0.00    -0.115 C  
HETATM    2  N   UNL     1      -8.563   8.580  67.401  1.00  0.00    -0.126 N  
HETATM    3  C   UNL     1      -9.809   8.017  67.663  1.00  0.00    -0.167 C  
HETATM    4  H   UNL     1      -7.803   8.423  68.064  1.00  0.00     0.000 HD 
HETATM    5  O   UNL     1     -10.765   8.128  66.908  1.00  0.00    -0.309 OA 
ENDROOT
BRANCH   3   6
HETATM    6  C   UNL     1      -9.928   7.268  68.955  1.00  0.00    -0.177 A  
HETATM    7  C   UNL     1     -10.163   7.955  70.178  1.00  0.00    -0.202 A  
HETATM    8  I   UNL     1     -10.700  10.048  70.174  1.00  0.00    -0.310 I  
HETATM    9  C   UNL     1     -10.160   7.261  71.418  1.00  0.00    -0.196 A  
HETATM   10  C   UNL     1     -10.116   8.021  72.695  1.00  0.00    -0.301 C  
HETATM   11  C   UNL     1     -10.062   5.850  71.408  1.00  0.00    -0.197 A  
HETATM   12  C   UNL     1      -9.929   5.139  70.193  1.00  0.00    -0.253 A  
HETATM   13  I   UNL     1     -10.098   4.704  73.233  1.00  0.00    -0.270 I  
HETATM   14  O   UNL     1     -11.093   7.716  73.572  1.00  0.00    -0.315 OA 
HETATM   15  O   UNL     1      -9.257   8.857  72.921  1.00  0.00    -0.200 OA 
HETATM   16  C   UNL     1      -9.758   5.866  68.998  1.00  0.00    -0.136 A  
HETATM   17  I   UNL     1      -8.772   4.834  67.354  1.00  0.00    -0.117 I  
BRANCH  12  18
HETATM   18  N   UNL     1      -9.820   3.731  70.252  1.00  0.00    -0.145 N  
HETATM   19  C   UNL     1      -8.698   2.953  70.360  1.00  0.00    -0.070 C  
HETATM   20  H   UNL     1     -10.703   3.222  70.206  1.00  0.00     0.000 HD 
HETATM   21  O   UNL     1      -8.823   1.741  70.192  1.00  0.00    -0.052 OA 
HETATM   22  C   UNL     1      -7.340   3.552  70.621  1.00  0.00    -0.040 C  
ENDBRANCH  12  18
ENDBRANCH   3   6
TORSDOF 2
ENDMDL
MODEL      128
REMARK 921   NORMALIZED FREE ENERGY PREDICTED BY IDOCK:   -2.96 KCAL/MOL
REMARK 922        TOTAL FREE ENERGY PREDICTED BY IDOCK:   -3.73 KCAL/MOL
REMARK 923 INTER-LIGAND FREE ENERGY PREDICTED BY IDOCK:   -3.85 KCAL/MOL
REMARK 924 INTRA-LIGAND FREE ENERGY PREDICTED BY IDOCK:    0.11 KCAL/MOL
REMARK 927      BINDING AFFINITY PREDICTED BY RF-SCORE:    0.00 PKD
ROOT
HETATM    1  C   UNL     1     -12.064  12.841  70.395  1.00  0.00    -0.302 C  
HETATM    2  N   UNL     1     -11.010  12.116  69.729  1.00  0.00    -0.449 N  
HETATM    3  C   UNL     1     -11.254  11.270  68.650  1.00  0.00    -0.250 C  
HETATM    4  H   UNL     1     -10.052  12.226  70.060  1.00  0.00     0.000 HD 
HETATM    5  O   UNL     1     -12.367  11.104  68.169  1.00  0.00    -0.469 OA 
ENDROOT
BRANCH   3   6
HETATM    6  C   UNL     1     -10.062  10.543  68.108  1.00  0.00    -0.180 A  
HETATM    7  C   UNL     1      -9.573  10.816  66.800  1.00  0.00    -0.172 A  
HETATM    8  I   UNL     1     -10.305  12.519  65.690  1.00  0.00    -0.304 I  
HETATM    9  C   UNL     1      -8.517  10.048  66.240  1.00  0.00    -0.134 A  
HETATM   10  C   UNL     1      -8.214  10.148  64.788  1.00  0.00    -0.161 C  
HETATM   11  C   UNL     1      -7.860   9.098  67.056  1.00  0.00    -0.102 A  
HETATM   12  C   UNL     1      -8.267   8.882  68.393  1.00  0.00    -0.117 A  
HETATM   13  I   UNL     1      -6.216   7.919  66.313  1.00  0.00    -0.047 I  
HETATM   14  O   UNL     1      -6.932  10.439  64.493  1.00  0.00    -0.104 OA 
HETATM   15  O   UNL     1      -9.071   9.980  63.936  1.00  0.00    -0.224 OA 
HETATM   16  C   UNL     1      -9.426   9.531  68.861  1.00  0.00    -0.155 A  
HETATM   17  I   UNL     1     -10.461   8.604  70.538  1.00  0.00    -0.293 I  
BRANCH  12  18
HETATM   18  N   UNL     1      -7.579   7.907  69.151  1.00  0.00    -0.096 N  
HETATM   19  C   UNL     1      -7.793   6.555  69.219  1.00  0.00    -0.110 C  
HETATM   20  H   UNL     1      -6.817   8.260  69.729  1.00  0.00     0.000 HD 
HETATM   21  O   UNL     1      -7.203   5.927  70.099  1.00  0.00    -0.068 OA 
HETATM   22  C   UNL     1      -8.753   5.856  68.294  1.00  0.00    -0.112 C  
ENDBRANCH  12  18
ENDBRANCH   3   6
TORSDOF 2
ENDMDL
MODEL      129
REMARK 921   NORMALIZED FREE ENERGY PREDICTED BY IDOCK:   -2.95 KCAL/MOL
REMARK 922        TOTAL FREE ENERGY PREDICTED BY IDOCK:   -3.73 KCAL/MOL
REMARK 923 INTER-LIGAND FREE ENERGY PREDICTED BY IDOCK:   -3.48 KCAL/MOL
REMARK 924 INTRA-LIGAND FREE ENERGY PREDICTED BY IDOCK:   -0.25 KCAL/MOL
REMARK 927      BINDING AFFINITY PREDICTED BY RF-SCORE:    0.00 PKD
ROOT
HETATM    1  C   UNL     1      -6.087   4.424  72.362  1.00  0.00    -0.017 C  
HETATM    2  N   UNL     1      -6.877   5.546  71.919  1.00  0.00    -0.061 N  
HETATM    3  C   UNL     1      -8.131   5.391  71.335  1.00  0.00    -0.116 C  
HETATM    4  H   UNL     1      -6.502   6.488  72.039  1.00  0.00     0.000 HD 
HETATM    5  O   UNL     1      -8.667   4.303  71.183  1.00  0.00    -0.097 OA 
ENDROOT
BRANCH   3   6
HETATM    6  C   UNL     1      -8.796   6.652  70.874  1.00  0.00    -0.146 A  
HETATM    7  C   UNL     1      -9.998   7.107  71.484  1.00  0.00    -0.182 A  
HETATM    8  I   UNL     1     -10.713   6.200  73.310  1.00  0.00    -0.198 I  
HETATM    9  C   UNL     1     -10.693   8.237  70.973  1.00  0.00    -0.256 A  
HETATM   10  C   UNL     1     -12.079   8.525  71.428  1.00  0.00    -0.303 C  
HETATM   11  C   UNL     1     -10.098   8.990  69.935  1.00  0.00    -0.201 A  
HETATM   12  C   UNL     1      -8.853   8.610  69.382  1.00  0.00    -0.144 A  
HETATM   13  I   UNL     1     -11.051  10.747  69.127  1.00  0.00    -0.395 I  
HETATM   14  O   UNL     1     -12.272   9.769  71.907  1.00  0.00    -0.375 OA 
HETATM   15  O   UNL     1     -12.965   7.689  71.371  1.00  0.00    -0.339 OA 
HETATM   16  C   UNL     1      -8.276   7.391  69.788  1.00  0.00    -0.129 A  
HETATM   17  I   UNL     1      -6.873   6.461  68.406  1.00  0.00    -0.077 I  
BRANCH  12  18
HETATM   18  N   UNL     1      -8.318   9.397  68.336  1.00  0.00    -0.118 N  
HETATM   19  C   UNL     1      -7.495  10.490  68.409  1.00  0.00    -0.092 C  
HETATM   20  H   UNL     1      -8.583   9.110  67.394  1.00  0.00     0.000 HD 
HETATM   21  O   UNL     1      -7.316  11.140  67.380  1.00  0.00    -0.097 OA 
HETATM   22  C   UNL     1      -6.869  10.926  69.708  1.00  0.00    -0.134 C  
ENDBRANCH  12  18
ENDBRANCH   3   6
TORSDOF 2
ENDMDL
MODEL      130
REMARK 921   NORMALIZED FREE ENERGY PREDICTED BY IDOCK:   -2.94 KCAL/MOL
REMARK 922        TOTAL FREE ENERGY PREDICTED BY IDOCK:   -3.71 KCAL/MOL
REMARK 923 INTER-LIGAND FREE ENERGY PREDICTED BY IDOCK:   -3.66 KCAL/MOL
REMARK 924 INTRA-LIGAND FREE ENERGY PREDICTED BY IDOCK:   -0.06 KCAL/MOL
REMARK 927      BINDING AFFINITY PREDICTED BY RF-SCORE:    0.00 PKD
ROOT
HETATM    1  C   UNL     1      -8.856   4.600  63.538  1.00  0.00    -0.129 C  
HETATM    2  N   UNL     1      -9.181   5.565  64.559  1.00  0.00    -0.309 N  
HETATM    3  C   UNL     1      -8.217   6.114  65.399  1.00  0.00    -0.145 C  
HETATM    4  H   UNL     1     -10.153   5.854  64.669  1.00  0.00     0.000 HD 
HETATM    5  O   UNL     1      -7.026   5.847  65.315  1.00  0.00    -0.060 OA 
ENDROOT
BRANCH   3   6
HETATM    6  C   UNL     1      -8.725   7.056  66.448  1.00  0.00    -0.148 A  
HETATM    7  C   UNL     1      -9.343   6.566  67.631  1.00  0.00    -0.118 A  
HETATM    8  I   UNL     1      -9.259   4.463  68.122  1.00  0.00    -0.212 I  
HETATM    9  C   UNL     1      -9.930   7.456  68.571  1.00  0.00    -0.172 A  
HETATM   10  C   UNL     1     -10.816   6.928  69.642  1.00  0.00    -0.259 C  
HETATM   11  C   UNL     1      -9.766   8.848  68.384  1.00  0.00    -0.161 A  
HETATM   12  C   UNL     1      -9.067   9.354  67.264  1.00  0.00    -0.133 A  
HETATM   13  I   UNL     1     -10.577  10.276  69.781  1.00  0.00    -0.260 I  
HETATM   14  O   UNL     1     -10.471   7.288  70.894  1.00  0.00    -0.212 OA 
HETATM   15  O   UNL     1     -11.777   6.219  69.395  1.00  0.00    -0.319 OA 
HETATM   16  C   UNL     1      -8.651   8.455  66.262  1.00  0.00    -0.135 A  
HETATM   17  I   UNL     1      -8.344   9.279  64.270  1.00  0.00    -0.190 I  
BRANCH  12  18
HETATM   18  N   UNL     1      -8.951  10.756  67.127  1.00  0.00    -0.140 N  
HETATM   19  C   UNL     1      -9.807  11.640  66.526  1.00  0.00    -0.204 C  
HETATM   20  H   UNL     1      -8.110  11.167  67.532  1.00  0.00     0.000 HD 
HETATM   21  O   UNL     1      -9.409  12.791  66.347  1.00  0.00    -0.241 OA 
HETATM   22  C   UNL     1     -11.172  11.221  66.045  1.00  0.00    -0.108 C  
ENDBRANCH  12  18
ENDBRANCH   3   6
TORSDOF 2
ENDMDL
MODEL      131
REMARK 921   NORMALIZED FREE ENERGY PREDICTED BY IDOCK:   -2.94 KCAL/MOL
REMARK 922        TOTAL FREE ENERGY PREDICTED BY IDOCK:   -3.71 KCAL/MOL
REMARK 923 INTER-LIGAND FREE ENERGY PREDICTED BY IDOCK:   -3.26 KCAL/MOL
REMARK 924 INTRA-LIGAND FREE ENERGY PREDICTED BY IDOCK:   -0.45 KCAL/MOL
REMARK 927      BINDING AFFINITY PREDICTED BY RF-SCORE:    0.00 PKD
ROOT
HETATM    1  C   UNL     1     -11.098  12.717  65.672  1.00  0.00    -0.279 C  
HETATM    2  N   UNL     1     -10.734  11.434  66.221  1.00  0.00    -0.268 N  
HETATM    3  C   UNL     1      -9.624  11.263  67.044  1.00  0.00    -0.178 C  
HETATM    4  H   UNL     1     -11.310  10.623  65.998  1.00  0.00     0.000 HD 
HETATM    5  O   UNL     1      -8.897  12.186  67.386  1.00  0.00    -0.167 OA 
ENDROOT
BRANCH   3   6
HETATM    6  C   UNL     1      -9.347   9.858  67.482  1.00  0.00    -0.159 A  
HETATM    7  C   UNL     1      -8.623   8.962  66.647  1.00  0.00    -0.123 A  
HETATM    8  I   UNL     1      -7.602   9.687  64.886  1.00  0.00    -0.135 I  
HETATM    9  C   UNL     1      -8.460   7.597  67.009  1.00  0.00    -0.125 A  
HETATM   10  C   UNL     1      -7.962   6.618  66.007  1.00  0.00    -0.112 C  
HETATM   11  C   UNL     1      -8.906   7.173  68.282  1.00  0.00    -0.127 A  
HETATM   12  C   UNL     1      -9.539   8.074  69.168  1.00  0.00    -0.156 A  
HETATM   13  I   UNL     1      -8.660   5.135  68.940  1.00  0.00    -0.110 I  
HETATM   14  O   UNL     1      -6.891   5.900  66.398  1.00  0.00    -0.056 OA 
HETATM   15  O   UNL     1      -8.489   6.485  64.916  1.00  0.00    -0.093 OA 
HETATM   16  C   UNL     1      -9.843   9.372  68.712  1.00  0.00    -0.163 A  
HETATM   17  I   UNL     1     -11.466  10.412  69.724  1.00  0.00    -0.338 I  
BRANCH  12  18
HETATM   18  N   UNL     1      -9.976   7.583  70.420  1.00  0.00    -0.184 N  
HETATM   19  C   UNL     1      -9.340   7.620  71.633  1.00  0.00    -0.138 C  
HETATM   20  H   UNL     1     -10.894   7.139  70.420  1.00  0.00     0.000 HD 
HETATM   21  O   UNL     1      -9.819   6.954  72.551  1.00  0.00    -0.157 OA 
HETATM   22  C   UNL     1      -8.068   8.399  71.839  1.00  0.00    -0.193 C  
ENDBRANCH  12  18
ENDBRANCH   3   6
TORSDOF 2
ENDMDL
MODEL      132
REMARK 921   NORMALIZED FREE ENERGY PREDICTED BY IDOCK:   -2.92 KCAL/MOL
REMARK 922        TOTAL FREE ENERGY PREDICTED BY IDOCK:   -3.69 KCAL/MOL
REMARK 923 INTER-LIGAND FREE ENERGY PREDICTED BY IDOCK:   -4.46 KCAL/MOL
REMARK 924 INTRA-LIGAND FREE ENERGY PREDICTED BY IDOCK:    0.77 KCAL/MOL
REMARK 927      BINDING AFFINITY PREDICTED BY RF-SCORE:    0.00 PKD
ROOT
HETATM    1  C   UNL     1     -11.722  16.021  70.636  1.00  0.00    -0.350 C  
HETATM    2  N   UNL     1     -11.414  14.617  70.531  1.00  0.00    -0.417 N  
HETATM    3  C   UNL     1     -11.674  13.880  69.379  1.00  0.00    -0.315 C  
HETATM    4  H   UNL     1     -10.990  14.146  71.330  1.00  0.00     0.000 HD 
HETATM    5  O   UNL     1     -12.152  14.371  68.365  1.00  0.00    -0.322 OA 
ENDROOT
BRANCH   3   6
HETATM    6  C   UNL     1     -11.351  12.419  69.451  1.00  0.00    -0.286 A  
HETATM    7  C   UNL     1     -10.638  11.777  68.402  1.00  0.00    -0.216 A  
HETATM    8  I   UNL     1      -9.696  12.940  66.843  1.00  0.00    -0.253 I  
HETATM    9  C   UNL     1     -10.432  10.370  68.413  1.00  0.00    -0.216 A  
HETATM   10  C   UNL     1      -9.949   9.680  67.188  1.00  0.00    -0.194 C  
HETATM   11  C   UNL     1     -10.824   9.634  69.555  1.00  0.00    -0.231 A  
HETATM   12  C   UNL     1     -11.445  10.273  70.654  1.00  0.00    -0.349 A  
HETATM   13  I   UNL     1     -10.509   7.506  69.687  1.00  0.00    -0.218 I  
HETATM   14  O   UNL     1      -8.849   8.922  67.360  1.00  0.00    -0.128 OA 
HETATM   15  O   UNL     1     -10.511   9.802  66.113  1.00  0.00    -0.179 OA 
HETATM   16  C   UNL     1     -11.792  11.633  70.539  1.00  0.00    -0.231 A  
HETATM   17  I   UNL     1     -13.402  12.346  71.821  1.00  0.00     0.223 I  
BRANCH  12  18
HETATM   18  N   UNL     1     -11.825   9.478  71.760  1.00  0.00    -0.385 N  
HETATM   19  C   UNL     1     -13.022   8.859  72.009  1.00  0.00    -0.399 C  
HETATM   20  H   UNL     1     -11.108   9.348  72.472  1.00  0.00     0.000 HD 
HETATM   21  O   UNL     1     -13.197   8.384  73.131  1.00  0.00     0.010 OA 
HETATM   22  C   UNL     1     -14.116   8.801  70.975  1.00  0.00     0.001 C  
ENDBRANCH  12  18
ENDBRANCH   3   6
TORSDOF 2
ENDMDL
MODEL      133
REMARK 921   NORMALIZED FREE ENERGY PREDICTED BY IDOCK:   -2.91 KCAL/MOL
REMARK 922        TOTAL FREE ENERGY PREDICTED BY IDOCK:   -3.67 KCAL/MOL
REMARK 923 INTER-LIGAND FREE ENERGY PREDICTED BY IDOCK:   -3.38 KCAL/MOL
REMARK 924 INTRA-LIGAND FREE ENERGY PREDICTED BY IDOCK:   -0.29 KCAL/MOL
REMARK 927      BINDING AFFINITY PREDICTED BY RF-SCORE:    0.00 PKD
ROOT
HETATM    1  C   UNL     1      -9.858   4.544  68.984  1.00  0.00    -0.132 C  
HETATM    2  N   UNL     1      -9.381   5.889  68.776  1.00  0.00    -0.121 N  
HETATM    3  C   UNL     1     -10.158   6.870  68.166  1.00  0.00    -0.166 C  
HETATM    4  H   UNL     1      -8.440   6.130  69.086  1.00  0.00     0.000 HD 
HETATM    5  O   UNL     1     -11.307   6.676  67.792  1.00  0.00    -0.227 OA 
ENDROOT
BRANCH   3   6
HETATM    6  C   UNL     1      -9.496   8.199  67.969  1.00  0.00    -0.155 A  
HETATM    7  C   UNL     1      -8.395   8.341  67.079  1.00  0.00    -0.122 A  
HETATM    8  I   UNL     1      -7.865   6.741  65.727  1.00  0.00    -0.120 I  
HETATM    9  C   UNL     1      -7.692   9.572  66.978  1.00  0.00    -0.091 A  
HETATM   10  C   UNL     1      -6.383   9.624  66.274  1.00  0.00    -0.069 C  
HETATM   11  C   UNL     1      -8.190  10.699  67.671  1.00  0.00    -0.107 A  
HETATM   12  C   UNL     1      -9.344  10.602  68.483  1.00  0.00    -0.170 A  
HETATM   13  I   UNL     1      -7.222  12.621  67.542  1.00  0.00    -0.085 I  
HETATM   14  O   UNL     1      -6.300  10.549  65.298  1.00  0.00    -0.123 OA 
HETATM   15  O   UNL     1      -5.463   8.879  66.564  1.00  0.00    -0.037 OA 
HETATM   16  C   UNL     1      -9.913   9.332  68.701  1.00  0.00    -0.178 A  
HETATM   17  I   UNL     1     -11.102   9.088  70.510  1.00  0.00    -0.287 I  
BRANCH  12  18
HETATM   18  N   UNL     1      -9.782  11.762  69.162  1.00  0.00    -0.395 N  
HETATM   19  C   UNL     1     -10.734  12.674  68.790  1.00  0.00    -0.207 C  
HETATM   20  H   UNL     1      -9.324  11.946  70.054  1.00  0.00     0.000 HD 
HETATM   21  O   UNL     1     -10.812  13.717  69.439  1.00  0.00    -0.167 OA 
HETATM   22  C   UNL     1     -11.626  12.449  67.597  1.00  0.00    -0.421 C  
ENDBRANCH  12  18
ENDBRANCH   3   6
TORSDOF 2
ENDMDL
MODEL      134
REMARK 921   NORMALIZED FREE ENERGY PREDICTED BY IDOCK:   -2.90 KCAL/MOL
REMARK 922        TOTAL FREE ENERGY PREDICTED BY IDOCK:   -3.66 KCAL/MOL
REMARK 923 INTER-LIGAND FREE ENERGY PREDICTED BY IDOCK:   -4.12 KCAL/MOL
REMARK 924 INTRA-LIGAND FREE ENERGY PREDICTED BY IDOCK:    0.46 KCAL/MOL
REMARK 927      BINDING AFFINITY PREDICTED BY RF-SCORE:    0.00 PKD
ROOT
HETATM    1  C   UNL     1     -10.745   9.730  71.308  1.00  0.00    -0.134 C  
HETATM    2  N   UNL     1     -10.175   9.367  70.034  1.00  0.00    -0.212 N  
HETATM    3  C   UNL     1     -10.644   9.889  68.831  1.00  0.00    -0.218 C  
HETATM    4  H   UNL     1      -9.401   8.703  70.014  1.00  0.00     0.000 HD 
HETATM    5  O   UNL     1     -11.546  10.712  68.767  1.00  0.00    -0.276 OA 
ENDROOT
BRANCH   3   6
HETATM    6  C   UNL     1      -9.985   9.365  67.592  1.00  0.00    -0.238 A  
HETATM    7  C   UNL     1      -9.759   7.971  67.420  1.00  0.00    -0.166 A  
HETATM    8  I   UNL     1     -10.661   6.539  68.763  1.00  0.00    -0.379 I  
HETATM    9  C   UNL     1      -9.032   7.482  66.300  1.00  0.00    -0.199 A  
HETATM   10  C   UNL     1      -8.556   6.074  66.281  1.00  0.00    -0.137 C  
HETATM   11  C   UNL     1      -8.657   8.390  65.283  1.00  0.00    -0.150 A  
HETATM   12  C   UNL     1      -8.962   9.767  65.389  1.00  0.00    -0.190 A  
HETATM   13  I   UNL     1      -7.595   7.737  63.525  1.00  0.00    -0.117 I  
HETATM   14  O   UNL     1      -8.922   5.366  65.195  1.00  0.00    -0.147 OA 
HETATM   15  O   UNL     1      -7.888   5.605  67.187  1.00  0.00    -0.100 OA 
HETATM   16  C   UNL     1      -9.526  10.246  66.588  1.00  0.00    -0.166 A  
HETATM   17  I   UNL     1      -9.231  12.356  67.037  1.00  0.00    -0.214 I  
BRANCH  12  18
HETATM   18  N   UNL     1      -8.547  10.625  64.345  1.00  0.00    -0.302 N  
HETATM   19  C   UNL     1      -9.303  11.271  63.403  1.00  0.00    -0.241 C  
HETATM   20  H   UNL     1      -7.541  10.785  64.284  1.00  0.00     0.000 HD 
HETATM   21  O   UNL     1      -8.714  11.808  62.466  1.00  0.00    -0.163 OA 
HETATM   22  C   UNL     1     -10.808  11.286  63.468  1.00  0.00    -0.373 C  
ENDBRANCH  12  18
ENDBRANCH   3   6
TORSDOF 2
ENDMDL
MODEL      135
REMARK 921   NORMALIZED FREE ENERGY PREDICTED BY IDOCK:   -2.89 KCAL/MOL
REMARK 922        TOTAL FREE ENERGY PREDICTED BY IDOCK:   -3.66 KCAL/MOL
REMARK 923 INTER-LIGAND FREE ENERGY PREDICTED BY IDOCK:   -3.69 KCAL/MOL
REMARK 924 INTRA-LIGAND FREE ENERGY PREDICTED BY IDOCK:    0.03 KCAL/MOL
REMARK 927      BINDING AFFINITY PREDICTED BY RF-SCORE:    0.00 PKD
ROOT
HETATM    1  C   UNL     1     -11.506  12.132  63.468  1.00  0.00    -0.458 C  
HETATM    2  N   UNL     1     -10.878  10.968  64.043  1.00  0.00    -0.473 N  
HETATM    3  C   UNL     1      -9.792  11.058  64.909  1.00  0.00    -0.274 C  
HETATM    4  H   UNL     1     -11.243  10.045  63.806  1.00  0.00     0.000 HD 
HETATM    5  O   UNL     1      -9.311  12.123  65.270  1.00  0.00    -0.055 OA 
ENDROOT
BRANCH   3   6
HETATM    6  C   UNL     1      -9.217   9.754  65.372  1.00  0.00    -0.282 A  
HETATM    7  C   UNL     1      -8.502   8.913  64.475  1.00  0.00    -0.161 A  
HETATM    8  I   UNL     1      -7.921   9.634  62.522  1.00  0.00    -0.170 I  
HETATM    9  C   UNL     1      -8.057   7.625  64.880  1.00  0.00    -0.128 A  
HETATM   10  C   UNL     1      -7.575   6.652  63.864  1.00  0.00    -0.108 C  
HETATM   11  C   UNL     1      -8.209   7.247  66.234  1.00  0.00    -0.123 A  
HETATM   12  C   UNL     1      -8.828   8.112  67.165  1.00  0.00    -0.131 A  
HETATM   13  I   UNL     1      -7.522   5.335  66.955  1.00  0.00    -0.089 I  
HETATM   14  O   UNL     1      -6.350   6.144  64.100  1.00  0.00    -0.029 OA 
HETATM   15  O   UNL     1      -8.246   6.347  62.893  1.00  0.00    -0.099 OA 
HETATM   16  C   UNL     1      -9.415   9.304  66.696  1.00  0.00    -0.191 A  
HETATM   17  I   UNL     1     -10.999  10.165  67.917  1.00  0.00    -0.093 I  
BRANCH  12  18
HETATM   18  N   UNL     1      -8.964   7.669  68.501  1.00  0.00    -0.130 N  
HETATM   19  C   UNL     1      -9.981   6.953  69.075  1.00  0.00    -0.158 C  
HETATM   20  H   UNL     1      -8.197   7.918  69.125  1.00  0.00     0.000 HD 
HETATM   21  O   UNL     1      -9.985   6.849  70.302  1.00  0.00    -0.178 OA 
HETATM   22  C   UNL     1     -11.092   6.353  68.254  1.00  0.00    -0.359 C  
ENDBRANCH  12  18
ENDBRANCH   3   6
TORSDOF 2
ENDMDL
MODEL      136
REMARK 921   NORMALIZED FREE ENERGY PREDICTED BY IDOCK:   -2.88 KCAL/MOL
REMARK 922        TOTAL FREE ENERGY PREDICTED BY IDOCK:   -3.65 KCAL/MOL
REMARK 923 INTER-LIGAND FREE ENERGY PREDICTED BY IDOCK:   -3.61 KCAL/MOL
REMARK 924 INTRA-LIGAND FREE ENERGY PREDICTED BY IDOCK:   -0.04 KCAL/MOL
REMARK 927      BINDING AFFINITY PREDICTED BY RF-SCORE:    0.00 PKD
ROOT
HETATM    1  C   UNL     1      -9.765  10.567  64.628  1.00  0.00    -0.309 C  
HETATM    2  N   UNL     1      -9.736   9.522  65.622  1.00  0.00    -0.289 N  
HETATM    3  C   UNL     1      -8.596   9.234  66.367  1.00  0.00    -0.131 C  
HETATM    4  H   UNL     1     -10.581   8.975  65.783  1.00  0.00     0.000 HD 
HETATM    5  O   UNL     1      -7.551   9.861  66.260  1.00  0.00    -0.098 OA 
ENDROOT
BRANCH   3   6
HETATM    6  C   UNL     1      -8.711   8.080  67.315  1.00  0.00    -0.132 A  
HETATM    7  C   UNL     1      -8.518   6.744  66.865  1.00  0.00    -0.115 A  
HETATM    8  I   UNL     1      -7.715   6.355  64.897  1.00  0.00    -0.113 I  
HETATM    9  C   UNL     1      -8.741   5.642  67.734  1.00  0.00    -0.107 A  
HETATM   10  C   UNL     1      -8.819   4.264  67.181  1.00  0.00    -0.113 C  
HETATM   11  C   UNL     1      -9.020   5.895  69.097  1.00  0.00    -0.119 A  
HETATM   12  C   UNL     1      -9.118   7.218  69.586  1.00  0.00    -0.140 A  
HETATM   13  I   UNL     1      -9.325   4.289  70.502  1.00  0.00    -0.260 I  
HETATM   14  O   UNL     1      -7.986   3.373  67.755  1.00  0.00    -0.078 OA 
HETATM   15  O   UNL     1      -9.580   3.973  66.273  1.00  0.00    -0.181 OA 
HETATM   16  C   UNL     1      -9.066   8.285  68.667  1.00  0.00    -0.140 A  
HETATM   17  I   UNL     1     -10.002  10.153  69.280  1.00  0.00    -0.256 I  
BRANCH  12  18
HETATM   18  N   UNL     1      -9.414   7.404  70.955  1.00  0.00    -0.158 N  
HETATM   19  C   UNL     1     -10.634   7.473  71.574  1.00  0.00    -0.212 C  
HETATM   20  H   UNL     1      -8.606   7.500  71.569  1.00  0.00     0.000 HD 
HETATM   21  O   UNL     1     -10.660   7.840  72.749  1.00  0.00    -0.281 OA 
HETATM   22  C   UNL     1     -11.914   7.168  70.842  1.00  0.00    -0.375 C  
ENDBRANCH  12  18
ENDBRANCH   3   6
TORSDOF 2
ENDMDL
MODEL      137
REMARK 921   NORMALIZED FREE ENERGY PREDICTED BY IDOCK:   -2.88 KCAL/MOL
REMARK 922        TOTAL FREE ENERGY PREDICTED BY IDOCK:   -3.64 KCAL/MOL
REMARK 923 INTER-LIGAND FREE ENERGY PREDICTED BY IDOCK:   -3.25 KCAL/MOL
REMARK 924 INTRA-LIGAND FREE ENERGY PREDICTED BY IDOCK:   -0.39 KCAL/MOL
REMARK 927      BINDING AFFINITY PREDICTED BY RF-SCORE:    0.00 PKD
ROOT
HETATM    1  C   UNL     1     -10.004  12.586  64.286  1.00  0.00    -0.190 C  
HETATM    2  N   UNL     1     -10.453  11.970  65.510  1.00  0.00    -0.259 N  
HETATM    3  C   UNL     1      -9.760  12.101  66.710  1.00  0.00    -0.207 C  
HETATM    4  H   UNL     1     -11.310  11.416  65.495  1.00  0.00     0.000 HD 
HETATM    5  O   UNL     1      -8.742  12.771  66.823  1.00  0.00    -0.197 OA 
ENDROOT
BRANCH   3   6
HETATM    6  C   UNL     1     -10.324  11.350  67.876  1.00  0.00    -0.204 A  
HETATM    7  C   UNL     1     -11.239  11.971  68.771  1.00  0.00    -0.263 A  
HETATM    8  I   UNL     1     -12.111  13.889  68.291  1.00  0.00     0.148 I  
HETATM    9  C   UNL     1     -11.685  11.300  69.941  1.00  0.00    -0.430 A  
HETATM   10  C   UNL     1     -12.400  12.055  71.004  1.00  0.00    -0.238 C  
HETATM   11  C   UNL     1     -11.318   9.948  70.132  1.00  0.00    -0.275 A  
HETATM   12  C   UNL     1     -10.490   9.280  69.200  1.00  0.00    -0.217 A  
HETATM   13  I   UNL     1     -11.985   8.830  71.850  1.00  0.00    -0.450 I  
HETATM   14  O   UNL     1     -13.593  11.541  71.361  1.00  0.00     0.108 OA 
HETATM   15  O   UNL     1     -11.933  13.064  71.505  1.00  0.00     0.341 OA 
HETATM   16  C   UNL     1      -9.923  10.023  68.145  1.00  0.00    -0.153 A  
HETATM   17  I   UNL     1      -8.095   9.233  67.262  1.00  0.00    -0.113 I  
BRANCH  12  18
HETATM   18  N   UNL     1     -10.147   7.933  69.456  1.00  0.00    -0.190 N  
HETATM   19  C   UNL     1     -10.578   6.796  68.826  1.00  0.00    -0.226 C  
HETATM   20  H   UNL     1      -9.485   7.787  70.218  1.00  0.00     0.000 HD 
HETATM   21  O   UNL     1     -10.303   5.714  69.345  1.00  0.00    -0.221 OA 
HETATM   22  C   UNL     1     -11.408   6.851  67.570  1.00  0.00    -0.011 C  
ENDBRANCH  12  18
ENDBRANCH   3   6
TORSDOF 2
ENDMDL
MODEL      138
REMARK 921   NORMALIZED FREE ENERGY PREDICTED BY IDOCK:   -2.87 KCAL/MOL
REMARK 922        TOTAL FREE ENERGY PREDICTED BY IDOCK:   -3.64 KCAL/MOL
REMARK 923 INTER-LIGAND FREE ENERGY PREDICTED BY IDOCK:   -3.16 KCAL/MOL
REMARK 924 INTRA-LIGAND FREE ENERGY PREDICTED BY IDOCK:   -0.48 KCAL/MOL
REMARK 927      BINDING AFFINITY PREDICTED BY RF-SCORE:    0.00 PKD
ROOT
HETATM    1  C   UNL     1      -8.949  14.230  66.599  1.00  0.00    -0.186 C  
HETATM    2  N   UNL     1      -9.054  12.798  66.459  1.00  0.00    -0.376 N  
HETATM    3  C   UNL     1      -8.429  11.916  67.336  1.00  0.00    -0.166 C  
HETATM    4  H   UNL     1      -9.604  12.419  65.688  1.00  0.00     0.000 HD 
HETATM    5  O   UNL     1      -7.777  12.284  68.303  1.00  0.00    -0.127 OA 
ENDROOT
BRANCH   3   6
HETATM    6  C   UNL     1      -8.585  10.460  67.018  1.00  0.00    -0.130 A  
HETATM    7  C   UNL     1      -9.590   9.679  67.651  1.00  0.00    -0.142 A  
HETATM    8  I   UNL     1     -11.142  10.625  68.820  1.00  0.00    -0.363 I  
HETATM    9  C   UNL     1      -9.665   8.275  67.439  1.00  0.00    -0.225 A  
HETATM   10  C   UNL     1     -10.522   7.436  68.318  1.00  0.00    -0.189 C  
HETATM   11  C   UNL     1      -8.813   7.685  66.478  1.00  0.00    -0.147 A  
HETATM   12  C   UNL     1      -7.873   8.465  65.764  1.00  0.00    -0.101 A  
HETATM   13  I   UNL     1      -8.885   5.574  66.051  1.00  0.00    -0.147 I  
HETATM   14  O   UNL     1     -11.411   6.658  67.670  1.00  0.00    -0.246 OA 
HETATM   15  O   UNL     1     -10.422   7.460  69.533  1.00  0.00    -0.221 OA 
HETATM   16  C   UNL     1      -7.703   9.817  66.122  1.00  0.00    -0.104 A  
HETATM   17  I   UNL     1      -5.789  10.729  65.627  1.00  0.00     0.069 I  
BRANCH  12  18
HETATM   18  N   UNL     1      -7.040   7.812  64.826  1.00  0.00    -0.059 N  
HETATM   19  C   UNL     1      -7.130   7.786  63.460  1.00  0.00    -0.075 C  
HETATM   20  H   UNL     1      -6.262   7.287  65.224  1.00  0.00     0.000 HD 
HETATM   21  O   UNL     1      -6.413   6.990  62.854  1.00  0.00    -0.046 OA 
HETATM   22  C   UNL     1      -8.106   8.656  62.712  1.00  0.00    -0.178 C  
ENDBRANCH  12  18
ENDBRANCH   3   6
TORSDOF 2
ENDMDL
MODEL      139
REMARK 921   NORMALIZED FREE ENERGY PREDICTED BY IDOCK:   -2.85 KCAL/MOL
REMARK 922        TOTAL FREE ENERGY PREDICTED BY IDOCK:   -3.61 KCAL/MOL
REMARK 923 INTER-LIGAND FREE ENERGY PREDICTED BY IDOCK:   -3.13 KCAL/MOL
REMARK 924 INTRA-LIGAND FREE ENERGY PREDICTED BY IDOCK:   -0.49 KCAL/MOL
REMARK 927      BINDING AFFINITY PREDICTED BY RF-SCORE:    0.00 PKD
ROOT
HETATM    1  C   UNL     1      -6.365  11.151  68.271  1.00  0.00    -0.049 C  
HETATM    2  N   UNL     1      -7.105  10.254  69.123  1.00  0.00    -0.066 N  
HETATM    3  C   UNL     1      -7.285   8.909  68.812  1.00  0.00    -0.075 C  
HETATM    4  H   UNL     1      -7.513  10.618  69.984  1.00  0.00     0.000 HD 
HETATM    5  O   UNL     1      -6.805   8.383  67.817  1.00  0.00    -0.065 OA 
ENDROOT
BRANCH   3   6
HETATM    6  C   UNL     1      -8.130   8.125  69.768  1.00  0.00    -0.116 A  
HETATM    7  C   UNL     1      -7.534   7.289  70.752  1.00  0.00    -0.079 A  
HETATM    8  I   UNL     1      -5.409   7.386  71.132  1.00  0.00    -0.027 I  
HETATM    9  C   UNL     1      -8.332   6.456  71.583  1.00  0.00    -0.125 A  
HETATM   10  C   UNL     1      -7.693   5.386  72.395  1.00  0.00    -0.102 C  
HETATM   11  C   UNL     1      -9.739   6.575  71.515  1.00  0.00    -0.168 A  
HETATM   12  C   UNL     1     -10.350   7.475  70.612  1.00  0.00    -0.208 A  
HETATM   13  I   UNL     1     -11.032   5.390  72.769  1.00  0.00    -0.339 I  
HETATM   14  O   UNL     1      -7.984   5.421  73.710  1.00  0.00    -0.107 OA 
HETATM   15  O   UNL     1      -6.960   4.548  71.898  1.00  0.00    -0.050 OA 
HETATM   16  C   UNL     1      -9.540   8.156  69.682  1.00  0.00    -0.168 A  
HETATM   17  I   UNL     1     -10.509   8.850  67.860  1.00  0.00    -0.148 I  
BRANCH  12  18
HETATM   18  N   UNL     1     -11.762   7.535  70.582  1.00  0.00    -0.425 N  
HETATM   19  C   UNL     1     -12.606   8.386  71.247  1.00  0.00    -0.217 C  
HETATM   20  H   UNL     1     -12.217   6.848  69.982  1.00  0.00     0.000 HD 
HETATM   21  O   UNL     1     -13.809   8.129  71.227  1.00  0.00    -0.262 OA 
HETATM   22  C   UNL     1     -12.090   9.569  72.023  1.00  0.00    -0.332 C  
ENDBRANCH  12  18
ENDBRANCH   3   6
TORSDOF 2
ENDMDL
MODEL      140
REMARK 921   NORMALIZED FREE ENERGY PREDICTED BY IDOCK:   -2.84 KCAL/MOL
REMARK 922        TOTAL FREE ENERGY PREDICTED BY IDOCK:   -3.60 KCAL/MOL
REMARK 923 INTER-LIGAND FREE ENERGY PREDICTED BY IDOCK:   -4.02 KCAL/MOL
REMARK 924 INTRA-LIGAND FREE ENERGY PREDICTED BY IDOCK:    0.41 KCAL/MOL
REMARK 927      BINDING AFFINITY PREDICTED BY RF-SCORE:    0.00 PKD
ROOT
HETATM    1  C   UNL     1     -13.017  14.511  71.212  1.00  0.00    -0.333 C  
HETATM    2  N   UNL     1     -11.988  13.550  70.900  1.00  0.00    -0.493 N  
HETATM    3  C   UNL     1     -11.739  13.121  69.599  1.00  0.00    -0.303 C  
HETATM    4  H   UNL     1     -11.423  13.172  71.659  1.00  0.00     0.000 HD 
HETATM    5  O   UNL     1     -12.347  13.546  68.627  1.00  0.00    -0.232 OA 
ENDROOT
BRANCH   3   6
HETATM    6  C   UNL     1     -10.678  12.074  69.449  1.00  0.00     0.022 A  
HETATM    7  C   UNL     1     -10.786  10.825  70.120  1.00  0.00     0.013 A  
HETATM    8  I   UNL     1     -12.631  10.256  71.089  1.00  0.00    -0.569 I  
HETATM    9  C   UNL     1      -9.727   9.877  70.074  1.00  0.00    -0.274 A  
HETATM   10  C   UNL     1      -9.728   8.716  71.003  1.00  0.00    -0.210 C  
HETATM   11  C   UNL     1      -8.620  10.135  69.233  1.00  0.00    -0.174 A  
HETATM   12  C   UNL     1      -8.541  11.329  68.479  1.00  0.00    -0.156 A  
HETATM   13  I   UNL     1      -6.988   8.737  69.057  1.00  0.00    -0.066 I  
HETATM   14  O   UNL     1      -9.606   7.513  70.408  1.00  0.00    -0.169 OA 
HETATM   15  O   UNL     1      -9.834   8.854  72.210  1.00  0.00    -0.284 OA 
HETATM   16  C   UNL     1      -9.519  12.323  68.681  1.00  0.00    -0.023 A  
HETATM   17  I   UNL     1      -8.959  14.366  68.177  1.00  0.00    -0.201 I  
BRANCH  12  18
HETATM   18  N   UNL     1      -7.401  11.533  67.668  1.00  0.00    -0.098 N  
HETATM   19  C   UNL     1      -6.233  12.184  67.966  1.00  0.00    -0.065 C  
HETATM   20  H   UNL     1      -7.456  11.140  66.729  1.00  0.00     0.000 HD 
HETATM   21  O   UNL     1      -5.454  12.414  67.041  1.00  0.00    -0.301 OA 
HETATM   22  C   UNL     1      -5.922  12.657  69.362  1.00  0.00    -0.101 C  
ENDBRANCH  12  18
ENDBRANCH   3   6
TORSDOF 2
ENDMDL
MODEL      141
REMARK 921   NORMALIZED FREE ENERGY PREDICTED BY IDOCK:   -2.84 KCAL/MOL
REMARK 922        TOTAL FREE ENERGY PREDICTED BY IDOCK:   -3.60 KCAL/MOL
REMARK 923 INTER-LIGAND FREE ENERGY PREDICTED BY IDOCK:   -3.26 KCAL/MOL
REMARK 924 INTRA-LIGAND FREE ENERGY PREDICTED BY IDOCK:   -0.34 KCAL/MOL
REMARK 927      BINDING AFFINITY PREDICTED BY RF-SCORE:    0.00 PKD
ROOT
HETATM    1  C   UNL     1      -5.682   8.503  66.550  1.00  0.00    -0.047 C  
HETATM    2  N   UNL     1      -6.731   9.472  66.752  1.00  0.00    -0.071 N  
HETATM    3  C   UNL     1      -8.080   9.133  66.691  1.00  0.00    -0.111 C  
HETATM    4  H   UNL     1      -6.475  10.440  66.945  1.00  0.00     0.000 HD 
HETATM    5  O   UNL     1      -8.475   7.992  66.496  1.00  0.00    -0.125 OA 
ENDROOT
BRANCH   3   6
HETATM    6  C   UNL     1      -9.045  10.266  66.863  1.00  0.00    -0.159 A  
HETATM    7  C   UNL     1      -9.497  11.016  65.742  1.00  0.00    -0.210 A  
HETATM    8  I   UNL     1      -9.088  10.337  63.732  1.00  0.00    -0.340 I  
HETATM    9  C   UNL     1     -10.320  12.163  65.914  1.00  0.00    -0.286 A  
HETATM   10  C   UNL     1     -10.542  13.095  64.777  1.00  0.00    -0.372 C  
HETATM   11  C   UNL     1     -10.802  12.466  67.208  1.00  0.00    -0.243 A  
HETATM   12  C   UNL     1     -10.444  11.672  68.322  1.00  0.00    -0.204 A  
HETATM   13  I   UNL     1     -12.094  14.154  67.562  1.00  0.00     0.041 I  
HETATM   14  O   UNL     1     -11.835  13.340  64.489  1.00  0.00    -0.353 OA 
HETATM   15  O   UNL     1      -9.616  13.591  64.158  1.00  0.00     0.291 OA 
HETATM   16  C   UNL     1      -9.490  10.651  68.147  1.00  0.00    -0.154 A  
HETATM   17  I   UNL     1      -8.387  10.026  69.918  1.00  0.00     0.128 I  
BRANCH  12  18
HETATM   18  N   UNL     1     -10.948  12.037  69.592  1.00  0.00    -0.459 N  
HETATM   19  C   UNL     1     -11.917  11.430  70.346  1.00  0.00    -0.374 C  
HETATM   20  H   UNL     1     -10.531  12.871  70.004  1.00  0.00     0.000 HD 
HETATM   21  O   UNL     1     -12.338  12.035  71.332  1.00  0.00    -0.190 OA 
HETATM   22  C   UNL     1     -12.497  10.093  69.965  1.00  0.00    -0.020 C  
ENDBRANCH  12  18
ENDBRANCH   3   6
TORSDOF 2
ENDMDL
MODEL      142
REMARK 921   NORMALIZED FREE ENERGY PREDICTED BY IDOCK:   -2.84 KCAL/MOL
REMARK 922        TOTAL FREE ENERGY PREDICTED BY IDOCK:   -3.59 KCAL/MOL
REMARK 923 INTER-LIGAND FREE ENERGY PREDICTED BY IDOCK:   -3.13 KCAL/MOL
REMARK 924 INTRA-LIGAND FREE ENERGY PREDICTED BY IDOCK:   -0.47 KCAL/MOL
REMARK 927      BINDING AFFINITY PREDICTED BY RF-SCORE:    0.00 PKD
ROOT
HETATM    1  C   UNL     1      -9.843  10.954  63.888  1.00  0.00    -0.331 C  
HETATM    2  N   UNL     1      -9.756   9.671  64.540  1.00  0.00    -0.393 N  
HETATM    3  C   UNL     1      -8.650   9.292  65.295  1.00  0.00    -0.166 C  
HETATM    4  H   UNL     1     -10.533   9.017  64.444  1.00  0.00     0.000 HD 
HETATM    5  O   UNL     1      -7.689  10.024  65.488  1.00  0.00    -0.122 OA 
ENDROOT
BRANCH   3   6
HETATM    6  C   UNL     1      -8.688   7.903  65.857  1.00  0.00    -0.180 A  
HETATM    7  C   UNL     1      -8.337   6.782  65.055  1.00  0.00    -0.048 A  
HETATM    8  I   UNL     1      -7.409   7.062  63.124  1.00  0.00    -0.097 I  
HETATM    9  C   UNL     1      -8.484   5.457  65.548  1.00  0.00    -0.141 A  
HETATM   10  C   UNL     1      -8.394   4.303  64.615  1.00  0.00    -0.106 C  
HETATM   11  C   UNL     1      -8.850   5.271  66.901  1.00  0.00    -0.110 A  
HETATM   12  C   UNL     1      -9.105   6.378  67.744  1.00  0.00    -0.111 A  
HETATM   13  I   UNL     1      -9.050   3.302  67.755  1.00  0.00    -0.234 I  
HETATM   14  O   UNL     1      -7.501   3.357  64.967  1.00  0.00    -0.070 OA 
HETATM   15  O   UNL     1      -9.079   4.230  63.609  1.00  0.00    -0.136 OA 
HETATM   16  C   UNL     1      -9.123   7.669  67.180  1.00  0.00    -0.127 A  
HETATM   17  I   UNL     1     -10.274   9.186  68.237  1.00  0.00    -0.246 I  
BRANCH  12  18
HETATM   18  N   UNL     1      -9.482   6.125  69.083  1.00  0.00    -0.132 N  
HETATM   19  C   UNL     1      -8.711   6.137  70.216  1.00  0.00    -0.145 C  
HETATM   20  H   UNL     1     -10.466   5.900  69.226  1.00  0.00     0.000 HD 
HETATM   21  O   UNL     1      -9.206   5.690  71.250  1.00  0.00    -0.144 OA 
HETATM   22  C   UNL     1      -7.287   6.627  70.201  1.00  0.00    -0.085 C  
ENDBRANCH  12  18
ENDBRANCH   3   6
TORSDOF 2
ENDMDL
MODEL      143
REMARK 921   NORMALIZED FREE ENERGY PREDICTED BY IDOCK:   -2.83 KCAL/MOL
REMARK 922        TOTAL FREE ENERGY PREDICTED BY IDOCK:   -3.59 KCAL/MOL
REMARK 923 INTER-LIGAND FREE ENERGY PREDICTED BY IDOCK:   -3.15 KCAL/MOL
REMARK 924 INTRA-LIGAND FREE ENERGY PREDICTED BY IDOCK:   -0.44 KCAL/MOL
REMARK 927      BINDING AFFINITY PREDICTED BY RF-SCORE:    0.00 PKD
ROOT
HETATM    1  C   UNL     1      -7.035   6.730  62.634  1.00  0.00    -0.048 C  
HETATM    2  N   UNL     1      -7.754   6.678  63.882  1.00  0.00    -0.108 N  
HETATM    3  C   UNL     1      -7.257   7.243  65.054  1.00  0.00    -0.070 C  
HETATM    4  H   UNL     1      -8.660   6.210  63.908  1.00  0.00     0.000 HD 
HETATM    5  O   UNL     1      -6.196   7.849  65.105  1.00  0.00    -0.041 OA 
ENDROOT
BRANCH   3   6
HETATM    6  C   UNL     1      -8.097   7.050  66.279  1.00  0.00    -0.115 A  
HETATM    7  C   UNL     1      -8.149   5.790  66.936  1.00  0.00    -0.102 A  
HETATM    8  I   UNL     1      -6.764   4.218  66.407  1.00  0.00    -0.052 I  
HETATM    9  C   UNL     1      -9.034   5.572  68.028  1.00  0.00    -0.108 A  
HETATM   10  C   UNL     1      -9.289   4.190  68.513  1.00  0.00    -0.156 C  
HETATM   11  C   UNL     1      -9.760   6.670  68.545  1.00  0.00    -0.131 A  
HETATM   12  C   UNL     1      -9.644   7.955  67.967  1.00  0.00    -0.151 A  
HETATM   13  I   UNL     1     -11.088   6.450  70.228  1.00  0.00    -0.453 I  
HETATM   14  O   UNL     1      -9.081   4.003  69.831  1.00  0.00    -0.093 OA 
HETATM   15  O   UNL     1      -9.656   3.300  67.764  1.00  0.00    -0.200 OA 
HETATM   16  C   UNL     1      -8.898   8.100  66.781  1.00  0.00    -0.138 A  
HETATM   17  I   UNL     1      -9.388   9.802  65.514  1.00  0.00    -0.345 I  
BRANCH  12  18
HETATM   18  N   UNL     1     -10.408   9.008  68.521  1.00  0.00    -0.201 N  
HETATM   19  C   UNL     1     -10.023   9.990  69.395  1.00  0.00    -0.223 C  
HETATM   20  H   UNL     1     -11.385   9.040  68.229  1.00  0.00     0.000 HD 
HETATM   21  O   UNL     1     -10.905  10.684  69.901  1.00  0.00    -0.267 OA 
HETATM   22  C   UNL     1      -8.580  10.191  69.776  1.00  0.00    -0.148 C  
ENDBRANCH  12  18
ENDBRANCH   3   6
TORSDOF 2
ENDMDL
MODEL      144
REMARK 921   NORMALIZED FREE ENERGY PREDICTED BY IDOCK:   -2.79 KCAL/MOL
REMARK 922        TOTAL FREE ENERGY PREDICTED BY IDOCK:   -3.55 KCAL/MOL
REMARK 923 INTER-LIGAND FREE ENERGY PREDICTED BY IDOCK:   -3.62 KCAL/MOL
REMARK 924 INTRA-LIGAND FREE ENERGY PREDICTED BY IDOCK:    0.07 KCAL/MOL
REMARK 927      BINDING AFFINITY PREDICTED BY RF-SCORE:    0.00 PKD
ROOT
HETATM    1  C   UNL     1      -6.561  15.939  69.590  1.00  0.00    -0.180 C  
HETATM    2  N   UNL     1      -7.259  15.307  68.499  1.00  0.00    -0.110 N  
HETATM    3  C   UNL     1      -8.546  14.795  68.634  1.00  0.00    -0.169 C  
HETATM    4  H   UNL     1      -6.792  15.232  67.595  1.00  0.00     0.000 HD 
HETATM    5  O   UNL     1      -9.190  14.870  69.671  1.00  0.00    -0.058 OA 
ENDROOT
BRANCH   3   6
HETATM    6  C   UNL     1      -9.109  14.115  67.423  1.00  0.00    -0.199 A  
HETATM    7  C   UNL     1     -10.195  14.686  66.704  1.00  0.00    -0.274 A  
HETATM    8  I   UNL     1     -10.841  16.706  67.116  1.00  0.00     0.173 I  
HETATM    9  C   UNL     1     -10.805  13.987  65.627  1.00  0.00    -0.295 A  
HETATM   10  C   UNL     1     -12.106  14.456  65.080  1.00  0.00    -0.415 C  
HETATM   11  C   UNL     1     -10.225  12.775  65.186  1.00  0.00    -0.278 A  
HETATM   12  C   UNL     1      -9.083  12.241  65.825  1.00  0.00     0.122 A  
HETATM   13  I   UNL     1     -11.049  11.668  63.530  1.00  0.00    -0.172 I  
HETATM   14  O   UNL     1     -12.120  14.665  63.749  1.00  0.00    -0.434 OA 
HETATM   15  O   UNL     1     -13.079  14.636  65.792  1.00  0.00    -0.092 OA 
HETATM   16  C   UNL     1      -8.609  12.864  66.997  1.00  0.00    -0.169 A  
HETATM   17  I   UNL     1      -7.443  11.631  68.361  1.00  0.00    -0.118 I  
BRANCH  12  18
HETATM   18  N   UNL     1      -8.560  11.018  65.346  1.00  0.00    -0.330 N  
HETATM   19  C   UNL     1      -8.929   9.737  65.661  1.00  0.00    -0.163 C  
HETATM   20  H   UNL     1      -7.800  11.102  64.671  1.00  0.00     0.000 HD 
HETATM   21  O   UNL     1      -8.202   8.821  65.275  1.00  0.00    -0.127 OA 
HETATM   22  C   UNL     1     -10.148   9.445  66.496  1.00  0.00    -0.332 C  
ENDBRANCH  12  18
ENDBRANCH   3   6
TORSDOF 2
ENDMDL
MODEL      145
REMARK 921   NORMALIZED FREE ENERGY PREDICTED BY IDOCK:   -2.79 KCAL/MOL
REMARK 922        TOTAL FREE ENERGY PREDICTED BY IDOCK:   -3.54 KCAL/MOL
REMARK 923 INTER-LIGAND FREE ENERGY PREDICTED BY IDOCK:   -3.08 KCAL/MOL
REMARK 924 INTRA-LIGAND FREE ENERGY PREDICTED BY IDOCK:   -0.46 KCAL/MOL
REMARK 927      BINDING AFFINITY PREDICTED BY RF-SCORE:    0.00 PKD
ROOT
HETATM    1  C   UNL     1      -9.334   2.957  72.502  1.00  0.00    -0.100 C  
HETATM    2  N   UNL     1      -9.604   4.036  71.584  1.00  0.00    -0.150 N  
HETATM    3  C   UNL     1      -8.616   4.923  71.165  1.00  0.00    -0.122 C  
HETATM    4  H   UNL     1     -10.553   4.153  71.229  1.00  0.00     0.000 HD 
HETATM    5  O   UNL     1      -7.447   4.835  71.516  1.00  0.00    -0.072 OA 
ENDROOT
BRANCH   3   6
HETATM    6  C   UNL     1      -9.070   6.024  70.258  1.00  0.00    -0.159 A  
HETATM    7  C   UNL     1      -9.655   7.209  70.784  1.00  0.00    -0.168 A  
HETATM    8  I   UNL     1      -9.593   7.613  72.906  1.00  0.00    -0.360 I  
HETATM    9  C   UNL     1     -10.192   8.204  69.922  1.00  0.00    -0.204 A  
HETATM   10  C   UNL     1     -11.050   9.284  70.478  1.00  0.00    -0.265 C  
HETATM   11  C   UNL     1     -10.009   8.066  68.527  1.00  0.00    -0.192 A  
HETATM   12  C   UNL     1      -9.340   6.942  67.989  1.00  0.00    -0.123 A  
HETATM   13  I   UNL     1     -10.744   9.545  67.143  1.00  0.00     0.112 I  
HETATM   14  O   UNL     1     -10.656  10.535  70.174  1.00  0.00    -0.246 OA 
HETATM   15  O   UNL     1     -12.032   9.043  71.160  1.00  0.00    -0.287 OA 
HETATM   16  C   UNL     1      -8.976   5.892  68.854  1.00  0.00    -0.118 A  
HETATM   17  I   UNL     1      -8.723   3.924  67.957  1.00  0.00    -0.170 I  
BRANCH  12  18
HETATM   18  N   UNL     1      -9.203   6.857  66.585  1.00  0.00    -0.153 N  
HETATM   19  C   UNL     1      -8.116   7.147  65.802  1.00  0.00    -0.130 C  
HETATM   20  H   UNL     1     -10.030   6.534  66.083  1.00  0.00     0.000 HD 
HETATM   21  O   UNL     1      -8.284   7.191  64.583  1.00  0.00    -0.112 OA 
HETATM   22  C   UNL     1      -6.769   7.458  66.399  1.00  0.00    -0.060 C  
ENDBRANCH  12  18
ENDBRANCH   3   6
TORSDOF 2
ENDMDL
MODEL      146
REMARK 921   NORMALIZED FREE ENERGY PREDICTED BY IDOCK:   -2.75 KCAL/MOL
REMARK 922        TOTAL FREE ENERGY PREDICTED BY IDOCK:   -3.50 KCAL/MOL
REMARK 923 INTER-LIGAND FREE ENERGY PREDICTED BY IDOCK:   -3.08 KCAL/MOL
REMARK 924 INTRA-LIGAND FREE ENERGY PREDICTED BY IDOCK:   -0.42 KCAL/MOL
REMARK 927      BINDING AFFINITY PREDICTED BY RF-SCORE:    0.00 PKD
ROOT
HETATM    1  C   UNL     1      -8.349  10.330  65.899  1.00  0.00    -0.145 C  
HETATM    2  N   UNL     1      -8.566   9.801  67.223  1.00  0.00    -0.128 N  
HETATM    3  C   UNL     1      -7.937   8.645  67.676  1.00  0.00    -0.107 C  
HETATM    4  H   UNL     1      -9.203  10.292  67.850  1.00  0.00     0.000 HD 
HETATM    5  O   UNL     1      -7.135   8.012  67.002  1.00  0.00    -0.078 OA 
ENDROOT
BRANCH   3   6
HETATM    6  C   UNL     1      -8.314   8.193  69.054  1.00  0.00    -0.128 A  
HETATM    7  C   UNL     1      -9.446   7.358  69.263  1.00  0.00    -0.154 A  
HETATM    8  I   UNL     1     -10.449   6.430  67.589  1.00  0.00    -0.443 I  
HETATM    9  C   UNL     1      -9.874   7.024  70.577  1.00  0.00    -0.184 A  
HETATM   10  C   UNL     1     -11.208   6.402  70.788  1.00  0.00    -0.327 C  
HETATM   11  C   UNL     1      -9.074   7.419  71.674  1.00  0.00    -0.130 A  
HETATM   12  C   UNL     1      -7.889   8.165  71.479  1.00  0.00    -0.108 A  
HETATM   13  I   UNL     1      -9.614   6.918  73.700  1.00  0.00    -0.338 I  
HETATM   14  O   UNL     1     -11.193   5.250  71.486  1.00  0.00    -0.042 OA 
HETATM   15  O   UNL     1     -12.232   6.903  70.354  1.00  0.00    -0.293 OA 
HETATM   16  C   UNL     1      -7.587   8.629  70.183  1.00  0.00    -0.069 A  
HETATM   17  I   UNL     1      -6.294  10.376  70.044  1.00  0.00    -0.140 I  
BRANCH  12  18
HETATM   18  N   UNL     1      -7.142   8.541  72.618  1.00  0.00    -0.070 N  
HETATM   19  C   UNL     1      -6.051   7.929  73.178  1.00  0.00    -0.066 C  
HETATM   20  H   UNL     1      -7.460   9.387  73.091  1.00  0.00     0.000 HD 
HETATM   21  O   UNL     1      -5.682   8.319  74.286  1.00  0.00    -0.091 OA 
HETATM   22  C   UNL     1      -5.350   6.782  72.500  1.00  0.00    -0.037 C  
ENDBRANCH  12  18
ENDBRANCH   3   6
TORSDOF 2
ENDMDL
MODEL      147
REMARK 921   NORMALIZED FREE ENERGY PREDICTED BY IDOCK:   -2.73 KCAL/MOL
REMARK 922        TOTAL FREE ENERGY PREDICTED BY IDOCK:   -3.47 KCAL/MOL
REMARK 923 INTER-LIGAND FREE ENERGY PREDICTED BY IDOCK:   -3.02 KCAL/MOL
REMARK 924 INTRA-LIGAND FREE ENERGY PREDICTED BY IDOCK:   -0.46 KCAL/MOL
REMARK 927      BINDING AFFINITY PREDICTED BY RF-SCORE:    0.00 PKD
ROOT
HETATM    1  C   UNL     1      -8.992  13.389  68.031  1.00  0.00    -0.190 C  
HETATM    2  N   UNL     1      -9.138  11.973  67.803  1.00  0.00    -0.179 N  
HETATM    3  C   UNL     1      -8.309  11.031  68.406  1.00  0.00    -0.139 C  
HETATM    4  H   UNL     1      -9.876  11.650  67.177  1.00  0.00     0.000 HD 
HETATM    5  O   UNL     1      -7.421  11.328  69.193  1.00  0.00    -0.120 OA 
ENDROOT
BRANCH   3   6
HETATM    6  C   UNL     1      -8.553   9.604  68.019  1.00  0.00    -0.119 A  
HETATM    7  C   UNL     1      -8.009   9.072  66.818  1.00  0.00    -0.107 A  
HETATM    8  I   UNL     1      -6.536  10.183  65.693  1.00  0.00    -0.116 I  
HETATM    9  C   UNL     1      -8.334   7.755  66.390  1.00  0.00    -0.131 A  
HETATM   10  C   UNL     1      -7.999   7.320  65.008  1.00  0.00    -0.129 C  
HETATM   11  C   UNL     1      -9.094   6.929  67.249  1.00  0.00    -0.124 A  
HETATM   12  C   UNL     1      -9.560   7.408  68.495  1.00  0.00    -0.146 A  
HETATM   13  I   UNL     1      -9.596   4.903  66.711  1.00  0.00    -0.253 I  
HETATM   14  O   UNL     1      -7.280   6.183  64.929  1.00  0.00    -0.058 OA 
HETATM   15  O   UNL     1      -8.352   7.952  64.028  1.00  0.00    -0.068 OA 
HETATM   16  C   UNL     1      -9.371   8.768  68.811  1.00  0.00    -0.141 A  
HETATM   17  I   UNL     1     -10.743   9.638  70.261  1.00  0.00    -0.397 I  
BRANCH  12  18
HETATM   18  N   UNL     1     -10.327   6.537  69.301  1.00  0.00    -0.189 N  
HETATM   19  C   UNL     1      -9.922   5.729  70.330  1.00  0.00    -0.198 C  
HETATM   20  H   UNL     1     -11.323   6.505  69.086  1.00  0.00     0.000 HD 
HETATM   21  O   UNL     1     -10.728   4.904  70.761  1.00  0.00    -0.086 OA 
HETATM   22  C   UNL     1      -8.526   5.796  70.890  1.00  0.00    -0.126 C  
ENDBRANCH  12  18
ENDBRANCH   3   6
TORSDOF 2
ENDMDL
MODEL      148
REMARK 921   NORMALIZED FREE ENERGY PREDICTED BY IDOCK:   -2.70 KCAL/MOL
REMARK 922        TOTAL FREE ENERGY PREDICTED BY IDOCK:   -3.45 KCAL/MOL
REMARK 923 INTER-LIGAND FREE ENERGY PREDICTED BY IDOCK:   -3.54 KCAL/MOL
REMARK 924 INTRA-LIGAND FREE ENERGY PREDICTED BY IDOCK:    0.09 KCAL/MOL
REMARK 927      BINDING AFFINITY PREDICTED BY RF-SCORE:    0.00 PKD
ROOT
HETATM    1  C   UNL     1     -12.953  13.928  70.844  1.00  0.00    -0.246 C  
HETATM    2  N   UNL     1     -11.613  13.676  70.377  1.00  0.00    -0.522 N  
HETATM    3  C   UNL     1     -11.308  13.532  69.026  1.00  0.00    -0.288 C  
HETATM    4  H   UNL     1     -10.860  13.600  71.061  1.00  0.00     0.000 HD 
HETATM    5  O   UNL     1     -12.143  13.639  68.138  1.00  0.00    -0.359 OA 
ENDROOT
BRANCH   3   6
HETATM    6  C   UNL     1      -9.879  13.214  68.709  1.00  0.00     0.005 A  
HETATM    7  C   UNL     1      -8.928  14.252  68.506  1.00  0.00    -0.185 A  
HETATM    8  I   UNL     1      -9.421  16.300  68.986  1.00  0.00    -0.176 I  
HETATM    9  C   UNL     1      -7.601  13.956  68.091  1.00  0.00    -0.134 A  
HETATM   10  C   UNL     1      -6.714  15.046  67.606  1.00  0.00    -0.177 C  
HETATM   11  C   UNL     1      -7.197  12.603  68.020  1.00  0.00    -0.112 A  
HETATM   12  C   UNL     1      -8.101  11.557  68.316  1.00  0.00    -0.148 A  
HETATM   13  I   UNL     1      -5.192  12.055  67.449  1.00  0.00    -0.070 I  
HETATM   14  O   UNL     1      -5.523  15.129  68.232  1.00  0.00    -0.104 OA 
HETATM   15  O   UNL     1      -7.049  15.803  66.712  1.00  0.00    -0.202 OA 
HETATM   16  C   UNL     1      -9.452  11.877  68.552  1.00  0.00    -0.148 A  
HETATM   17  I   UNL     1     -10.910  10.299  68.196  1.00  0.00    -0.289 I  
BRANCH  12  18
HETATM   18  N   UNL     1      -7.638  10.225  68.212  1.00  0.00    -0.090 N  
HETATM   19  C   UNL     1      -7.687   9.374  67.140  1.00  0.00    -0.091 C  
HETATM   20  H   UNL     1      -7.208   9.844  69.055  1.00  0.00     0.000 HD 
HETATM   21  O   UNL     1      -7.405   8.191  67.335  1.00  0.00    -0.086 OA 
HETATM   22  C   UNL     1      -8.120   9.840  65.775  1.00  0.00    -0.119 C  
ENDBRANCH  12  18
ENDBRANCH   3   6
TORSDOF 2
ENDMDL
MODEL      149
REMARK 921   NORMALIZED FREE ENERGY PREDICTED BY IDOCK:   -2.66 KCAL/MOL
REMARK 922        TOTAL FREE ENERGY PREDICTED BY IDOCK:   -3.40 KCAL/MOL
REMARK 923 INTER-LIGAND FREE ENERGY PREDICTED BY IDOCK:   -4.15 KCAL/MOL
REMARK 924 INTRA-LIGAND FREE ENERGY PREDICTED BY IDOCK:    0.75 KCAL/MOL
REMARK 927      BINDING AFFINITY PREDICTED BY RF-SCORE:    0.00 PKD
ROOT
HETATM    1  C   UNL     1      -7.491   7.605  67.873  1.00  0.00    -0.108 C  
HETATM    2  N   UNL     1      -8.371   8.464  68.626  1.00  0.00    -0.120 N  
HETATM    3  C   UNL     1      -9.713   8.632  68.295  1.00  0.00    -0.155 C  
HETATM    4  H   UNL     1      -7.996   8.968  69.430  1.00  0.00     0.000 HD 
HETATM    5  O   UNL     1     -10.251   8.043  67.368  1.00  0.00    -0.212 OA 
ENDROOT
BRANCH   3   6
HETATM    6  C   UNL     1     -10.476   9.605  69.139  1.00  0.00    -0.230 A  
HETATM    7  C   UNL     1     -11.388   9.151  70.132  1.00  0.00    -0.142 A  
HETATM    8  I   UNL     1     -11.446   7.066  70.697  1.00  0.00    -0.352 I  
HETATM    9  C   UNL     1     -12.199  10.069  70.854  1.00  0.00    -0.441 A  
HETATM   10  C   UNL     1     -13.339   9.572  71.669  1.00  0.00    -0.407 C  
HETATM   11  C   UNL     1     -11.985  11.455  70.671  1.00  0.00    -0.314 A  
HETATM   12  C   UNL     1     -11.012  11.927  69.760  1.00  0.00     0.161 A  
HETATM   13  I   UNL     1     -13.131  12.925  71.755  1.00  0.00    -0.135 I  
HETATM   14  O   UNL     1     -13.337   9.976  72.954  1.00  0.00     0.268 OA 
HETATM   15  O   UNL     1     -14.203   8.852  71.199  1.00  0.00    -0.238 OA 
HETATM   16  C   UNL     1     -10.350  10.997  68.935  1.00  0.00    -0.205 A  
HETATM   17  I   UNL     1      -9.522  11.756  67.069  1.00  0.00    -0.215 I  
BRANCH  12  18
HETATM   18  N   UNL     1     -10.858  13.324  69.612  1.00  0.00    -0.433 N  
HETATM   19  C   UNL     1     -11.248  14.133  68.577  1.00  0.00    -0.260 C  
HETATM   20  H   UNL     1     -10.390  13.797  70.385  1.00  0.00     0.000 HD 
HETATM   21  O   UNL     1     -10.833  15.292  68.569  1.00  0.00    -0.238 OA 
HETATM   22  C   UNL     1     -12.109  13.623  67.452  1.00  0.00    -0.375 C  
ENDBRANCH  12  18
ENDBRANCH   3   6
TORSDOF 2
ENDMDL
MODEL      150
REMARK 921   NORMALIZED FREE ENERGY PREDICTED BY IDOCK:   -2.65 KCAL/MOL
REMARK 922        TOTAL FREE ENERGY PREDICTED BY IDOCK:   -3.39 KCAL/MOL
REMARK 923 INTER-LIGAND FREE ENERGY PREDICTED BY IDOCK:   -2.94 KCAL/MOL
REMARK 924 INTRA-LIGAND FREE ENERGY PREDICTED BY IDOCK:   -0.45 KCAL/MOL
REMARK 927      BINDING AFFINITY PREDICTED BY RF-SCORE:    0.00 PKD
ROOT
HETATM    1  C   UNL     1     -10.770   4.447  64.949  1.00  0.00    -0.073 C  
HETATM    2  N   UNL     1     -10.457   5.112  66.190  1.00  0.00    -0.412 N  
HETATM    3  C   UNL     1      -9.148   5.354  66.597  1.00  0.00    -0.124 C  
HETATM    4  H   UNL     1     -11.223   5.416  66.791  1.00  0.00     0.000 HD 
HETATM    5  O   UNL     1      -8.172   5.051  65.925  1.00  0.00    -0.110 OA 
ENDROOT
BRANCH   3   6
HETATM    6  C   UNL     1      -8.991   6.000  67.940  1.00  0.00    -0.118 A  
HETATM    7  C   UNL     1      -9.013   5.223  69.130  1.00  0.00    -0.103 A  
HETATM    8  I   UNL     1      -8.921   3.066  69.034  1.00  0.00    -0.227 I  
HETATM    9  C   UNL     1      -8.981   5.844  70.409  1.00  0.00    -0.154 A  
HETATM   10  C   UNL     1      -9.294   5.052  71.628  1.00  0.00    -0.148 C  
HETATM   11  C   UNL     1      -8.784   7.242  70.481  1.00  0.00    -0.148 A  
HETATM   12  C   UNL     1      -8.660   8.021  69.307  1.00  0.00    -0.137 A  
HETATM   13  I   UNL     1      -8.673   8.269  72.373  1.00  0.00    -0.218 I  
HETATM   14  O   UNL     1      -8.356   5.102  72.594  1.00  0.00    -0.112 OA 
HETATM   15  O   UNL     1     -10.323   4.407  71.733  1.00  0.00    -0.161 OA 
HETATM   16  C   UNL     1      -8.871   7.402  68.059  1.00  0.00    -0.126 A  
HETATM   17  I   UNL     1      -9.473   8.695  66.413  1.00  0.00    -0.289 I  
BRANCH  12  18
HETATM   18  N   UNL     1      -8.479   9.416  69.447  1.00  0.00    -0.133 N  
HETATM   19  C   UNL     1      -7.322  10.147  69.405  1.00  0.00    -0.106 C  
HETATM   20  H   UNL     1      -9.332   9.954  69.602  1.00  0.00     0.000 HD 
HETATM   21  O   UNL     1      -7.377  11.327  69.751  1.00  0.00     0.001 OA 
HETATM   22  C   UNL     1      -6.008   9.530  69.004  1.00  0.00    -0.042 C  
ENDBRANCH  12  18
ENDBRANCH   3   6
TORSDOF 2
ENDMDL
MODEL      151
REMARK 921   NORMALIZED FREE ENERGY PREDICTED BY IDOCK:   -2.63 KCAL/MOL
REMARK 922        TOTAL FREE ENERGY PREDICTED BY IDOCK:   -3.37 KCAL/MOL
REMARK 923 INTER-LIGAND FREE ENERGY PREDICTED BY IDOCK:   -2.91 KCAL/MOL
REMARK 924 INTRA-LIGAND FREE ENERGY PREDICTED BY IDOCK:   -0.46 KCAL/MOL
REMARK 927      BINDING AFFINITY PREDICTED BY RF-SCORE:    0.00 PKD
ROOT
HETATM    1  C   UNL     1      -8.716   2.706  65.991  1.00  0.00    -0.128 C  
HETATM    2  N   UNL     1      -8.384   3.943  66.654  1.00  0.00    -0.103 N  
HETATM    3  C   UNL     1      -9.307   4.971  66.820  1.00  0.00    -0.135 C  
HETATM    4  H   UNL     1      -7.438   4.068  67.015  1.00  0.00     0.000 HD 
HETATM    5  O   UNL     1     -10.469   4.892  66.446  1.00  0.00    -0.283 OA 
ENDROOT
BRANCH   3   6
HETATM    6  C   UNL     1      -8.789   6.214  67.475  1.00  0.00    -0.106 A  
HETATM    7  C   UNL     1      -7.981   7.137  66.755  1.00  0.00    -0.108 A  
HETATM    8  I   UNL     1      -7.763   6.962  64.612  1.00  0.00    -0.094 I  
HETATM    9  C   UNL     1      -7.393   8.255  67.405  1.00  0.00    -0.092 A  
HETATM   10  C   UNL     1      -6.330   9.038  66.721  1.00  0.00    -0.063 C  
HETATM   11  C   UNL     1      -7.737   8.519  68.751  1.00  0.00    -0.102 A  
HETATM   12  C   UNL     1      -8.620   7.668  69.456  1.00  0.00    -0.132 A  
HETATM   13  I   UNL     1      -6.935  10.218  69.808  1.00  0.00    -0.147 I  
HETATM   14  O   UNL     1      -6.561  10.363  66.643  1.00  0.00    -0.072 OA 
HETATM   15  O   UNL     1      -5.330   8.510  66.265  1.00  0.00    -0.030 OA 
HETATM   16  C   UNL     1      -9.046   6.474  68.840  1.00  0.00    -0.131 A  
HETATM   17  I   UNL     1      -9.683   4.863  70.159  1.00  0.00    -0.324 I  
BRANCH  12  18
HETATM   18  N   UNL     1      -8.912   7.978  70.804  1.00  0.00    -0.142 N  
HETATM   19  C   UNL     1     -10.003   8.621  71.326  1.00  0.00    -0.246 C  
HETATM   20  H   UNL     1      -8.212   7.682  71.483  1.00  0.00     0.000 HD 
HETATM   21  O   UNL     1      -9.955   8.961  72.508  1.00  0.00    -0.184 OA 
HETATM   22  C   UNL     1     -11.206   8.956  70.483  1.00  0.00    -0.287 C  
ENDBRANCH  12  18
ENDBRANCH   3   6
TORSDOF 2
ENDMDL
MODEL      152
REMARK 921   NORMALIZED FREE ENERGY PREDICTED BY IDOCK:   -2.62 KCAL/MOL
REMARK 922        TOTAL FREE ENERGY PREDICTED BY IDOCK:   -3.35 KCAL/MOL
REMARK 923 INTER-LIGAND FREE ENERGY PREDICTED BY IDOCK:   -2.91 KCAL/MOL
REMARK 924 INTRA-LIGAND FREE ENERGY PREDICTED BY IDOCK:   -0.44 KCAL/MOL
REMARK 927      BINDING AFFINITY PREDICTED BY RF-SCORE:    0.00 PKD
ROOT
HETATM    1  C   UNL     1     -12.939   9.686  72.322  1.00  0.00    -0.356 C  
HETATM    2  N   UNL     1     -11.728   9.201  71.708  1.00  0.00    -0.369 N  
HETATM    3  C   UNL     1     -11.708   8.081  70.881  1.00  0.00    -0.251 C  
HETATM    4  H   UNL     1     -10.855   9.696  71.886  1.00  0.00     0.000 HD 
HETATM    5  O   UNL     1     -12.713   7.447  70.590  1.00  0.00    -0.080 OA 
ENDROOT
BRANCH   3   6
HETATM    6  C   UNL     1     -10.361   7.670  70.371  1.00  0.00    -0.214 A  
HETATM    7  C   UNL     1      -9.515   6.826  71.141  1.00  0.00    -0.163 A  
HETATM    8  I   UNL     1     -10.272   5.826  72.901  1.00  0.00    -0.265 I  
HETATM    9  C   UNL     1      -8.192   6.530  70.712  1.00  0.00    -0.125 A  
HETATM   10  C   UNL     1      -7.231   5.895  71.652  1.00  0.00    -0.087 C  
HETATM   11  C   UNL     1      -7.776   6.973  69.436  1.00  0.00    -0.108 A  
HETATM   12  C   UNL     1      -8.640   7.730  68.611  1.00  0.00    -0.129 A  
HETATM   13  I   UNL     1      -5.807   6.533  68.677  1.00  0.00    -0.023 I  
HETATM   14  O   UNL     1      -6.652   4.767  71.196  1.00  0.00    -0.025 OA 
HETATM   15  O   UNL     1      -6.996   6.365  72.752  1.00  0.00    -0.073 OA 
HETATM   16  C   UNL     1      -9.876   8.155  69.135  1.00  0.00    -0.182 A  
HETATM   17  I   UNL     1     -10.776   9.915  68.223  1.00  0.00    -0.208 I  
BRANCH  12  18
HETATM   18  N   UNL     1      -8.158   8.156  67.352  1.00  0.00    -0.120 N  
HETATM   19  C   UNL     1      -8.406   7.635  66.110  1.00  0.00    -0.134 C  
HETATM   20  H   UNL     1      -7.537   8.964  67.372  1.00  0.00     0.000 HD 
HETATM   21  O   UNL     1      -7.721   8.041  65.171  1.00  0.00    -0.092 OA 
HETATM   22  C   UNL     1      -9.440   6.561  65.891  1.00  0.00     0.089 C  
ENDBRANCH  12  18
ENDBRANCH   3   6
TORSDOF 2
ENDMDL
MODEL      153
REMARK 921   NORMALIZED FREE ENERGY PREDICTED BY IDOCK:   -2.61 KCAL/MOL
REMARK 922        TOTAL FREE ENERGY PREDICTED BY IDOCK:   -3.34 KCAL/MOL
REMARK 923 INTER-LIGAND FREE ENERGY PREDICTED BY IDOCK:   -2.84 KCAL/MOL
REMARK 924 INTRA-LIGAND FREE ENERGY PREDICTED BY IDOCK:   -0.50 KCAL/MOL
REMARK 927      BINDING AFFINITY PREDICTED BY RF-SCORE:    0.00 PKD
ROOT
HETATM    1  C   UNL     1      -8.823   7.440  71.050  1.00  0.00    -0.143 C  
HETATM    2  N   UNL     1      -8.538   7.544  69.641  1.00  0.00    -0.136 N  
HETATM    3  C   UNL     1      -9.541   7.555  68.676  1.00  0.00    -0.151 C  
HETATM    4  H   UNL     1      -7.565   7.611  69.340  1.00  0.00     0.000 HD 
HETATM    5  O   UNL     1     -10.732   7.509  68.949  1.00  0.00    -0.197 OA 
ENDROOT
BRANCH   3   6
HETATM    6  C   UNL     1      -9.077   7.607  67.252  1.00  0.00    -0.142 A  
HETATM    7  C   UNL     1      -9.100   8.827  66.522  1.00  0.00    -0.162 A  
HETATM    8  I   UNL     1      -9.469  10.702  67.530  1.00  0.00    -0.183 I  
HETATM    9  C   UNL     1      -8.771   8.856  65.139  1.00  0.00    -0.213 A  
HETATM   10  C   UNL     1      -9.076  10.065  64.328  1.00  0.00    -0.255 C  
HETATM   11  C   UNL     1      -8.282   7.677  64.531  1.00  0.00    -0.049 A  
HETATM   12  C   UNL     1      -8.156   6.477  65.268  1.00  0.00    -0.133 A  
HETATM   13  I   UNL     1      -7.710   7.634  62.453  1.00  0.00    -0.124 I  
HETATM   14  O   UNL     1      -8.028  10.574  63.651  1.00  0.00    -0.126 OA 
HETATM   15  O   UNL     1     -10.192  10.552  64.289  1.00  0.00    -0.344 OA 
HETATM   16  C   UNL     1      -8.655   6.436  66.585  1.00  0.00    -0.121 A  
HETATM   17  I   UNL     1      -9.191   4.476  67.370  1.00  0.00    -0.205 I  
BRANCH  12  18
HETATM   18  N   UNL     1      -7.675   5.329  64.597  1.00  0.00    -0.083 N  
HETATM   19  C   UNL     1      -6.413   4.795  64.593  1.00  0.00    -0.039 C  
HETATM   20  H   UNL     1      -8.364   4.828  64.037  1.00  0.00     0.000 HD 
HETATM   21  O   UNL     1      -6.171   3.904  63.779  1.00  0.00    -0.020 OA 
HETATM   22  C   UNL     1      -5.332   5.306  65.509  1.00  0.00    -0.013 C  
ENDBRANCH  12  18
ENDBRANCH   3   6
TORSDOF 2
ENDMDL
MODEL      154
REMARK 921   NORMALIZED FREE ENERGY PREDICTED BY IDOCK:   -2.60 KCAL/MOL
REMARK 922        TOTAL FREE ENERGY PREDICTED BY IDOCK:   -3.34 KCAL/MOL
REMARK 923 INTER-LIGAND FREE ENERGY PREDICTED BY IDOCK:   -2.93 KCAL/MOL
REMARK 924 INTRA-LIGAND FREE ENERGY PREDICTED BY IDOCK:   -0.40 KCAL/MOL
REMARK 927      BINDING AFFINITY PREDICTED BY RF-SCORE:    0.00 PKD
ROOT
HETATM    1  C   UNL     1     -10.470   9.926  67.657  1.00  0.00    -0.244 C  
HETATM    2  N   UNL     1     -10.038   8.722  68.322  1.00  0.00    -0.181 N  
HETATM    3  C   UNL     1     -10.552   7.469  68.002  1.00  0.00    -0.155 C  
HETATM    4  H   UNL     1      -9.329   8.792  69.052  1.00  0.00     0.000 HD 
HETATM    5  O   UNL     1     -11.379   7.291  67.119  1.00  0.00    -0.075 OA 
ENDROOT
BRANCH   3   6
HETATM    6  C   UNL     1     -10.043   6.326  68.826  1.00  0.00    -0.191 A  
HETATM    7  C   UNL     1      -9.151   5.367  68.271  1.00  0.00    -0.109 A  
HETATM    8  I   UNL     1      -8.228   5.711  66.348  1.00  0.00    -0.114 I  
HETATM    9  C   UNL     1      -8.759   4.219  69.013  1.00  0.00    -0.119 A  
HETATM   10  C   UNL     1      -8.070   3.092  68.329  1.00  0.00    -0.069 C  
HETATM   11  C   UNL     1      -9.157   4.115  70.366  1.00  0.00    -0.110 A  
HETATM   12  C   UNL     1      -9.963   5.110  70.966  1.00  0.00    -0.206 A  
HETATM   13  I   UNL     1      -8.573   2.437  71.586  1.00  0.00    -0.122 I  
HETATM   14  O   UNL     1      -6.900   2.722  68.885  1.00  0.00    -0.036 OA 
HETATM   15  O   UNL     1      -8.537   2.554  67.340  1.00  0.00    -0.090 OA 
HETATM   16  C   UNL     1     -10.478   6.142  70.158  1.00  0.00    -0.231 A  
HETATM   17  I   UNL     1     -12.286   7.131  70.863  1.00  0.00    -0.131 I  
BRANCH  12  18
HETATM   18  N   UNL     1     -10.338   4.939  72.318  1.00  0.00    -0.202 N  
HETATM   19  C   UNL     1      -9.877   5.589  73.433  1.00  0.00    -0.162 C  
HETATM   20  H   UNL     1     -11.054   4.233  72.487  1.00  0.00     0.000 HD 
HETATM   21  O   UNL     1     -10.201   5.139  74.532  1.00  0.00    -0.234 OA 
HETATM   22  C   UNL     1      -8.960   6.779  73.335  1.00  0.00    -0.149 C  
ENDBRANCH  12  18
ENDBRANCH   3   6
TORSDOF 2
ENDMDL
MODEL      155
REMARK 921   NORMALIZED FREE ENERGY PREDICTED BY IDOCK:   -2.58 KCAL/MOL
REMARK 922        TOTAL FREE ENERGY PREDICTED BY IDOCK:   -3.31 KCAL/MOL
REMARK 923 INTER-LIGAND FREE ENERGY PREDICTED BY IDOCK:   -2.89 KCAL/MOL
REMARK 924 INTRA-LIGAND FREE ENERGY PREDICTED BY IDOCK:   -0.42 KCAL/MOL
REMARK 927      BINDING AFFINITY PREDICTED BY RF-SCORE:    0.00 PKD
ROOT
HETATM    1  C   UNL     1     -10.739   4.833  66.057  1.00  0.00    -0.158 C  
HETATM    2  N   UNL     1     -10.243   5.458  67.258  1.00  0.00    -0.199 N  
HETATM    3  C   UNL     1      -8.905   5.389  67.636  1.00  0.00    -0.105 C  
HETATM    4  H   UNL     1     -10.896   5.969  67.852  1.00  0.00     0.000 HD 
HETATM    5  O   UNL     1      -8.050   4.825  66.968  1.00  0.00    -0.105 OA 
ENDROOT
BRANCH   3   6
HETATM    6  C   UNL     1      -8.562   6.039  68.942  1.00  0.00    -0.116 A  
HETATM    7  C   UNL     1      -7.841   7.265  68.979  1.00  0.00    -0.118 A  
HETATM    8  I   UNL     1      -7.522   8.406  67.172  1.00  0.00    -0.089 I  
HETATM    9  C   UNL     1      -7.413   7.822  70.215  1.00  0.00    -0.079 A  
HETATM   10  C   UNL     1      -6.424   8.933  70.226  1.00  0.00    -0.041 C  
HETATM   11  C   UNL     1      -7.837   7.215  71.419  1.00  0.00    -0.097 A  
HETATM   12  C   UNL     1      -8.640   6.050  71.403  1.00  0.00    -0.129 A  
HETATM   13  I   UNL     1      -7.281   8.015  73.342  1.00  0.00    -0.153 I  
HETATM   14  O   UNL     1      -6.806  10.027  70.913  1.00  0.00    -0.322 OA 
HETATM   15  O   UNL     1      -5.353   8.850  69.650  1.00  0.00    -0.030 OA 
HETATM   16  C   UNL     1      -8.899   5.424  70.168  1.00  0.00    -0.127 A  
HETATM   17  I   UNL     1      -9.392   3.304  70.228  1.00  0.00    -0.156 I  
BRANCH  12  18
HETATM   18  N   UNL     1      -9.018   5.483  72.641  1.00  0.00    -0.129 N  
HETATM   19  C   UNL     1     -10.237   5.503  73.265  1.00  0.00    -0.195 C  
HETATM   20  H   UNL     1      -8.278   4.989  73.140  1.00  0.00     0.000 HD 
HETATM   21  O   UNL     1     -10.288   5.116  74.433  1.00  0.00    -0.251 OA 
HETATM   22  C   UNL     1     -11.471   6.028  72.580  1.00  0.00    -0.297 C  
ENDBRANCH  12  18
ENDBRANCH   3   6
TORSDOF 2
ENDMDL
MODEL      156
REMARK 921   NORMALIZED FREE ENERGY PREDICTED BY IDOCK:   -2.58 KCAL/MOL
REMARK 922        TOTAL FREE ENERGY PREDICTED BY IDOCK:   -3.31 KCAL/MOL
REMARK 923 INTER-LIGAND FREE ENERGY PREDICTED BY IDOCK:   -2.96 KCAL/MOL
REMARK 924 INTRA-LIGAND FREE ENERGY PREDICTED BY IDOCK:   -0.36 KCAL/MOL
REMARK 927      BINDING AFFINITY PREDICTED BY RF-SCORE:    0.00 PKD
ROOT
HETATM    1  C   UNL     1      -7.206   1.724  68.099  1.00  0.00    -0.043 C  
HETATM    2  N   UNL     1      -7.491   3.109  68.381  1.00  0.00    -0.049 N  
HETATM    3  C   UNL     1      -8.746   3.541  68.801  1.00  0.00    -0.099 C  
HETATM    4  H   UNL     1      -6.746   3.796  68.268  1.00  0.00     0.000 HD 
HETATM    5  O   UNL     1      -9.685   2.781  68.992  1.00  0.00    -0.055 OA 
ENDROOT
BRANCH   3   6
HETATM    6  C   UNL     1      -8.896   5.019  68.994  1.00  0.00    -0.112 A  
HETATM    7  C   UNL     1      -9.311   5.856  67.922  1.00  0.00    -0.107 A  
HETATM    8  I   UNL     1     -10.070   4.997  66.090  1.00  0.00    -0.228 I  
HETATM    9  C   UNL     1      -9.341   7.270  68.069  1.00  0.00    -0.130 A  
HETATM   10  C   UNL     1      -9.493   8.138  66.871  1.00  0.00    -0.191 C  
HETATM   11  C   UNL     1      -9.090   7.827  69.344  1.00  0.00    -0.146 A  
HETATM   12  C   UNL     1      -8.774   7.002  70.448  1.00  0.00    -0.147 A  
HETATM   13  I   UNL     1      -9.162   9.955  69.678  1.00  0.00    -0.175 I  
HETATM   14  O   UNL     1     -10.504   9.026  66.937  1.00  0.00    -0.260 OA 
HETATM   15  O   UNL     1      -8.753   8.043  65.906  1.00  0.00    -0.148 OA 
HETATM   16  C   UNL     1      -8.579   5.624  70.231  1.00  0.00    -0.131 A  
HETATM   17  I   UNL     1      -7.346   4.567  71.681  1.00  0.00    -0.069 I  
BRANCH  12  18
HETATM   18  N   UNL     1      -8.519   7.622  71.693  1.00  0.00    -0.106 N  
HETATM   19  C   UNL     1      -9.382   7.877  72.726  1.00  0.00    -0.234 C  
HETATM   20  H   UNL     1      -7.556   7.922  71.843  1.00  0.00     0.000 HD 
HETATM   21  O   UNL     1      -8.987   8.608  73.634  1.00  0.00    -0.170 OA 
HETATM   22  C   UNL     1     -10.787   7.336  72.737  1.00  0.00    -0.356 C  
ENDBRANCH  12  18
ENDBRANCH   3   6
TORSDOF 2
ENDMDL
MODEL      157
REMARK 921   NORMALIZED FREE ENERGY PREDICTED BY IDOCK:   -2.58 KCAL/MOL
REMARK 922        TOTAL FREE ENERGY PREDICTED BY IDOCK:   -3.31 KCAL/MOL
REMARK 923 INTER-LIGAND FREE ENERGY PREDICTED BY IDOCK:   -2.90 KCAL/MOL
REMARK 924 INTRA-LIGAND FREE ENERGY PREDICTED BY IDOCK:   -0.41 KCAL/MOL
REMARK 927      BINDING AFFINITY PREDICTED BY RF-SCORE:    0.00 PKD
ROOT
HETATM    1  C   UNL     1      -7.669   3.290  74.562  1.00  0.00    -0.057 C  
HETATM    2  N   UNL     1      -8.209   3.823  73.336  1.00  0.00    -0.087 N  
HETATM    3  C   UNL     1      -7.516   4.743  72.554  1.00  0.00    -0.085 C  
HETATM    4  H   UNL     1      -9.131   3.514  73.030  1.00  0.00     0.000 HD 
HETATM    5  O   UNL     1      -6.393   5.142  72.830  1.00  0.00    -0.043 OA 
ENDROOT
BRANCH   3   6
HETATM    6  C   UNL     1      -8.238   5.245  71.342  1.00  0.00    -0.116 A  
HETATM    7  C   UNL     1      -9.193   6.294  71.445  1.00  0.00    -0.149 A  
HETATM    8  I   UNL     1      -9.381   7.432  73.272  1.00  0.00    -0.332 I  
HETATM    9  C   UNL     1      -9.964   6.693  70.318  1.00  0.00    -0.191 A  
HETATM   10  C   UNL     1     -11.146   7.576  70.502  1.00  0.00    -0.259 C  
HETATM   11  C   UNL     1      -9.668   6.127  69.057  1.00  0.00    -0.135 A  
HETATM   12  C   UNL     1      -8.652   5.154  68.916  1.00  0.00    -0.090 A  
HETATM   13  I   UNL     1     -10.748   6.703  67.282  1.00  0.00    -0.425 I  
HETATM   14  O   UNL     1     -11.146   8.690  69.745  1.00  0.00    -0.190 OA 
HETATM   15  O   UNL     1     -12.041   7.303  71.284  1.00  0.00    -0.307 OA 
HETATM   16  C   UNL     1      -8.028   4.654  70.077  1.00  0.00    -0.064 A  
HETATM   17  I   UNL     1      -7.123   2.679  69.930  1.00  0.00    -0.032 I  
BRANCH  12  18
HETATM   18  N   UNL     1      -8.415   4.617  67.630  1.00  0.00    -0.103 N  
HETATM   19  C   UNL     1      -7.563   5.057  66.652  1.00  0.00    -0.088 C  
HETATM   20  H   UNL     1      -8.955   3.784  67.398  1.00  0.00     0.000 HD 
HETATM   21  O   UNL     1      -7.665   4.552  65.534  1.00  0.00    -0.088 OA 
HETATM   22  C   UNL     1      -6.567   6.158  66.905  1.00  0.00    -0.059 C  
ENDBRANCH  12  18
ENDBRANCH   3   6
TORSDOF 2
ENDMDL
MODEL      158
REMARK 921   NORMALIZED FREE ENERGY PREDICTED BY IDOCK:   -2.57 KCAL/MOL
REMARK 922        TOTAL FREE ENERGY PREDICTED BY IDOCK:   -3.30 KCAL/MOL
REMARK 923 INTER-LIGAND FREE ENERGY PREDICTED BY IDOCK:   -3.32 KCAL/MOL
REMARK 924 INTRA-LIGAND FREE ENERGY PREDICTED BY IDOCK:    0.02 KCAL/MOL
REMARK 927      BINDING AFFINITY PREDICTED BY RF-SCORE:    0.00 PKD
ROOT
HETATM    1  C   UNL     1     -10.717  10.612  63.502  1.00  0.00     0.401 C  
HETATM    2  N   UNL     1     -10.026  11.651  64.224  1.00  0.00    -0.262 N  
HETATM    3  C   UNL     1     -10.081  11.758  65.611  1.00  0.00    -0.243 C  
HETATM    4  H   UNL     1      -9.476  12.332  63.700  1.00  0.00     0.000 HD 
HETATM    5  O   UNL     1     -10.689  10.967  66.319  1.00  0.00    -0.243 OA 
ENDROOT
BRANCH   3   6
HETATM    6  C   UNL     1      -9.358  12.928  66.205  1.00  0.00    -0.148 A  
HETATM    7  C   UNL     1      -8.159  12.744  66.948  1.00  0.00     0.014 A  
HETATM    8  I   UNL     1      -7.154  10.830  66.953  1.00  0.00    -0.135 I  
HETATM    9  C   UNL     1      -7.535  13.836  67.610  1.00  0.00    -0.187 A  
HETATM   10  C   UNL     1      -6.462  13.585  68.609  1.00  0.00    -0.094 C  
HETATM   11  C   UNL     1      -8.045  15.139  67.402  1.00  0.00    -0.186 A  
HETATM   12  C   UNL     1      -9.178  15.354  66.584  1.00  0.00    -0.275 A  
HETATM   13  I   UNL     1      -7.138  16.864  68.323  1.00  0.00    -0.215 I  
HETATM   14  O   UNL     1      -5.312  14.249  68.386  1.00  0.00    -0.093 OA 
HETATM   15  O   UNL     1      -6.622  12.831  69.553  1.00  0.00    -0.103 OA 
HETATM   16  C   UNL     1      -9.876  14.236  66.086  1.00  0.00    -0.316 A  
HETATM   17  I   UNL     1     -11.969  14.539  65.565  1.00  0.00    -0.168 I  
BRANCH  12  18
HETATM   18  N   UNL     1      -9.647  16.679  66.429  1.00  0.00    -0.269 N  
HETATM   19  C   UNL     1     -10.501  17.393  67.227  1.00  0.00    -0.321 C  
HETATM   20  H   UNL     1      -9.301  17.171  65.606  1.00  0.00     0.000 HD 
HETATM   21  O   UNL     1     -10.930  18.462  66.793  1.00  0.00    -0.186 OA 
HETATM   22  C   UNL     1     -10.952  16.878  68.568  1.00  0.00    -0.290 C  
ENDBRANCH  12  18
ENDBRANCH   3   6
TORSDOF 2
ENDMDL
MODEL      159
REMARK 921   NORMALIZED FREE ENERGY PREDICTED BY IDOCK:   -2.55 KCAL/MOL
REMARK 922        TOTAL FREE ENERGY PREDICTED BY IDOCK:   -3.28 KCAL/MOL
REMARK 923 INTER-LIGAND FREE ENERGY PREDICTED BY IDOCK:   -2.92 KCAL/MOL
REMARK 924 INTRA-LIGAND FREE ENERGY PREDICTED BY IDOCK:   -0.36 KCAL/MOL
REMARK 927      BINDING AFFINITY PREDICTED BY RF-SCORE:    0.00 PKD
ROOT
HETATM    1  C   UNL     1     -10.624   4.820  66.064  1.00  0.00    -0.254 C  
HETATM    2  N   UNL     1     -10.310   5.108  67.441  1.00  0.00    -0.177 N  
HETATM    3  C   UNL     1      -9.015   5.392  67.867  1.00  0.00    -0.108 C  
HETATM    4  H   UNL     1     -11.063   5.103  68.128  1.00  0.00     0.000 HD 
HETATM    5  O   UNL     1      -8.059   5.450  67.106  1.00  0.00    -0.101 OA 
ENDROOT
BRANCH   3   6
HETATM    6  C   UNL     1      -8.845   5.610  69.339  1.00  0.00    -0.114 A  
HETATM    7  C   UNL     1      -9.003   6.904  69.908  1.00  0.00    -0.142 A  
HETATM    8  I   UNL     1      -9.829   8.523  68.740  1.00  0.00    -0.202 I  
HETATM    9  C   UNL     1      -8.728   7.135  71.284  1.00  0.00    -0.128 A  
HETATM   10  C   UNL     1      -8.616   8.527  71.796  1.00  0.00    -0.190 C  
HETATM   11  C   UNL     1      -8.433   6.029  72.114  1.00  0.00    -0.124 A  
HETATM   12  C   UNL     1      -8.370   4.719  71.585  1.00  0.00    -0.110 A  
HETATM   13  I   UNL     1      -8.051   6.272  74.221  1.00  0.00    -0.131 I  
HETATM   14  O   UNL     1      -9.408   8.811  72.848  1.00  0.00    -0.242 OA 
HETATM   15  O   UNL     1      -7.862   9.342  71.291  1.00  0.00    -0.322 OA 
HETATM   16  C   UNL     1      -8.473   4.546  70.191  1.00  0.00    -0.073 A  
HETATM   17  I   UNL     1      -7.588   2.739  69.359  1.00  0.00    -0.050 I  
BRANCH  12  18
HETATM   18  N   UNL     1      -8.055   3.658  72.465  1.00  0.00    -0.076 N  
HETATM   19  C   UNL     1      -8.897   2.818  73.144  1.00  0.00    -0.079 C  
HETATM   20  H   UNL     1      -7.059   3.496  72.615  1.00  0.00     0.000 HD 
HETATM   21  O   UNL     1      -8.407   2.095  74.011  1.00  0.00    -0.057 OA 
HETATM   22  C   UNL     1     -10.382   2.807  72.890  1.00  0.00    -0.238 C  
ENDBRANCH  12  18
ENDBRANCH   3   6
TORSDOF 2
ENDMDL
MODEL      160
REMARK 921   NORMALIZED FREE ENERGY PREDICTED BY IDOCK:   -2.55 KCAL/MOL
REMARK 922        TOTAL FREE ENERGY PREDICTED BY IDOCK:   -3.27 KCAL/MOL
REMARK 923 INTER-LIGAND FREE ENERGY PREDICTED BY IDOCK:   -2.93 KCAL/MOL
REMARK 924 INTRA-LIGAND FREE ENERGY PREDICTED BY IDOCK:   -0.35 KCAL/MOL
REMARK 927      BINDING AFFINITY PREDICTED BY RF-SCORE:    0.00 PKD
ROOT
HETATM    1  C   UNL     1      -8.249  17.054  67.641  1.00  0.00    -0.185 C  
HETATM    2  N   UNL     1      -8.621  15.665  67.551  1.00  0.00    -0.166 N  
HETATM    3  C   UNL     1      -8.481  14.784  68.620  1.00  0.00    -0.167 C  
HETATM    4  H   UNL     1      -9.002  15.314  66.672  1.00  0.00     0.000 HD 
HETATM    5  O   UNL     1      -8.063  15.127  69.718  1.00  0.00    -0.179 OA 
ENDROOT
BRANCH   3   6
HETATM    6  C   UNL     1      -8.857  13.360  68.347  1.00  0.00    -0.133 A  
HETATM    7  C   UNL     1      -7.902  12.439  67.835  1.00  0.00    -0.145 A  
HETATM    8  I   UNL     1      -5.805  12.958  67.764  1.00  0.00    -0.080 I  
HETATM    9  C   UNL     1      -8.284  11.120  67.466  1.00  0.00    -0.119 A  
HETATM   10  C   UNL     1      -7.355  10.273  66.672  1.00  0.00    -0.109 C  
HETATM   11  C   UNL     1      -9.601  10.690  67.747  1.00  0.00    -0.157 A  
HETATM   12  C   UNL     1     -10.538  11.561  68.348  1.00  0.00    -0.201 A  
HETATM   13  I   UNL     1     -10.261   8.694  67.269  1.00  0.00    -0.332 I  
HETATM   14  O   UNL     1      -7.093   9.064  67.206  1.00  0.00    -0.078 OA 
HETATM   15  O   UNL     1      -6.872  10.654  65.620  1.00  0.00    -0.131 OA 
HETATM   16  C   UNL     1     -10.182  12.911  68.541  1.00  0.00    -0.205 A  
HETATM   17  I   UNL     1     -11.814  14.346  68.678  1.00  0.00    -0.255 I  
BRANCH  12  18
HETATM   18  N   UNL     1     -11.843  11.075  68.590  1.00  0.00    -0.373 N  
HETATM   19  C   UNL     1     -12.441  10.755  69.780  1.00  0.00    -0.162 C  
HETATM   20  H   UNL     1     -12.422  10.943  67.760  1.00  0.00     0.000 HD 
HETATM   21  O   UNL     1     -13.517  10.159  69.738  1.00  0.00     0.357 OA 
HETATM   22  C   UNL     1     -11.791  11.065  71.103  1.00  0.00    -0.105 C  
ENDBRANCH  12  18
ENDBRANCH   3   6
TORSDOF 2
ENDMDL
MODEL      161
REMARK 921   NORMALIZED FREE ENERGY PREDICTED BY IDOCK:   -2.51 KCAL/MOL
REMARK 922        TOTAL FREE ENERGY PREDICTED BY IDOCK:   -3.23 KCAL/MOL
REMARK 923 INTER-LIGAND FREE ENERGY PREDICTED BY IDOCK:   -2.87 KCAL/MOL
REMARK 924 INTRA-LIGAND FREE ENERGY PREDICTED BY IDOCK:   -0.36 KCAL/MOL
REMARK 927      BINDING AFFINITY PREDICTED BY RF-SCORE:    0.00 PKD
ROOT
HETATM    1  C   UNL     1      -7.263  10.217  66.579  1.00  0.00    -0.104 C  
HETATM    2  N   UNL     1      -8.359  10.021  67.496  1.00  0.00    -0.118 N  
HETATM    3  C   UNL     1      -8.489  10.757  68.670  1.00  0.00    -0.143 C  
HETATM    4  H   UNL     1      -9.064   9.318  67.275  1.00  0.00     0.000 HD 
HETATM    5  O   UNL     1      -7.707  11.640  68.996  1.00  0.00    -0.097 OA 
ENDROOT
BRANCH   3   6
HETATM    6  C   UNL     1      -9.649  10.392  69.545  1.00  0.00    -0.182 A  
HETATM    7  C   UNL     1      -9.647   9.181  70.291  1.00  0.00    -0.213 A  
HETATM    8  I   UNL     1      -7.843   8.005  70.468  1.00  0.00    -0.104 I  
HETATM    9  C   UNL     1     -10.793   8.776  71.029  1.00  0.00    -0.321 A  
HETATM   10  C   UNL     1     -10.883   7.390  71.560  1.00  0.00    -0.224 C  
HETATM   11  C   UNL     1     -11.889   9.665  71.125  1.00  0.00    -0.367 A  
HETATM   12  C   UNL     1     -11.869  10.918  70.471  1.00  0.00    -0.360 A  
HETATM   13  I   UNL     1     -13.651   9.162  72.261  1.00  0.00    -0.399 I  
HETATM   14  O   UNL     1     -11.133   7.304  72.881  1.00  0.00    -0.306 OA 
HETATM   15  O   UNL     1     -10.737   6.414  70.845  1.00  0.00    -0.229 OA 
HETATM   16  C   UNL     1     -10.796  11.214  69.608  1.00  0.00    -0.142 A  
HETATM   17  I   UNL     1     -11.168  12.692  68.052  1.00  0.00    -0.391 I  
BRANCH  12  18
HETATM   18  N   UNL     1     -13.002  11.754  70.595  1.00  0.00     0.014 N  
HETATM   19  C   UNL     1     -13.142  12.924  71.294  1.00  0.00    -0.167 C  
HETATM   20  H   UNL     1     -13.833  11.442  70.093  1.00  0.00     0.000 HD 
HETATM   21  O   UNL     1     -14.278  13.380  71.425  1.00  0.00     0.297 OA 
HETATM   22  C   UNL     1     -11.965  13.612  71.934  1.00  0.00     0.682 C  
ENDBRANCH  12  18
ENDBRANCH   3   6
TORSDOF 2
ENDMDL
MODEL      162
REMARK 921   NORMALIZED FREE ENERGY PREDICTED BY IDOCK:   -2.49 KCAL/MOL
REMARK 922        TOTAL FREE ENERGY PREDICTED BY IDOCK:   -3.21 KCAL/MOL
REMARK 923 INTER-LIGAND FREE ENERGY PREDICTED BY IDOCK:   -2.78 KCAL/MOL
REMARK 924 INTRA-LIGAND FREE ENERGY PREDICTED BY IDOCK:   -0.43 KCAL/MOL
REMARK 927      BINDING AFFINITY PREDICTED BY RF-SCORE:    0.00 PKD
ROOT
HETATM    1  C   UNL     1     -12.383  15.266  64.145  1.00  0.00    -0.044 C  
HETATM    2  N   UNL     1     -11.188  15.125  64.940  1.00  0.00    -0.443 N  
HETATM    3  C   UNL     1     -11.221  14.696  66.264  1.00  0.00    -0.340 C  
HETATM    4  H   UNL     1     -10.287  15.347  64.517  1.00  0.00     0.000 HD 
HETATM    5  O   UNL     1     -12.254  14.380  66.839  1.00  0.00    -0.415 OA 
ENDROOT
BRANCH   3   6
HETATM    6  C   UNL     1      -9.901  14.660  66.972  1.00  0.00    -0.244 A  
HETATM    7  C   UNL     1      -9.329  15.846  67.510  1.00  0.00    -0.217 A  
HETATM    8  I   UNL     1     -10.490  17.663  67.638  1.00  0.00    -0.256 I  
HETATM    9  C   UNL     1      -8.026  15.835  68.077  1.00  0.00    -0.141 A  
HETATM   10  C   UNL     1      -7.331  17.118  68.367  1.00  0.00    -0.220 C  
HETATM   11  C   UNL     1      -7.359  14.597  68.228  1.00  0.00    -0.117 A  
HETATM   12  C   UNL     1      -7.955  13.392  67.790  1.00  0.00    -0.167 A  
HETATM   13  I   UNL     1      -5.401  14.473  69.122  1.00  0.00    -0.084 I  
HETATM   14  O   UNL     1      -6.887  17.249  69.632  1.00  0.00    -0.163 OA 
HETATM   15  O   UNL     1      -7.184  17.980  67.518  1.00  0.00    -0.191 OA 
HETATM   16  C   UNL     1      -9.167  13.457  67.075  1.00  0.00    -0.242 A  
HETATM   17  I   UNL     1      -9.619  11.785  65.755  1.00  0.00    -0.153 I  
BRANCH  12  18
HETATM   18  N   UNL     1      -7.231  12.190  67.956  1.00  0.00    -0.090 N  
HETATM   19  C   UNL     1      -7.444  11.166  68.842  1.00  0.00    -0.125 C  
HETATM   20  H   UNL     1      -6.436  12.067  67.329  1.00  0.00     0.000 HD 
HETATM   21  O   UNL     1      -6.569  10.307  68.945  1.00  0.00    -0.051 OA 
HETATM   22  C   UNL     1      -8.677  11.109  69.705  1.00  0.00     0.921 C  
ENDBRANCH  12  18
ENDBRANCH   3   6
TORSDOF 2
ENDMDL
MODEL      163
REMARK 921   NORMALIZED FREE ENERGY PREDICTED BY IDOCK:   -2.48 KCAL/MOL
REMARK 922        TOTAL FREE ENERGY PREDICTED BY IDOCK:   -3.20 KCAL/MOL
REMARK 923 INTER-LIGAND FREE ENERGY PREDICTED BY IDOCK:   -2.98 KCAL/MOL
REMARK 924 INTRA-LIGAND FREE ENERGY PREDICTED BY IDOCK:   -0.22 KCAL/MOL
REMARK 927      BINDING AFFINITY PREDICTED BY RF-SCORE:    0.00 PKD
ROOT
HETATM    1  C   UNL     1     -12.515  10.410  71.587  1.00  0.00    -0.370 C  
HETATM    2  N   UNL     1     -11.304   9.909  70.985  1.00  0.00    -0.369 N  
HETATM    3  C   UNL     1     -11.115   9.875  69.606  1.00  0.00    -0.241 C  
HETATM    4  H   UNL     1     -10.559   9.566  71.592  1.00  0.00     0.000 HD 
HETATM    5  O   UNL     1     -11.942  10.294  68.808  1.00  0.00    -0.125 OA 
ENDROOT
BRANCH   3   6
HETATM    6  C   UNL     1      -9.827   9.269  69.139  1.00  0.00    -0.167 A  
HETATM    7  C   UNL     1      -8.882  10.039  68.407  1.00  0.00    -0.117 A  
HETATM    8  I   UNL     1      -9.103  12.182  68.244  1.00  0.00    -0.065 I  
HETATM    9  C   UNL     1      -7.715   9.437  67.862  1.00  0.00    -0.088 A  
HETATM   10  C   UNL     1      -6.894  10.175  66.866  1.00  0.00    -0.084 C  
HETATM   11  C   UNL     1      -7.434   8.088  68.180  1.00  0.00    -0.101 A  
HETATM   12  C   UNL     1      -8.312   7.333  68.991  1.00  0.00    -0.126 A  
HETATM   13  I   UNL     1      -5.664   7.102  67.442  1.00  0.00    -0.028 I  
HETATM   14  O   UNL     1      -5.586  10.280  67.173  1.00  0.00    -0.041 OA 
HETATM   15  O   UNL     1      -7.379  10.649  65.852  1.00  0.00    -0.144 OA 
HETATM   16  C   UNL     1      -9.544   7.904  69.368  1.00  0.00    -0.160 A  
HETATM   17  I   UNL     1     -11.151   6.524  69.873  1.00  0.00    -0.461 I  
BRANCH  12  18
HETATM   18  N   UNL     1      -7.981   5.986  69.259  1.00  0.00    -0.102 N  
HETATM   19  C   UNL     1      -7.387   5.445  70.369  1.00  0.00    -0.070 C  
HETATM   20  H   UNL     1      -8.218   5.322  68.522  1.00  0.00     0.000 HD 
HETATM   21  O   UNL     1      -7.011   4.274  70.304  1.00  0.00    -0.036 OA 
HETATM   22  C   UNL     1      -7.144   6.257  71.614  1.00  0.00    -0.082 C  
ENDBRANCH  12  18
ENDBRANCH   3   6
TORSDOF 2
ENDMDL
MODEL      164
REMARK 921   NORMALIZED FREE ENERGY PREDICTED BY IDOCK:   -2.48 KCAL/MOL
REMARK 922        TOTAL FREE ENERGY PREDICTED BY IDOCK:   -3.19 KCAL/MOL
REMARK 923 INTER-LIGAND FREE ENERGY PREDICTED BY IDOCK:   -3.18 KCAL/MOL
REMARK 924 INTRA-LIGAND FREE ENERGY PREDICTED BY IDOCK:   -0.01 KCAL/MOL
REMARK 927      BINDING AFFINITY PREDICTED BY RF-SCORE:    0.00 PKD
ROOT
HETATM    1  C   UNL     1     -10.065   6.231  73.606  1.00  0.00    -0.230 C  
HETATM    2  N   UNL     1      -9.620   6.701  72.317  1.00  0.00    -0.147 N  
HETATM    3  C   UNL     1     -10.431   6.656  71.187  1.00  0.00    -0.217 C  
HETATM    4  H   UNL     1      -8.677   7.080  72.232  1.00  0.00     0.000 HD 
HETATM    5  O   UNL     1     -11.584   6.246  71.207  1.00  0.00    -0.308 OA 
ENDROOT
BRANCH   3   6
HETATM    6  C   UNL     1      -9.800   7.126  69.912  1.00  0.00    -0.174 A  
HETATM    7  C   UNL     1     -10.158   8.377  69.339  1.00  0.00    -0.198 A  
HETATM    8  I   UNL     1     -11.352   9.792  70.454  1.00  0.00    -0.368 I  
HETATM    9  C   UNL     1      -9.649   8.773  68.072  1.00  0.00    -0.160 A  
HETATM   10  C   UNL     1     -10.249   9.933  67.360  1.00  0.00    -0.222 C  
HETATM   11  C   UNL     1      -8.668   7.966  67.451  1.00  0.00    -0.128 A  
HETATM   12  C   UNL     1      -8.224   6.767  68.055  1.00  0.00    -0.114 A  
HETATM   13  I   UNL     1      -7.800   8.507  65.554  1.00  0.00    -0.124 I  
HETATM   14  O   UNL     1      -9.372  10.885  66.987  1.00  0.00    -0.162 OA 
HETATM   15  O   UNL     1     -11.445  10.007  67.138  1.00  0.00    -0.016 OA 
HETATM   16  C   UNL     1      -8.873   6.315  69.220  1.00  0.00    -0.123 A  
HETATM   17  I   UNL     1      -8.761   4.181  69.641  1.00  0.00    -0.165 I  
BRANCH  12  18
HETATM   18  N   UNL     1      -7.251   5.998  67.375  1.00  0.00    -0.074 N  
HETATM   19  C   UNL     1      -7.423   5.056  66.396  1.00  0.00    -0.087 C  
HETATM   20  H   UNL     1      -6.286   6.169  67.655  1.00  0.00     0.000 HD 
HETATM   21  O   UNL     1      -6.450   4.367  66.088  1.00  0.00    -0.039 OA 
HETATM   22  C   UNL     1      -8.761   4.821  65.745  1.00  0.00    -0.127 C  
ENDBRANCH  12  18
ENDBRANCH   3   6
TORSDOF 2
ENDMDL
MODEL      165
REMARK 921   NORMALIZED FREE ENERGY PREDICTED BY IDOCK:   -2.46 KCAL/MOL
REMARK 922        TOTAL FREE ENERGY PREDICTED BY IDOCK:   -3.17 KCAL/MOL
REMARK 923 INTER-LIGAND FREE ENERGY PREDICTED BY IDOCK:   -3.12 KCAL/MOL
REMARK 924 INTRA-LIGAND FREE ENERGY PREDICTED BY IDOCK:   -0.05 KCAL/MOL
REMARK 927      BINDING AFFINITY PREDICTED BY RF-SCORE:    0.00 PKD
ROOT
HETATM    1  C   UNL     1      -7.289  15.481  69.374  1.00  0.00    -0.215 C  
HETATM    2  N   UNL     1      -7.593  14.072  69.350  1.00  0.00    -0.339 N  
HETATM    3  C   UNL     1      -7.053  13.209  68.400  1.00  0.00    -0.107 C  
HETATM    4  H   UNL     1      -8.226  13.694  70.054  1.00  0.00     0.000 HD 
HETATM    5  O   UNL     1      -6.262  13.572  67.540  1.00  0.00    -0.255 OA 
ENDROOT
BRANCH   3   6
HETATM    6  C   UNL     1      -7.515  11.786  68.473  1.00  0.00    -0.110 A  
HETATM    7  C   UNL     1      -8.758  11.392  67.906  1.00  0.00    -0.145 A  
HETATM    8  I   UNL     1      -9.855  12.742  66.623  1.00  0.00    -0.267 I  
HETATM    9  C   UNL     1      -9.252  10.070  68.075  1.00  0.00    -0.139 A  
HETATM   10  C   UNL     1     -10.665   9.756  67.734  1.00  0.00    -0.272 C  
HETATM   11  C   UNL     1      -8.423   9.108  68.697  1.00  0.00    -0.127 A  
HETATM   12  C   UNL     1      -7.140   9.457  69.179  1.00  0.00    -0.062 A  
HETATM   13  I   UNL     1      -9.064   7.066  68.956  1.00  0.00    -0.130 I  
HETATM   14  O   UNL     1     -10.827   8.726  66.880  1.00  0.00    -0.171 OA 
HETATM   15  O   UNL     1     -11.598  10.390  68.195  1.00  0.00    -0.355 OA 
HETATM   16  C   UNL     1      -6.752  10.811  69.154  1.00  0.00    -0.074 A  
HETATM   17  I   UNL     1      -5.221  11.419  70.577  1.00  0.00    -0.139 I  
BRANCH  12  18
HETATM   18  N   UNL     1      -6.366   8.452  69.804  1.00  0.00    -0.035 N  
HETATM   19  C   UNL     1      -6.352   8.063  71.117  1.00  0.00    -0.034 C  
HETATM   20  H   UNL     1      -5.728   7.947  69.190  1.00  0.00     0.000 HD 
HETATM   21  O   UNL     1      -5.454   7.303  71.479  1.00  0.00    -0.034 OA 
HETATM   22  C   UNL     1      -7.360   8.580  72.109  1.00  0.00    -0.106 C  
ENDBRANCH  12  18
ENDBRANCH   3   6
TORSDOF 2
ENDMDL
MODEL      166
REMARK 921   NORMALIZED FREE ENERGY PREDICTED BY IDOCK:   -2.45 KCAL/MOL
REMARK 922        TOTAL FREE ENERGY PREDICTED BY IDOCK:   -3.17 KCAL/MOL
REMARK 923 INTER-LIGAND FREE ENERGY PREDICTED BY IDOCK:   -2.73 KCAL/MOL
REMARK 924 INTRA-LIGAND FREE ENERGY PREDICTED BY IDOCK:   -0.44 KCAL/MOL
REMARK 927      BINDING AFFINITY PREDICTED BY RF-SCORE:    0.00 PKD
ROOT
HETATM    1  C   UNL     1     -10.563   6.741  73.778  1.00  0.00    -0.295 C  
HETATM    2  N   UNL     1      -9.692   6.626  72.635  1.00  0.00    -0.160 N  
HETATM    3  C   UNL     1     -10.177   6.440  71.344  1.00  0.00    -0.199 C  
HETATM    4  H   UNL     1      -8.683   6.682  72.778  1.00  0.00     0.000 HD 
HETATM    5  O   UNL     1     -11.371   6.392  71.079  1.00  0.00    -0.298 OA 
ENDROOT
BRANCH   3   6
HETATM    6  C   UNL     1      -9.141   6.278  70.274  1.00  0.00    -0.156 A  
HETATM    7  C   UNL     1      -8.542   5.013  70.024  1.00  0.00    -0.098 A  
HETATM    8  I   UNL     1      -9.345   3.221  70.927  1.00  0.00    -0.208 I  
HETATM    9  C   UNL     1      -7.477   4.881  69.091  1.00  0.00    -0.053 A  
HETATM   10  C   UNL     1      -6.675   3.629  69.052  1.00  0.00    -0.045 C  
HETATM   11  C   UNL     1      -7.115   6.001  68.308  1.00  0.00    -0.082 A  
HETATM   12  C   UNL     1      -7.769   7.244  68.472  1.00  0.00    -0.120 A  
HETATM   13  I   UNL     1      -5.547   5.887  66.834  1.00  0.00    -0.014 I  
HETATM   14  O   UNL     1      -6.592   3.046  67.841  1.00  0.00    -0.036 OA 
HETATM   15  O   UNL     1      -6.140   3.173  70.048  1.00  0.00    -0.022 OA 
HETATM   16  C   UNL     1      -8.696   7.389  69.523  1.00  0.00    -0.137 A  
HETATM   17  I   UNL     1      -9.047   9.411  70.250  1.00  0.00    -0.235 I  
BRANCH  12  18
HETATM   18  N   UNL     1      -7.350   8.330  67.669  1.00  0.00    -0.091 N  
HETATM   19  C   UNL     1      -7.965   8.887  66.579  1.00  0.00    -0.103 C  
HETATM   20  H   UNL     1      -6.465   8.758  67.939  1.00  0.00     0.000 HD 
HETATM   21  O   UNL     1      -7.321   9.697  65.912  1.00  0.00    -0.095 OA 
HETATM   22  C   UNL     1      -9.358   8.493  66.166  1.00  0.00    -0.279 C  
ENDBRANCH  12  18
ENDBRANCH   3   6
TORSDOF 2
ENDMDL
MODEL      167
REMARK 921   NORMALIZED FREE ENERGY PREDICTED BY IDOCK:   -2.42 KCAL/MOL
REMARK 922        TOTAL FREE ENERGY PREDICTED BY IDOCK:   -3.13 KCAL/MOL
REMARK 923 INTER-LIGAND FREE ENERGY PREDICTED BY IDOCK:   -2.70 KCAL/MOL
REMARK 924 INTRA-LIGAND FREE ENERGY PREDICTED BY IDOCK:   -0.43 KCAL/MOL
REMARK 927      BINDING AFFINITY PREDICTED BY RF-SCORE:    0.00 PKD
ROOT
HETATM    1  C   UNL     1      -8.538   5.203  63.135  1.00  0.00    -0.091 C  
HETATM    2  N   UNL     1      -8.620   5.900  64.395  1.00  0.00    -0.344 N  
HETATM    3  C   UNL     1      -7.489   6.284  65.109  1.00  0.00    -0.082 C  
HETATM    4  H   UNL     1      -9.540   6.119  64.776  1.00  0.00     0.000 HD 
HETATM    5  O   UNL     1      -6.348   6.090  64.711  1.00  0.00    -0.032 OA 
ENDROOT
BRANCH   3   6
HETATM    6  C   UNL     1      -7.743   6.946  66.429  1.00  0.00    -0.098 A  
HETATM    7  C   UNL     1      -7.758   8.364  66.543  1.00  0.00    -0.089 A  
HETATM    8  I   UNL     1      -7.762   9.607  64.776  1.00  0.00    -0.143 I  
HETATM    9  C   UNL     1      -7.883   8.992  67.812  1.00  0.00    -0.101 A  
HETATM   10  C   UNL     1      -7.607  10.447  67.950  1.00  0.00    -0.088 C  
HETATM   11  C   UNL     1      -8.136   8.189  68.948  1.00  0.00    -0.116 A  
HETATM   12  C   UNL     1      -8.226   6.782  68.838  1.00  0.00    -0.121 A  
HETATM   13  I   UNL     1      -8.390   9.053  70.906  1.00  0.00    -0.127 I  
HETATM   14  O   UNL     1      -8.598  11.161  68.520  1.00  0.00    -0.145 OA 
HETATM   15  O   UNL     1      -6.562  10.946  67.571  1.00  0.00    -0.060 OA 
HETATM   16  C   UNL     1      -7.923   6.179  67.601  1.00  0.00    -0.106 A  
HETATM   17  I   UNL     1      -7.281   4.099  67.655  1.00  0.00    -0.069 I  
BRANCH  12  18
HETATM   18  N   UNL     1      -8.466   6.034  70.013  1.00  0.00    -0.129 N  
HETATM   19  C   UNL     1      -9.660   5.656  70.569  1.00  0.00    -0.174 C  
HETATM   20  H   UNL     1      -7.633   5.735  70.519  1.00  0.00     0.000 HD 
HETATM   21  O   UNL     1      -9.637   5.180  71.704  1.00  0.00    -0.146 OA 
HETATM   22  C   UNL     1     -10.969   5.860  69.852  1.00  0.00    -0.444 C  
ENDBRANCH  12  18
ENDBRANCH   3   6
TORSDOF 2
ENDMDL
MODEL      168
REMARK 921   NORMALIZED FREE ENERGY PREDICTED BY IDOCK:   -2.41 KCAL/MOL
REMARK 922        TOTAL FREE ENERGY PREDICTED BY IDOCK:   -3.12 KCAL/MOL
REMARK 923 INTER-LIGAND FREE ENERGY PREDICTED BY IDOCK:   -3.11 KCAL/MOL
REMARK 924 INTRA-LIGAND FREE ENERGY PREDICTED BY IDOCK:   -0.01 KCAL/MOL
REMARK 927      BINDING AFFINITY PREDICTED BY RF-SCORE:    0.00 PKD
ROOT
HETATM    1  C   UNL     1      -7.511  11.361  69.419  1.00  0.00     0.065 C  
HETATM    2  N   UNL     1      -7.940  12.712  69.155  1.00  0.00    -0.266 N  
HETATM    3  C   UNL     1      -7.447  13.455  68.085  1.00  0.00    -0.133 C  
HETATM    4  H   UNL     1      -8.629  13.139  69.774  1.00  0.00     0.000 HD 
HETATM    5  O   UNL     1      -6.644  13.011  67.277  1.00  0.00    -0.165 OA 
ENDROOT
BRANCH   3   6
HETATM    6  C   UNL     1      -7.948  14.863  67.983  1.00  0.00    -0.132 A  
HETATM    7  C   UNL     1      -9.056  15.185  67.151  1.00  0.00    -0.211 A  
HETATM    8  I   UNL     1     -10.268  13.620  66.284  1.00  0.00    -0.319 I  
HETATM    9  C   UNL     1      -9.459  16.535  66.962  1.00  0.00    -0.249 A  
HETATM   10  C   UNL     1     -10.418  16.879  65.878  1.00  0.00    -0.285 C  
HETATM   11  C   UNL     1      -8.832  17.546  67.726  1.00  0.00    -0.241 A  
HETATM   12  C   UNL     1      -7.794  17.233  68.634  1.00  0.00    -0.272 A  
HETATM   13  I   UNL     1      -9.407  19.616  67.545  1.00  0.00    -0.502 I  
HETATM   14  O   UNL     1     -11.502  17.571  66.278  1.00  0.00     0.904 OA 
HETATM   15  O   UNL     1     -10.228  16.552  64.719  1.00  0.00    -0.310 OA 
HETATM   16  C   UNL     1      -7.300  15.914  68.669  1.00  0.00    -0.141 A  
HETATM   17  I   UNL     1      -5.270  15.647  69.411  1.00  0.00    -0.108 I  
BRANCH  12  18
HETATM   18  N   UNL     1      -7.198  18.291  69.357  1.00  0.00    -0.072 N  
HETATM   19  C   UNL     1      -6.185  19.134  68.980  1.00  0.00    -0.260 C  
HETATM   20  H   UNL     1      -7.574  18.450  70.292  1.00  0.00     0.000 HD 
HETATM   21  O   UNL     1      -5.688  19.854  69.846  1.00  0.00    -0.235 OA 
HETATM   22  C   UNL     1      -5.650  19.151  67.572  1.00  0.00    -0.177 C  
ENDBRANCH  12  18
ENDBRANCH   3   6
TORSDOF 2
ENDMDL
MODEL      169
REMARK 921   NORMALIZED FREE ENERGY PREDICTED BY IDOCK:   -2.41 KCAL/MOL
REMARK 922        TOTAL FREE ENERGY PREDICTED BY IDOCK:   -3.12 KCAL/MOL
REMARK 923 INTER-LIGAND FREE ENERGY PREDICTED BY IDOCK:   -2.72 KCAL/MOL
REMARK 924 INTRA-LIGAND FREE ENERGY PREDICTED BY IDOCK:   -0.40 KCAL/MOL
REMARK 927      BINDING AFFINITY PREDICTED BY RF-SCORE:    0.00 PKD
ROOT
HETATM    1  C   UNL     1      -7.744   4.669  74.470  1.00  0.00    -0.085 C  
HETATM    2  N   UNL     1      -8.161   5.181  73.188  1.00  0.00    -0.104 N  
HETATM    3  C   UNL     1      -7.405   5.004  72.033  1.00  0.00    -0.089 C  
HETATM    4  H   UNL     1      -9.042   5.691  73.126  1.00  0.00     0.000 HD 
HETATM    5  O   UNL     1      -6.354   4.379  72.011  1.00  0.00    -0.020 OA 
ENDROOT
BRANCH   3   6
HETATM    6  C   UNL     1      -7.946   5.649  70.793  1.00  0.00    -0.112 A  
HETATM    7  C   UNL     1      -8.563   4.870  69.776  1.00  0.00    -0.086 A  
HETATM    8  I   UNL     1      -9.056   2.796  70.130  1.00  0.00    -0.185 I  
HETATM    9  C   UNL     1      -8.972   5.462  68.550  1.00  0.00    -0.114 A  
HETATM   10  C   UNL     1      -9.343   4.600  67.396  1.00  0.00    -0.143 C  
HETATM   11  C   UNL     1      -8.885   6.866  68.410  1.00  0.00    -0.123 A  
HETATM   12  C   UNL     1      -8.366   7.670  69.452  1.00  0.00    -0.131 A  
HETATM   13  I   UNL     1      -9.525   7.862  66.609  1.00  0.00    -0.254 I  
HETATM   14  O   UNL     1     -10.556   4.854  66.866  1.00  0.00    -0.199 OA 
HETATM   15  O   UNL     1      -8.601   3.731  66.973  1.00  0.00    -0.102 OA 
HETATM   16  C   UNL     1      -7.809   7.038  70.581  1.00  0.00    -0.097 A  
HETATM   17  I   UNL     1      -6.345   8.179  71.720  1.00  0.00    -0.063 I  
BRANCH  12  18
HETATM   18  N   UNL     1      -8.293   9.066  69.244  1.00  0.00    -0.120 N  
HETATM   19  C   UNL     1      -9.234  10.030  69.497  1.00  0.00    -0.221 C  
HETATM   20  H   UNL     1      -7.415   9.405  68.850  1.00  0.00     0.000 HD 
HETATM   21  O   UNL     1      -9.030  11.159  69.051  1.00  0.00    -0.126 OA 
HETATM   22  C   UNL     1     -10.504   9.721  70.244  1.00  0.00    -0.345 C  
ENDBRANCH  12  18
ENDBRANCH   3   6
TORSDOF 2
ENDMDL
MODEL      170
REMARK 921   NORMALIZED FREE ENERGY PREDICTED BY IDOCK:   -2.38 KCAL/MOL
REMARK 922        TOTAL FREE ENERGY PREDICTED BY IDOCK:   -3.08 KCAL/MOL
REMARK 923 INTER-LIGAND FREE ENERGY PREDICTED BY IDOCK:   -2.60 KCAL/MOL
REMARK 924 INTRA-LIGAND FREE ENERGY PREDICTED BY IDOCK:   -0.49 KCAL/MOL
REMARK 927      BINDING AFFINITY PREDICTED BY RF-SCORE:    0.00 PKD
ROOT
HETATM    1  C   UNL     1     -10.527   6.724  73.717  1.00  0.00    -0.354 C  
HETATM    2  N   UNL     1      -9.752   6.507  72.520  1.00  0.00    -0.159 N  
HETATM    3  C   UNL     1     -10.337   6.152  71.307  1.00  0.00    -0.217 C  
HETATM    4  H   UNL     1      -8.739   6.619  72.563  1.00  0.00     0.000 HD 
HETATM    5  O   UNL     1     -11.545   6.028  71.159  1.00  0.00    -0.254 OA 
ENDROOT
BRANCH   3   6
HETATM    6  C   UNL     1      -9.390   5.904  70.174  1.00  0.00    -0.180 A  
HETATM    7  C   UNL     1      -9.213   6.872  69.146  1.00  0.00    -0.141 A  
HETATM    8  I   UNL     1     -10.029   8.861  69.362  1.00  0.00    -0.224 I  
HETATM    9  C   UNL     1      -8.405   6.592  68.011  1.00  0.00    -0.117 A  
HETATM   10  C   UNL     1      -8.461   7.483  66.821  1.00  0.00    -0.124 C  
HETATM   11  C   UNL     1      -7.663   5.389  67.984  1.00  0.00    -0.091 A  
HETATM   12  C   UNL     1      -7.748   4.458  69.045  1.00  0.00    -0.058 A  
HETATM   13  I   UNL     1      -6.372   4.898  66.328  1.00  0.00    -0.038 I  
HETATM   14  O   UNL     1      -7.269   7.958  66.412  1.00  0.00    -0.078 OA 
HETATM   15  O   UNL     1      -9.512   7.759  66.269  1.00  0.00    -0.189 OA 
HETATM   16  C   UNL     1      -8.689   4.683  70.069  1.00  0.00    -0.081 A  
HETATM   17  I   UNL     1      -9.364   2.936  71.181  1.00  0.00    -0.208 I  
BRANCH  12  18
HETATM   18  N   UNL     1      -6.992   3.267  68.950  1.00  0.00    -0.048 N  
HETATM   19  C   UNL     1      -5.805   2.946  69.554  1.00  0.00    -0.023 C  
HETATM   20  H   UNL     1      -7.386   2.546  68.346  1.00  0.00     0.000 HD 
HETATM   21  O   UNL     1      -5.225   1.930  69.171  1.00  0.00    -0.011 OA 
HETATM   22  C   UNL     1      -5.190   3.823  70.612  1.00  0.00    -0.004 C  
ENDBRANCH  12  18
ENDBRANCH   3   6
TORSDOF 2
ENDMDL
MODEL      171
REMARK 921   NORMALIZED FREE ENERGY PREDICTED BY IDOCK:   -2.38 KCAL/MOL
REMARK 922        TOTAL FREE ENERGY PREDICTED BY IDOCK:   -3.08 KCAL/MOL
REMARK 923 INTER-LIGAND FREE ENERGY PREDICTED BY IDOCK:   -3.08 KCAL/MOL
REMARK 924 INTRA-LIGAND FREE ENERGY PREDICTED BY IDOCK:   -0.00 KCAL/MOL
REMARK 927      BINDING AFFINITY PREDICTED BY RF-SCORE:    0.00 PKD
ROOT
HETATM    1  C   UNL     1     -10.046  10.117  65.305  1.00  0.00    -0.274 C  
HETATM    2  N   UNL     1     -10.079   8.979  66.189  1.00  0.00    -0.364 N  
HETATM    3  C   UNL     1      -9.045   8.693  67.076  1.00  0.00    -0.138 C  
HETATM    4  H   UNL     1     -10.890   8.361  66.163  1.00  0.00     0.000 HD 
HETATM    5  O   UNL     1      -8.052   9.397  67.194  1.00  0.00    -0.102 OA 
ENDROOT
BRANCH   3   6
HETATM    6  C   UNL     1      -9.205   7.441  67.883  1.00  0.00    -0.132 A  
HETATM    7  C   UNL     1      -9.496   7.501  69.274  1.00  0.00    -0.154 A  
HETATM    8  I   UNL     1     -10.061   9.372  70.196  1.00  0.00    -0.345 I  
HETATM    9  C   UNL     1      -9.532   6.320  70.064  1.00  0.00    -0.167 A  
HETATM   10  C   UNL     1      -9.548   6.419  71.548  1.00  0.00    -0.158 C  
HETATM   11  C   UNL     1      -9.415   5.067  69.420  1.00  0.00    -0.144 A  
HETATM   12  C   UNL     1      -9.226   4.982  68.022  1.00  0.00    -0.119 A  
HETATM   13  I   UNL     1      -9.508   3.219  70.526  1.00  0.00    -0.074 I  
HETATM   14  O   UNL     1     -10.554   5.757  72.150  1.00  0.00    -0.205 OA 
HETATM   15  O   UNL     1      -8.710   7.057  72.162  1.00  0.00    -0.125 OA 
HETATM   16  C   UNL     1      -9.018   6.171  67.294  1.00  0.00    -0.112 A  
HETATM   17  I   UNL     1      -7.955   5.989  65.402  1.00  0.00    -0.132 I  
BRANCH  12  18
HETATM   18  N   UNL     1      -9.101   3.700  67.441  1.00  0.00    -0.146 N  
HETATM   19  C   UNL     1      -7.973   2.952  67.228  1.00  0.00    -0.077 C  
HETATM   20  H   UNL     1      -9.975   3.270  67.137  1.00  0.00     0.000 HD 
HETATM   21  O   UNL     1      -8.077   1.947  66.524  1.00  0.00    -0.075 OA 
HETATM   22  C   UNL     1      -6.634   3.361  67.783  1.00  0.00    -0.038 C  
ENDBRANCH  12  18
ENDBRANCH   3   6
TORSDOF 2
ENDMDL
MODEL      172
REMARK 921   NORMALIZED FREE ENERGY PREDICTED BY IDOCK:   -2.36 KCAL/MOL
REMARK 922        TOTAL FREE ENERGY PREDICTED BY IDOCK:   -3.06 KCAL/MOL
REMARK 923 INTER-LIGAND FREE ENERGY PREDICTED BY IDOCK:   -2.62 KCAL/MOL
REMARK 924 INTRA-LIGAND FREE ENERGY PREDICTED BY IDOCK:   -0.44 KCAL/MOL
REMARK 927      BINDING AFFINITY PREDICTED BY RF-SCORE:    0.00 PKD
ROOT
HETATM    1  C   UNL     1     -13.131  15.724  70.625  1.00  0.00    -0.006 C  
HETATM    2  N   UNL     1     -11.775  15.868  70.159  1.00  0.00    -0.341 N  
HETATM    3  C   UNL     1     -11.445  15.852  68.807  1.00  0.00    -0.393 C  
HETATM    4  H   UNL     1     -11.029  15.986  70.845  1.00  0.00     0.000 HD 
HETATM    5  O   UNL     1     -12.279  15.748  67.917  1.00  0.00     0.267 OA 
ENDROOT
BRANCH   3   6
HETATM    6  C   UNL     1      -9.985  15.953  68.489  1.00  0.00    -0.216 A  
HETATM    7  C   UNL     1      -9.406  17.194  68.102  1.00  0.00    -0.264 A  
HETATM    8  I   UNL     1     -10.525  19.033  68.294  1.00  0.00    -0.006 I  
HETATM    9  C   UNL     1      -8.048  17.269  67.688  1.00  0.00    -0.198 A  
HETATM   10  C   UNL     1      -7.543  18.496  67.018  1.00  0.00    -0.223 C  
HETATM   11  C   UNL     1      -7.238  16.116  67.803  1.00  0.00    -0.138 A  
HETATM   12  C   UNL     1      -7.771  14.897  68.281  1.00  0.00    -0.113 A  
HETATM   13  I   UNL     1      -5.155  16.143  67.247  1.00  0.00     0.274 I  
HETATM   14  O   UNL     1      -6.447  19.040  67.581  1.00  0.00    -0.200 OA 
HETATM   15  O   UNL     1      -8.088  18.966  66.034  1.00  0.00    -0.431 OA 
HETATM   16  C   UNL     1      -9.157  14.809  68.516  1.00  0.00    -0.187 A  
HETATM   17  I   UNL     1     -10.040  12.820  68.446  1.00  0.00    -0.105 I  
BRANCH  12  18
HETATM   18  N   UNL     1      -6.911  13.777  68.357  1.00  0.00    -0.092 N  
HETATM   19  C   UNL     1      -6.119  13.363  69.395  1.00  0.00    -0.104 C  
HETATM   20  H   UNL     1      -6.876  13.194  67.521  1.00  0.00     0.000 HD 
HETATM   21  O   UNL     1      -5.300  12.472  69.170  1.00  0.00    -0.067 OA 
HETATM   22  C   UNL     1      -6.195  14.004  70.756  1.00  0.00    -0.075 C  
ENDBRANCH  12  18
ENDBRANCH   3   6
TORSDOF 2
ENDMDL
MODEL      173
REMARK 921   NORMALIZED FREE ENERGY PREDICTED BY IDOCK:   -2.35 KCAL/MOL
REMARK 922        TOTAL FREE ENERGY PREDICTED BY IDOCK:   -3.05 KCAL/MOL
REMARK 923 INTER-LIGAND FREE ENERGY PREDICTED BY IDOCK:   -3.00 KCAL/MOL
REMARK 924 INTRA-LIGAND FREE ENERGY PREDICTED BY IDOCK:   -0.06 KCAL/MOL
REMARK 927      BINDING AFFINITY PREDICTED BY RF-SCORE:    0.00 PKD
ROOT
HETATM    1  C   UNL     1      -9.285   2.381  69.506  1.00  0.00    -0.120 C  
HETATM    2  N   UNL     1      -8.772   3.728  69.499  1.00  0.00    -0.074 N  
HETATM    3  C   UNL     1      -9.377   4.759  70.213  1.00  0.00    -0.151 C  
HETATM    4  H   UNL     1      -7.937   3.933  68.951  1.00  0.00     0.000 HD 
HETATM    5  O   UNL     1     -10.362   4.595  70.920  1.00  0.00    -0.177 OA 
ENDROOT
BRANCH   3   6
HETATM    6  C   UNL     1      -8.758   6.114  70.054  1.00  0.00    -0.137 A  
HETATM    7  C   UNL     1      -7.935   6.665  71.075  1.00  0.00    -0.107 A  
HETATM    8  I   UNL     1      -7.265   5.440  72.724  1.00  0.00    -0.094 I  
HETATM    9  C   UNL     1      -7.442   7.995  70.977  1.00  0.00    -0.071 A  
HETATM   10  C   UNL     1      -6.835   8.651  72.166  1.00  0.00    -0.051 C  
HETATM   11  C   UNL     1      -7.664   8.717  69.782  1.00  0.00    -0.088 A  
HETATM   12  C   UNL     1      -8.396   8.148  68.714  1.00  0.00    -0.126 A  
HETATM   13  I   UNL     1      -6.915  10.721  69.520  1.00  0.00    -0.079 I  
HETATM   14  O   UNL     1      -5.601   9.153  71.968  1.00  0.00    -0.067 OA 
HETATM   15  O   UNL     1      -7.418   8.720  73.234  1.00  0.00    -0.367 OA 
HETATM   16  C   UNL     1      -9.019   6.899  68.909  1.00  0.00    -0.131 A  
HETATM   17  I   UNL     1     -10.731   6.449  67.642  1.00  0.00    -0.429 I  
BRANCH  12  18
HETATM   18  N   UNL     1      -8.596   8.928  67.552  1.00  0.00    -0.120 N  
HETATM   19  C   UNL     1      -9.609   9.804  67.262  1.00  0.00    -0.157 C  
HETATM   20  H   UNL     1      -7.886   8.823  66.827  1.00  0.00     0.000 HD 
HETATM   21  O   UNL     1      -9.689  10.222  66.107  1.00  0.00    -0.189 OA 
HETATM   22  C   UNL     1     -10.628  10.208  68.293  1.00  0.00    -0.262 C  
ENDBRANCH  12  18
ENDBRANCH   3   6
TORSDOF 2
ENDMDL
MODEL      174
REMARK 921   NORMALIZED FREE ENERGY PREDICTED BY IDOCK:   -2.26 KCAL/MOL
REMARK 922        TOTAL FREE ENERGY PREDICTED BY IDOCK:   -2.95 KCAL/MOL
REMARK 923 INTER-LIGAND FREE ENERGY PREDICTED BY IDOCK:   -3.15 KCAL/MOL
REMARK 924 INTRA-LIGAND FREE ENERGY PREDICTED BY IDOCK:    0.20 KCAL/MOL
REMARK 927      BINDING AFFINITY PREDICTED BY RF-SCORE:    0.00 PKD
ROOT
HETATM    1  C   UNL     1      -7.176  15.819  69.334  1.00  0.00    -0.217 C  
HETATM    2  N   UNL     1      -7.367  14.779  68.354  1.00  0.00    -0.109 N  
HETATM    3  C   UNL     1      -8.586  14.129  68.184  1.00  0.00    -0.175 C  
HETATM    4  H   UNL     1      -6.580  14.510  67.764  1.00  0.00     0.000 HD 
HETATM    5  O   UNL     1      -9.588  14.410  68.827  1.00  0.00    -0.214 OA 
ENDROOT
BRANCH   3   6
HETATM    6  C   UNL     1      -8.604  13.030  67.166  1.00  0.00    -0.195 A  
HETATM    7  C   UNL     1      -9.438  13.114  66.017  1.00  0.00    -0.089 A  
HETATM    8  I   UNL     1     -10.437  14.965  65.520  1.00  0.00    -0.462 I  
HETATM    9  C   UNL     1      -9.544  12.024  65.111  1.00  0.00    -0.091 A  
HETATM   10  C   UNL     1     -10.624  12.011  64.088  1.00  0.00    -0.355 C  
HETATM   11  C   UNL     1      -8.699  10.905  65.290  1.00  0.00    -0.139 A  
HETATM   12  C   UNL     1      -7.790  10.846  66.372  1.00  0.00    -0.154 A  
HETATM   13  I   UNL     1      -8.752   9.225  63.941  1.00  0.00     0.031 I  
HETATM   14  O   UNL     1     -10.203  11.835  62.820  1.00  0.00    -0.170 OA 
HETATM   15  O   UNL     1     -11.798  12.152  64.386  1.00  0.00    -0.363 OA 
HETATM   16  C   UNL     1      -7.833  11.861  67.349  1.00  0.00    -0.158 A  
HETATM   17  I   UNL     1      -7.065  11.355  69.322  1.00  0.00     0.060 I  
BRANCH  12  18
HETATM   18  N   UNL     1      -6.983   9.693  66.504  1.00  0.00    -0.084 N  
HETATM   19  C   UNL     1      -7.245   8.526  67.173  1.00  0.00    -0.080 C  
HETATM   20  H   UNL     1      -6.078   9.736  66.036  1.00  0.00     0.000 HD 
HETATM   21  O   UNL     1      -6.316   7.732  67.323  1.00  0.00    -0.051 OA 
HETATM   22  C   UNL     1      -8.602   8.233  67.757  1.00  0.00    -0.131 C  
ENDBRANCH  12  18
ENDBRANCH   3   6
TORSDOF 2
ENDMDL
MODEL      175
REMARK 921   NORMALIZED FREE ENERGY PREDICTED BY IDOCK:   -2.22 KCAL/MOL
REMARK 922        TOTAL FREE ENERGY PREDICTED BY IDOCK:   -2.91 KCAL/MOL
REMARK 923 INTER-LIGAND FREE ENERGY PREDICTED BY IDOCK:   -2.54 KCAL/MOL
REMARK 924 INTRA-LIGAND FREE ENERGY PREDICTED BY IDOCK:   -0.37 KCAL/MOL
REMARK 927      BINDING AFFINITY PREDICTED BY RF-SCORE:    0.00 PKD
ROOT
HETATM    1  C   UNL     1     -11.728  16.494  68.115  1.00  0.00     0.262 C  
HETATM    2  N   UNL     1     -10.960  15.341  68.514  1.00  0.00    -0.254 N  
HETATM    3  C   UNL     1     -10.081  14.695  67.648  1.00  0.00    -0.228 C  
HETATM    4  H   UNL     1     -11.064  14.986  69.464  1.00  0.00     0.000 HD 
HETATM    5  O   UNL     1      -9.873  15.073  66.504  1.00  0.00    -0.239 OA 
ENDROOT
BRANCH   3   6
HETATM    6  C   UNL     1      -9.404  13.476  68.196  1.00  0.00    -0.213 A  
HETATM    7  C   UNL     1      -8.105  13.559  68.768  1.00  0.00     0.024 A  
HETATM    8  I   UNL     1      -7.211  15.481  69.187  1.00  0.00    -0.209 I  
HETATM    9  C   UNL     1      -7.414  12.387  69.181  1.00  0.00     0.166 A  
HETATM   10  C   UNL     1      -5.963  12.456  69.503  1.00  0.00    -0.110 C  
HETATM   11  C   UNL     1      -8.093  11.148  69.147  1.00  0.00    -0.024 A  
HETATM   12  C   UNL     1      -9.423  11.061  68.673  1.00  0.00    -0.195 A  
HETATM   13  I   UNL     1      -7.146   9.324  69.798  1.00  0.00    -0.095 I  
HETATM   14  O   UNL     1      -5.628  11.975  70.717  1.00  0.00    -0.182 OA 
HETATM   15  O   UNL     1      -5.149  12.916  68.722  1.00  0.00    -0.060 OA 
HETATM   16  C   UNL     1     -10.017  12.207  68.109  1.00  0.00    -0.201 A  
HETATM   17  I   UNL     1     -11.650  11.875  66.706  1.00  0.00     0.028 I  
BRANCH  12  18
HETATM   18  N   UNL     1     -10.041   9.790  68.650  1.00  0.00    -0.163 N  
HETATM   19  C   UNL     1     -10.726   9.143  69.644  1.00  0.00    -0.225 C  
HETATM   20  H   UNL     1      -9.967   9.283  67.768  1.00  0.00     0.000 HD 
HETATM   21  O   UNL     1     -11.008   7.957  69.467  1.00  0.00    -0.191 OA 
HETATM   22  C   UNL     1     -11.082   9.827  70.938  1.00  0.00    -0.428 C  
ENDBRANCH  12  18
ENDBRANCH   3   6
TORSDOF 2
ENDMDL
MODEL      176
REMARK 921   NORMALIZED FREE ENERGY PREDICTED BY IDOCK:   -2.21 KCAL/MOL
REMARK 922        TOTAL FREE ENERGY PREDICTED BY IDOCK:   -2.90 KCAL/MOL
REMARK 923 INTER-LIGAND FREE ENERGY PREDICTED BY IDOCK:   -2.83 KCAL/MOL
REMARK 924 INTRA-LIGAND FREE ENERGY PREDICTED BY IDOCK:   -0.07 KCAL/MOL
REMARK 927      BINDING AFFINITY PREDICTED BY RF-SCORE:    0.00 PKD
ROOT
HETATM    1  C   UNL     1      -9.958   4.222  71.034  1.00  0.00    -0.153 C  
HETATM    2  N   UNL     1      -9.297   5.308  70.354  1.00  0.00    -0.153 N  
HETATM    3  C   UNL     1      -9.944   6.098  69.407  1.00  0.00    -0.166 C  
HETATM    4  H   UNL     1      -8.321   5.504  70.574  1.00  0.00     0.000 HD 
HETATM    5  O   UNL     1     -11.121   5.953  69.107  1.00  0.00    -0.351 OA 
ENDROOT
BRANCH   3   6
HETATM    6  C   UNL     1      -9.102   7.147  68.747  1.00  0.00    -0.134 A  
HETATM    7  C   UNL     1      -9.187   8.509  69.147  1.00  0.00    -0.150 A  
HETATM    8  I   UNL     1     -10.264   9.062  70.937  1.00  0.00    -0.389 I  
HETATM    9  C   UNL     1      -8.477   9.522  68.445  1.00  0.00    -0.119 A  
HETATM   10  C   UNL     1      -8.798  10.954  68.684  1.00  0.00    -0.158 C  
HETATM   11  C   UNL     1      -7.570   9.138  67.431  1.00  0.00    -0.085 A  
HETATM   12  C   UNL     1      -7.397   7.778  67.087  1.00  0.00    -0.091 A  
HETATM   13  I   UNL     1      -6.412  10.596  66.345  1.00  0.00    -0.127 I  
HETATM   14  O   UNL     1      -7.743  11.724  69.015  1.00  0.00    -0.083 OA 
HETATM   15  O   UNL     1      -9.933  11.387  68.586  1.00  0.00    -0.202 OA 
HETATM   16  C   UNL     1      -8.241   6.817  67.677  1.00  0.00    -0.119 A  
HETATM   17  I   UNL     1      -8.519   4.953  66.586  1.00  0.00    -0.104 I  
BRANCH  12  18
HETATM   18  N   UNL     1      -6.485   7.461  66.053  1.00  0.00    -0.044 N  
HETATM   19  C   UNL     1      -6.698   7.400  64.701  1.00  0.00    -0.046 C  
HETATM   20  H   UNL     1      -5.536   7.248  66.357  1.00  0.00     0.000 HD 
HETATM   21  O   UNL     1      -5.810   6.909  64.004  1.00  0.00    -0.031 OA 
HETATM   22  C   UNL     1      -7.989   7.863  64.079  1.00  0.00    -0.124 C  
ENDBRANCH  12  18
ENDBRANCH   3   6
TORSDOF 2
ENDMDL
MODEL      177
REMARK 921   NORMALIZED FREE ENERGY PREDICTED BY IDOCK:   -2.21 KCAL/MOL
REMARK 922        TOTAL FREE ENERGY PREDICTED BY IDOCK:   -2.90 KCAL/MOL
REMARK 923 INTER-LIGAND FREE ENERGY PREDICTED BY IDOCK:   -2.83 KCAL/MOL
REMARK 924 INTRA-LIGAND FREE ENERGY PREDICTED BY IDOCK:   -0.07 KCAL/MOL
REMARK 927      BINDING AFFINITY PREDICTED BY RF-SCORE:    0.00 PKD
ROOT
HETATM    1  C   UNL     1      -9.716  10.415  64.541  1.00  0.00    -0.330 C  
HETATM    2  N   UNL     1      -9.738   9.087  65.103  1.00  0.00    -0.367 N  
HETATM    3  C   UNL     1      -8.629   8.524  65.729  1.00  0.00    -0.168 C  
HETATM    4  H   UNL     1     -10.597   8.541  65.039  1.00  0.00     0.000 HD 
HETATM    5  O   UNL     1      -7.571   9.120  65.877  1.00  0.00    -0.093 OA 
ENDROOT
BRANCH   3   6
HETATM    6  C   UNL     1      -8.795   7.114  66.206  1.00  0.00    -0.166 A  
HETATM    7  C   UNL     1      -9.051   6.833  67.577  1.00  0.00    -0.117 A  
HETATM    8  I   UNL     1      -9.552   8.426  68.948  1.00  0.00    -0.169 I  
HETATM    9  C   UNL     1      -9.092   5.494  68.052  1.00  0.00    -0.110 A  
HETATM   10  C   UNL     1      -9.069   5.224  69.514  1.00  0.00    -0.112 C  
HETATM   11  C   UNL     1      -9.018   4.437  67.116  1.00  0.00    -0.119 A  
HETATM   12  C   UNL     1      -8.865   4.698  65.735  1.00  0.00    -0.127 A  
HETATM   13  I   UNL     1      -9.122   2.374  67.734  1.00  0.00    -0.176 I  
HETATM   14  O   UNL     1     -10.074   4.447  69.964  1.00  0.00    -0.218 OA 
HETATM   15  O   UNL     1      -8.203   5.678  70.242  1.00  0.00    -0.101 OA 
HETATM   16  C   UNL     1      -8.651   6.026  65.317  1.00  0.00    -0.099 A  
HETATM   17  I   UNL     1      -7.639   6.303  63.408  1.00  0.00    -0.085 I  
BRANCH  12  18
HETATM   18  N   UNL     1      -8.782   3.597  64.852  1.00  0.00    -0.112 N  
HETATM   19  C   UNL     1      -7.677   2.899  64.441  1.00  0.00    -0.077 C  
HETATM   20  H   UNL     1      -9.670   3.277  64.467  1.00  0.00     0.000 HD 
HETATM   21  O   UNL     1      -7.816   2.103  63.512  1.00  0.00    -0.059 OA 
HETATM   22  C   UNL     1      -6.321   3.126  65.056  1.00  0.00    -0.024 C  
ENDBRANCH  12  18
ENDBRANCH   3   6
TORSDOF 2
ENDMDL
MODEL      178
REMARK 921   NORMALIZED FREE ENERGY PREDICTED BY IDOCK:   -2.20 KCAL/MOL
REMARK 922        TOTAL FREE ENERGY PREDICTED BY IDOCK:   -2.89 KCAL/MOL
REMARK 923 INTER-LIGAND FREE ENERGY PREDICTED BY IDOCK:   -2.56 KCAL/MOL
REMARK 924 INTRA-LIGAND FREE ENERGY PREDICTED BY IDOCK:   -0.33 KCAL/MOL
REMARK 927      BINDING AFFINITY PREDICTED BY RF-SCORE:    0.00 PKD
ROOT
HETATM    1  C   UNL     1      -6.922   6.198  71.310  1.00  0.00    -0.072 C  
HETATM    2  N   UNL     1      -7.040   6.199  69.873  1.00  0.00    -0.070 N  
HETATM    3  C   UNL     1      -8.191   6.632  69.220  1.00  0.00    -0.124 C  
HETATM    4  H   UNL     1      -6.252   5.870  69.315  1.00  0.00     0.000 HD 
HETATM    5  O   UNL     1      -9.169   7.071  69.810  1.00  0.00    -0.148 OA 
ENDROOT
BRANCH   3   6
HETATM    6  C   UNL     1      -8.178   6.513  67.727  1.00  0.00    -0.115 A  
HETATM    7  C   UNL     1      -8.407   5.260  67.093  1.00  0.00    -0.107 A  
HETATM    8  I   UNL     1      -9.123   3.569  68.232  1.00  0.00    -0.225 I  
HETATM    9  C   UNL     1      -8.281   5.121  65.684  1.00  0.00    -0.119 A  
HETATM   10  C   UNL     1      -8.236   3.766  65.072  1.00  0.00    -0.097 C  
HETATM   11  C   UNL     1      -8.062   6.279  64.903  1.00  0.00    -0.130 A  
HETATM   12  C   UNL     1      -7.931   7.550  65.508  1.00  0.00    -0.121 A  
HETATM   13  I   UNL     1      -7.904   6.177  62.755  1.00  0.00    -0.060 I  
HETATM   14  O   UNL     1      -9.137   3.556  64.093  1.00  0.00    -0.116 OA 
HETATM   15  O   UNL     1      -7.443   2.917  65.440  1.00  0.00    -0.070 OA 
HETATM   16  C   UNL     1      -7.886   7.630  66.914  1.00  0.00    -0.111 A  
HETATM   17  I   UNL     1      -6.900   9.375  67.766  1.00  0.00    -0.081 I  
BRANCH  12  18
HETATM   18  N   UNL     1      -7.698   8.667  64.672  1.00  0.00    -0.114 N  
HETATM   19  C   UNL     1      -8.515   9.734  64.407  1.00  0.00    -0.179 C  
HETATM   20  H   UNL     1      -6.795   8.678  64.199  1.00  0.00     0.000 HD 
HETATM   21  O   UNL     1      -8.189  10.490  63.492  1.00  0.00    -0.155 OA 
HETATM   22  C   UNL     1      -9.798   9.958  65.163  1.00  0.00    -0.348 C  
ENDBRANCH  12  18
ENDBRANCH   3   6
TORSDOF 2
ENDMDL
MODEL      179
REMARK 921   NORMALIZED FREE ENERGY PREDICTED BY IDOCK:   -2.17 KCAL/MOL
REMARK 922        TOTAL FREE ENERGY PREDICTED BY IDOCK:   -2.85 KCAL/MOL
REMARK 923 INTER-LIGAND FREE ENERGY PREDICTED BY IDOCK:   -2.79 KCAL/MOL
REMARK 924 INTRA-LIGAND FREE ENERGY PREDICTED BY IDOCK:   -0.06 KCAL/MOL
REMARK 927      BINDING AFFINITY PREDICTED BY RF-SCORE:    0.00 PKD
ROOT
HETATM    1  C   UNL     1      -7.060  12.782  69.291  1.00  0.00     0.103 C  
HETATM    2  N   UNL     1      -7.705  11.576  68.832  1.00  0.00    -0.248 N  
HETATM    3  C   UNL     1      -7.084  10.331  68.887  1.00  0.00    -0.075 C  
HETATM    4  H   UNL     1      -8.650  11.639  68.453  1.00  0.00     0.000 HD 
HETATM    5  O   UNL     1      -5.966  10.162  69.354  1.00  0.00    -0.037 OA 
ENDROOT
BRANCH   3   6
HETATM    6  C   UNL     1      -7.864   9.188  68.315  1.00  0.00    -0.102 A  
HETATM    7  C   UNL     1      -8.558   8.281  69.164  1.00  0.00    -0.138 A  
HETATM    8  I   UNL     1      -8.803   8.716  71.266  1.00  0.00    -0.283 I  
HETATM    9  C   UNL     1      -9.201   7.130  68.632  1.00  0.00    -0.135 A  
HETATM   10  C   UNL     1      -9.666   6.052  69.544  1.00  0.00    -0.147 C  
HETATM   11  C   UNL     1      -9.263   6.973  67.228  1.00  0.00    -0.129 A  
HETATM   12  C   UNL     1      -8.665   7.918  66.363  1.00  0.00    -0.153 A  
HETATM   13  I   UNL     1     -10.258   5.287  66.326  1.00  0.00    -0.181 I  
HETATM   14  O   UNL     1     -10.963   5.713  69.408  1.00  0.00    -0.320 OA 
HETATM   15  O   UNL     1      -8.922   5.522  70.352  1.00  0.00    -0.134 OA 
HETATM   16  C   UNL     1      -7.887   8.950  66.923  1.00  0.00    -0.101 A  
HETATM   17  I   UNL     1      -6.374   9.845  65.637  1.00  0.00    -0.105 I  
BRANCH  12  18
HETATM   18  N   UNL     1      -8.749   7.695  64.970  1.00  0.00    -0.371 N  
HETATM   19  C   UNL     1      -7.936   6.944  64.163  1.00  0.00    -0.078 C  
HETATM   20  H   UNL     1      -9.525   8.159  64.499  1.00  0.00     0.000 HD 
HETATM   21  O   UNL     1      -8.080   7.053  62.945  1.00  0.00    -0.111 OA 
HETATM   22  C   UNL     1      -6.861   6.053  64.728  1.00  0.00    -0.047 C  
ENDBRANCH  12  18
ENDBRANCH   3   6
TORSDOF 2
ENDMDL
MODEL      180
REMARK 921   NORMALIZED FREE ENERGY PREDICTED BY IDOCK:   -2.16 KCAL/MOL
REMARK 922        TOTAL FREE ENERGY PREDICTED BY IDOCK:   -2.84 KCAL/MOL
REMARK 923 INTER-LIGAND FREE ENERGY PREDICTED BY IDOCK:   -2.80 KCAL/MOL
REMARK 924 INTRA-LIGAND FREE ENERGY PREDICTED BY IDOCK:   -0.04 KCAL/MOL
REMARK 927      BINDING AFFINITY PREDICTED BY RF-SCORE:    0.00 PKD
ROOT
HETATM    1  C   UNL     1     -10.339   5.061  66.427  1.00  0.00    -0.294 C  
HETATM    2  N   UNL     1      -9.583   5.576  67.541  1.00  0.00    -0.117 N  
HETATM    3  C   UNL     1     -10.191   6.174  68.642  1.00  0.00    -0.181 C  
HETATM    4  H   UNL     1      -8.566   5.499  67.522  1.00  0.00     0.000 HD 
HETATM    5  O   UNL     1     -11.404   6.278  68.761  1.00  0.00    -0.356 OA 
ENDROOT
BRANCH   3   6
HETATM    6  C   UNL     1      -9.262   6.712  69.687  1.00  0.00    -0.145 A  
HETATM    7  C   UNL     1      -8.572   7.939  69.488  1.00  0.00    -0.137 A  
HETATM    8  I   UNL     1      -9.096   9.238  67.842  1.00  0.00    -0.141 I  
HETATM    9  C   UNL     1      -7.604   8.393  70.425  1.00  0.00    -0.072 A  
HETATM   10  C   UNL     1      -6.692   9.511  70.068  1.00  0.00    -0.070 C  
HETATM   11  C   UNL     1      -7.438   7.677  71.633  1.00  0.00    -0.076 A  
HETATM   12  C   UNL     1      -8.189   6.507  71.894  1.00  0.00    -0.108 A  
HETATM   13  I   UNL     1      -6.031   8.313  73.137  1.00  0.00    -0.088 I  
HETATM   14  O   UNL     1      -6.680  10.536  70.943  1.00  0.00    -0.323 OA 
HETATM   15  O   UNL     1      -6.012   9.494  69.056  1.00  0.00    -0.041 OA 
HETATM   16  C   UNL     1      -9.010   5.988  70.874  1.00  0.00    -0.143 A  
HETATM   17  I   UNL     1      -9.479   3.864  70.978  1.00  0.00    -0.238 I  
BRANCH  12  18
HETATM   18  N   UNL     1      -7.966   5.829  73.114  1.00  0.00    -0.110 N  
HETATM   19  C   UNL     1      -7.067   4.835  73.399  1.00  0.00    -0.076 C  
HETATM   20  H   UNL     1      -8.558   6.120  73.891  1.00  0.00     0.000 HD 
HETATM   21  O   UNL     1      -7.183   4.250  74.476  1.00  0.00    -0.068 OA 
HETATM   22  C   UNL     1      -6.001   4.423  72.417  1.00  0.00    -0.016 C  
ENDBRANCH  12  18
ENDBRANCH   3   6
TORSDOF 2
ENDMDL
MODEL      181
REMARK 921   NORMALIZED FREE ENERGY PREDICTED BY IDOCK:   -2.10 KCAL/MOL
REMARK 922        TOTAL FREE ENERGY PREDICTED BY IDOCK:   -2.77 KCAL/MOL
REMARK 923 INTER-LIGAND FREE ENERGY PREDICTED BY IDOCK:   -2.33 KCAL/MOL
REMARK 924 INTRA-LIGAND FREE ENERGY PREDICTED BY IDOCK:   -0.44 KCAL/MOL
REMARK 927      BINDING AFFINITY PREDICTED BY RF-SCORE:    0.00 PKD
ROOT
HETATM    1  C   UNL     1      -5.812   4.765  71.182  1.00  0.00    -0.017 C  
HETATM    2  N   UNL     1      -6.429   5.981  70.714  1.00  0.00    -0.039 N  
HETATM    3  C   UNL     1      -7.769   6.041  70.340  1.00  0.00    -0.097 C  
HETATM    4  H   UNL     1      -5.864   6.827  70.655  1.00  0.00     0.000 HD 
HETATM    5  O   UNL     1      -8.526   5.082  70.409  1.00  0.00    -0.097 OA 
ENDROOT
BRANCH   3   6
HETATM    6  C   UNL     1      -8.242   7.363  69.818  1.00  0.00    -0.129 A  
HETATM    7  C   UNL     1      -7.875   7.808  68.519  1.00  0.00    -0.120 A  
HETATM    8  I   UNL     1      -6.921   6.459  67.126  1.00  0.00    -0.076 I  
HETATM    9  C   UNL     1      -8.225   9.110  68.067  1.00  0.00    -0.112 A  
HETATM   10  C   UNL     1      -7.595   9.665  66.839  1.00  0.00    -0.095 C  
HETATM   11  C   UNL     1      -9.068   9.907  68.875  1.00  0.00    -0.156 A  
HETATM   12  C   UNL     1      -9.527   9.440  70.129  1.00  0.00    -0.240 A  
HETATM   13  I   UNL     1      -9.694  11.874  68.255  1.00  0.00    -0.140 I  
HETATM   14  O   UNL     1      -8.461  10.103  65.905  1.00  0.00    -0.132 OA 
HETATM   15  O   UNL     1      -6.385   9.711  66.698  1.00  0.00    -0.064 OA 
HETATM   16  C   UNL     1      -9.021   8.222  70.624  1.00  0.00    -0.151 A  
HETATM   17  I   UNL     1      -9.078   7.943  72.783  1.00  0.00    -0.349 I  
BRANCH  12  18
HETATM   18  N   UNL     1     -10.355  10.292  70.895  1.00  0.00    -0.109 N  
HETATM   19  C   UNL     1     -11.715  10.260  71.056  1.00  0.00    -0.370 C  
HETATM   20  H   UNL     1      -9.872  11.034  71.400  1.00  0.00     0.000 HD 
HETATM   21  O   UNL     1     -12.248  11.222  71.610  1.00  0.00    -0.106 OA 
HETATM   22  C   UNL     1     -12.550   9.123  70.529  1.00  0.00     0.267 C  
ENDBRANCH  12  18
ENDBRANCH   3   6
TORSDOF 2
ENDMDL
MODEL      182
REMARK 921   NORMALIZED FREE ENERGY PREDICTED BY IDOCK:   -2.09 KCAL/MOL
REMARK 922        TOTAL FREE ENERGY PREDICTED BY IDOCK:   -2.76 KCAL/MOL
REMARK 923 INTER-LIGAND FREE ENERGY PREDICTED BY IDOCK:   -2.76 KCAL/MOL
REMARK 924 INTRA-LIGAND FREE ENERGY PREDICTED BY IDOCK:   -0.01 KCAL/MOL
REMARK 927      BINDING AFFINITY PREDICTED BY RF-SCORE:    0.00 PKD
ROOT
HETATM    1  C   UNL     1     -10.784   6.948  66.616  1.00  0.00    -0.090 C  
HETATM    2  N   UNL     1     -10.001   6.765  67.813  1.00  0.00    -0.132 N  
HETATM    3  C   UNL     1     -10.578   6.450  69.040  1.00  0.00    -0.257 C  
HETATM    4  H   UNL     1      -8.988   6.870  67.758  1.00  0.00     0.000 HD 
HETATM    5  O   UNL     1     -11.779   6.276  69.189  1.00  0.00    -0.201 OA 
ENDROOT
BRANCH   3   6
HETATM    6  C   UNL     1      -9.634   6.352  70.199  1.00  0.00    -0.173 A  
HETATM    7  C   UNL     1      -9.277   7.507  70.949  1.00  0.00    -0.153 A  
HETATM    8  I   UNL     1     -10.341   9.367  70.671  1.00  0.00    -0.349 I  
HETATM    9  C   UNL     1      -8.293   7.438  71.973  1.00  0.00    -0.117 A  
HETATM   10  C   UNL     1      -7.725   8.688  72.543  1.00  0.00     0.055 C  
HETATM   11  C   UNL     1      -7.775   6.173  72.334  1.00  0.00    -0.100 A  
HETATM   12  C   UNL     1      -8.193   4.998  71.667  1.00  0.00    -0.115 A  
HETATM   13  I   UNL     1      -6.317   5.959  73.907  1.00  0.00    -0.072 I  
HETATM   14  O   UNL     1      -7.798   8.784  73.885  1.00  0.00    -0.411 OA 
HETATM   15  O   UNL     1      -7.235   9.555  71.840  1.00  0.00    -0.182 OA 
HETATM   16  C   UNL     1      -9.034   5.120  70.543  1.00  0.00    -0.134 A  
HETATM   17  I   UNL     1      -8.994   3.485  69.105  1.00  0.00    -0.228 I  
BRANCH  12  18
HETATM   18  N   UNL     1      -7.626   3.766  72.065  1.00  0.00    -0.057 N  
HETATM   19  C   UNL     1      -6.489   3.150  71.613  1.00  0.00    -0.015 C  
HETATM   20  H   UNL     1      -8.136   3.264  72.792  1.00  0.00     0.000 HD 
HETATM   21  O   UNL     1      -6.292   1.986  71.960  1.00  0.00    -0.013 OA 
HETATM   22  C   UNL     1      -5.530   3.841  70.680  1.00  0.00    -0.012 C  
ENDBRANCH  12  18
ENDBRANCH   3   6
TORSDOF 2
ENDMDL
MODEL      183
REMARK 921   NORMALIZED FREE ENERGY PREDICTED BY IDOCK:   -2.09 KCAL/MOL
REMARK 922        TOTAL FREE ENERGY PREDICTED BY IDOCK:   -2.76 KCAL/MOL
REMARK 923 INTER-LIGAND FREE ENERGY PREDICTED BY IDOCK:   -2.30 KCAL/MOL
REMARK 924 INTRA-LIGAND FREE ENERGY PREDICTED BY IDOCK:   -0.46 KCAL/MOL
REMARK 927      BINDING AFFINITY PREDICTED BY RF-SCORE:    0.00 PKD
ROOT
HETATM    1  C   UNL     1      -8.739   1.908  66.826  1.00  0.00    -0.116 C  
HETATM    2  N   UNL     1      -8.339   3.284  66.663  1.00  0.00    -0.099 N  
HETATM    3  C   UNL     1      -9.252   4.300  66.395  1.00  0.00    -0.147 C  
HETATM    4  H   UNL     1      -7.350   3.521  66.748  1.00  0.00     0.000 HD 
HETATM    5  O   UNL     1     -10.458   4.109  66.309  1.00  0.00    -0.027 OA 
ENDROOT
BRANCH   3   6
HETATM    6  C   UNL     1      -8.670   5.665  66.194  1.00  0.00    -0.136 A  
HETATM    7  C   UNL     1      -8.081   6.031  64.953  1.00  0.00    -0.133 A  
HETATM    8  I   UNL     1      -8.313   4.769  63.214  1.00  0.00    -0.107 I  
HETATM    9  C   UNL     1      -7.424   7.283  64.797  1.00  0.00    -0.093 A  
HETATM   10  C   UNL     1      -6.571   7.530  63.604  1.00  0.00    -0.053 C  
HETATM   11  C   UNL     1      -7.489   8.221  65.852  1.00  0.00    -0.081 A  
HETATM   12  C   UNL     1      -8.158   7.913  67.059  1.00  0.00    -0.116 A  
HETATM   13  I   UNL     1      -6.567  10.163  65.692  1.00  0.00    -0.116 I  
HETATM   14  O   UNL     1      -6.880   8.641  62.906  1.00  0.00    -0.091 OA 
HETATM   15  O   UNL     1      -5.666   6.777  63.289  1.00  0.00    -0.033 OA 
HETATM   16  C   UNL     1      -8.645   6.604  67.249  1.00  0.00    -0.119 A  
HETATM   17  I   UNL     1      -8.906   5.943  69.307  1.00  0.00    -0.129 I  
BRANCH  12  18
HETATM   18  N   UNL     1      -8.174   8.888  68.082  1.00  0.00    -0.113 N  
HETATM   19  C   UNL     1      -9.195   9.711  68.477  1.00  0.00    -0.137 C  
HETATM   20  H   UNL     1      -7.301   8.995  68.598  1.00  0.00     0.000 HD 
HETATM   21  O   UNL     1      -8.925  10.625  69.257  1.00  0.00    -0.159 OA 
HETATM   22  C   UNL     1     -10.594   9.552  67.943  1.00  0.00    -0.299 C  
ENDBRANCH  12  18
ENDBRANCH   3   6
TORSDOF 2
ENDMDL
MODEL      184
REMARK 921   NORMALIZED FREE ENERGY PREDICTED BY IDOCK:   -1.97 KCAL/MOL
REMARK 922        TOTAL FREE ENERGY PREDICTED BY IDOCK:   -2.63 KCAL/MOL
REMARK 923 INTER-LIGAND FREE ENERGY PREDICTED BY IDOCK:   -2.59 KCAL/MOL
REMARK 924 INTRA-LIGAND FREE ENERGY PREDICTED BY IDOCK:   -0.03 KCAL/MOL
REMARK 927      BINDING AFFINITY PREDICTED BY RF-SCORE:    0.00 PKD
ROOT
HETATM    1  C   UNL     1      -5.719   5.529  63.800  1.00  0.00    -0.014 C  
HETATM    2  N   UNL     1      -6.516   5.850  64.957  1.00  0.00    -0.041 N  
HETATM    3  C   UNL     1      -7.895   5.662  64.988  1.00  0.00    -0.101 C  
HETATM    4  H   UNL     1      -6.053   6.229  65.783  1.00  0.00     0.000 HD 
HETATM    5  O   UNL     1      -8.526   5.184  64.055  1.00  0.00    -0.134 OA 
ENDROOT
BRANCH   3   6
HETATM    6  C   UNL     1      -8.586   6.102  66.242  1.00  0.00    -0.136 A  
HETATM    7  C   UNL     1      -8.815   7.481  66.504  1.00  0.00    -0.148 A  
HETATM    8  I   UNL     1      -8.494   8.958  64.960  1.00  0.00    -0.155 I  
HETATM    9  C   UNL     1      -9.364   7.907  67.744  1.00  0.00    -0.153 A  
HETATM   10  C   UNL     1      -9.328   9.346  68.117  1.00  0.00    -0.133 C  
HETATM   11  C   UNL     1      -9.814   6.930  68.661  1.00  0.00    -0.145 A  
HETATM   12  C   UNL     1      -9.687   5.551  68.375  1.00  0.00    -0.130 A  
HETATM   13  I   UNL     1     -10.705   7.478  70.546  1.00  0.00    -0.262 I  
HETATM   14  O   UNL     1     -10.520   9.877  68.451  1.00  0.00    -0.189 OA 
HETATM   15  O   UNL     1      -8.292   9.989  68.113  1.00  0.00    -0.112 OA 
HETATM   16  C   UNL     1      -8.981   5.161  67.220  1.00  0.00    -0.112 A  
HETATM   17  I   UNL     1      -8.114   3.163  67.227  1.00  0.00    -0.094 I  
BRANCH  12  18
HETATM   18  N   UNL     1     -10.142   4.624  69.340  1.00  0.00    -0.185 N  
HETATM   19  C   UNL     1      -9.461   4.060  70.387  1.00  0.00    -0.182 C  
HETATM   20  H   UNL     1     -11.115   4.334  69.243  1.00  0.00     0.000 HD 
HETATM   21  O   UNL     1      -9.998   3.125  70.981  1.00  0.00    -0.101 OA 
HETATM   22  C   UNL     1      -8.081   4.520  70.776  1.00  0.00    -0.068 C  
ENDBRANCH  12  18
ENDBRANCH   3   6
TORSDOF 2
ENDMDL
MODEL      185
REMARK 921   NORMALIZED FREE ENERGY PREDICTED BY IDOCK:   -1.77 KCAL/MOL
REMARK 922        TOTAL FREE ENERGY PREDICTED BY IDOCK:   -2.41 KCAL/MOL
REMARK 923 INTER-LIGAND FREE ENERGY PREDICTED BY IDOCK:   -2.37 KCAL/MOL
REMARK 924 INTRA-LIGAND FREE ENERGY PREDICTED BY IDOCK:   -0.04 KCAL/MOL
REMARK 927      BINDING AFFINITY PREDICTED BY RF-SCORE:    0.00 PKD
ROOT
HETATM    1  C   UNL     1     -11.071   5.280  66.001  1.00  0.00     0.225 C  
HETATM    2  N   UNL     1     -10.445   5.014  67.272  1.00  0.00    -0.138 N  
HETATM    3  C   UNL     1      -9.486   5.860  67.822  1.00  0.00    -0.113 C  
HETATM    4  H   UNL     1     -10.714   4.175  67.786  1.00  0.00     0.000 HD 
HETATM    5  O   UNL     1      -9.129   6.902  67.289  1.00  0.00    -0.122 OA 
ENDROOT
BRANCH   3   6
HETATM    6  C   UNL     1      -8.887   5.412  69.120  1.00  0.00    -0.110 A  
HETATM    7  C   UNL     1      -7.917   4.373  69.155  1.00  0.00    -0.068 A  
HETATM    8  I   UNL     1      -7.017   3.650  67.328  1.00  0.00    -0.056 I  
HETATM    9  C   UNL     1      -7.434   3.866  70.393  1.00  0.00    -0.041 A  
HETATM   10  C   UNL     1      -6.651   2.602  70.423  1.00  0.00    -0.032 C  
HETATM   11  C   UNL     1      -7.827   4.507  71.590  1.00  0.00    -0.091 A  
HETATM   12  C   UNL     1      -8.715   5.607  71.569  1.00  0.00    -0.132 A  
HETATM   13  I   UNL     1      -7.110   3.843  73.512  1.00  0.00    -0.067 I  
HETATM   14  O   UNL     1      -5.456   2.689  71.040  1.00  0.00    -0.007 OA 
HETATM   15  O   UNL     1      -7.067   1.572  69.922  1.00  0.00    -0.033 OA 
HETATM   16  C   UNL     1      -9.311   5.972  70.346  1.00  0.00    -0.160 A  
HETATM   17  I   UNL     1     -11.197   7.055  70.458  1.00  0.00    -0.360 I  
BRANCH  12  18
HETATM   18  N   UNL     1      -9.080   6.194  72.802  1.00  0.00    -0.130 N  
HETATM   19  C   UNL     1     -10.119   5.876  73.637  1.00  0.00    -0.208 C  
HETATM   20  H   UNL     1      -8.488   6.963  73.113  1.00  0.00     0.000 HD 
HETATM   21  O   UNL     1     -10.368   6.651  74.561  1.00  0.00    -0.328 OA 
HETATM   22  C   UNL     1     -10.970   4.654  73.415  1.00  0.00    -0.395 C  
ENDBRANCH  12  18
ENDBRANCH   3   6
TORSDOF 2
ENDMDL
MODEL      186
REMARK 921   NORMALIZED FREE ENERGY PREDICTED BY IDOCK:   -1.74 KCAL/MOL
REMARK 922        TOTAL FREE ENERGY PREDICTED BY IDOCK:   -2.37 KCAL/MOL
REMARK 923 INTER-LIGAND FREE ENERGY PREDICTED BY IDOCK:   -3.11 KCAL/MOL
REMARK 924 INTRA-LIGAND FREE ENERGY PREDICTED BY IDOCK:    0.73 KCAL/MOL
REMARK 927      BINDING AFFINITY PREDICTED BY RF-SCORE:    0.00 PKD
ROOT
HETATM    1  C   UNL     1      -8.746   7.034  67.683  1.00  0.00    -0.121 C  
HETATM    2  N   UNL     1      -8.575   8.435  67.977  1.00  0.00    -0.134 N  
HETATM    3  C   UNL     1      -9.414   9.415  67.454  1.00  0.00    -0.131 C  
HETATM    4  H   UNL     1      -7.812   8.718  68.592  1.00  0.00     0.000 HD 
HETATM    5  O   UNL     1     -10.371   9.161  66.735  1.00  0.00    -0.258 OA 
ENDROOT
BRANCH   3   6
HETATM    6  C   UNL     1      -9.066  10.828  67.806  1.00  0.00    -0.151 A  
HETATM    7  C   UNL     1      -7.714  11.268  67.807  1.00  0.00    -0.113 A  
HETATM    8  I   UNL     1      -6.156  10.027  66.969  1.00  0.00    -0.058 I  
HETATM    9  C   UNL     1      -7.371  12.574  68.254  1.00  0.00    -0.115 A  
HETATM   10  C   UNL     1      -5.949  12.917  68.523  1.00  0.00    -0.067 C  
HETATM   11  C   UNL     1      -8.409  13.481  68.564  1.00  0.00    -0.097 A  
HETATM   12  C   UNL     1      -9.766  13.093  68.472  1.00  0.00    -0.137 A  
HETATM   13  I   UNL     1      -7.991  15.497  69.202  1.00  0.00    -0.215 I  
HETATM   14  O   UNL     1      -5.498  14.011  67.879  1.00  0.00    -0.154 OA 
HETATM   15  O   UNL     1      -5.253  12.250  69.269  1.00  0.00    -0.066 OA 
HETATM   16  C   UNL     1     -10.067  11.744  68.198  1.00  0.00    -0.192 A  
HETATM   17  I   UNL     1     -12.015  11.022  68.851  1.00  0.00     0.140 I  
BRANCH  12  18
HETATM   18  N   UNL     1     -10.757  14.043  68.811  1.00  0.00    -0.256 N  
HETATM   19  C   UNL     1     -11.307  15.031  68.038  1.00  0.00    -0.327 C  
HETATM   20  H   UNL     1     -11.111  13.985  69.765  1.00  0.00     0.000 HD 
HETATM   21  O   UNL     1     -12.010  15.872  68.600  1.00  0.00    -0.338 OA 
HETATM   22  C   UNL     1     -11.028  15.133  66.562  1.00  0.00    -0.318 C  
ENDBRANCH  12  18
ENDBRANCH   3   6
TORSDOF 2
ENDMDL
MODEL      187
REMARK 921   NORMALIZED FREE ENERGY PREDICTED BY IDOCK:   -1.59 KCAL/MOL
REMARK 922        TOTAL FREE ENERGY PREDICTED BY IDOCK:   -2.20 KCAL/MOL
REMARK 923 INTER-LIGAND FREE ENERGY PREDICTED BY IDOCK:   -2.15 KCAL/MOL
REMARK 924 INTRA-LIGAND FREE ENERGY PREDICTED BY IDOCK:   -0.05 KCAL/MOL
REMARK 927      BINDING AFFINITY PREDICTED BY RF-SCORE:    0.00 PKD
ROOT
HETATM    1  C   UNL     1      -8.109   4.152  63.199  1.00  0.00    -0.081 C  
HETATM    2  N   UNL     1      -8.173   4.960  64.391  1.00  0.00    -0.117 N  
HETATM    3  C   UNL     1      -7.033   5.385  65.067  1.00  0.00    -0.053 C  
HETATM    4  H   UNL     1      -9.088   5.230  64.752  1.00  0.00     0.000 HD 
HETATM    5  O   UNL     1      -5.898   5.133  64.686  1.00  0.00    -0.017 OA 
ENDROOT
BRANCH   3   6
HETATM    6  C   UNL     1      -7.271   6.166  66.323  1.00  0.00    -0.072 A  
HETATM    7  C   UNL     1      -7.571   5.506  67.547  1.00  0.00    -0.089 A  
HETATM    8  I   UNL     1      -7.351   3.364  67.720  1.00  0.00    -0.058 I  
HETATM    9  C   UNL     1      -7.912   6.247  68.711  1.00  0.00    -0.102 A  
HETATM   10  C   UNL     1      -8.499   5.553  69.888  1.00  0.00    -0.116 C  
HETATM   11  C   UNL     1      -7.810   7.657  68.674  1.00  0.00    -0.121 A  
HETATM   12  C   UNL     1      -7.415   8.327  67.493  1.00  0.00    -0.094 A  
HETATM   13  I   UNL     1      -8.258   8.865  70.403  1.00  0.00    -0.221 I  
HETATM   14  O   UNL     1      -7.856   5.767  71.052  1.00  0.00    -0.101 OA 
HETATM   15  O   UNL     1      -9.486   4.844  69.794  1.00  0.00    -0.126 OA 
HETATM   16  C   UNL     1      -7.255   7.578  66.311  1.00  0.00    -0.074 A  
HETATM   17  I   UNL     1      -7.461   8.658  64.431  1.00  0.00    -0.128 I  
BRANCH  12  18
HETATM   18  N   UNL     1      -7.348   9.739  67.518  1.00  0.00    -0.090 N  
HETATM   19  C   UNL     1      -8.331  10.657  67.260  1.00  0.00    -0.120 C  
HETATM   20  H   UNL     1      -6.438  10.129  67.762  1.00  0.00     0.000 HD 
HETATM   21  O   UNL     1      -7.997  11.836  67.144  1.00  0.00    -0.152 OA 
HETATM   22  C   UNL     1      -9.768  10.248  67.066  1.00  0.00    -0.217 C  
ENDBRANCH  12  18
ENDBRANCH   3   6
TORSDOF 2
ENDMDL
MODEL      188
REMARK 921   NORMALIZED FREE ENERGY PREDICTED BY IDOCK:   -1.14 KCAL/MOL
REMARK 922        TOTAL FREE ENERGY PREDICTED BY IDOCK:   -1.70 KCAL/MOL
REMARK 923 INTER-LIGAND FREE ENERGY PREDICTED BY IDOCK:   -2.56 KCAL/MOL
REMARK 924 INTRA-LIGAND FREE ENERGY PREDICTED BY IDOCK:    0.86 KCAL/MOL
REMARK 927      BINDING AFFINITY PREDICTED BY RF-SCORE:    0.00 PKD
ROOT
HETATM    1  C   UNL     1      -8.454  11.200  65.063  1.00  0.00     0.175 C  
HETATM    2  N   UNL     1      -8.221  10.458  66.277  1.00  0.00    -0.138 N  
HETATM    3  C   UNL     1      -9.243   9.801  66.956  1.00  0.00    -0.142 C  
HETATM    4  H   UNL     1      -7.274  10.413  66.652  1.00  0.00     0.000 HD 
HETATM    5  O   UNL     1     -10.401   9.777  66.561  1.00  0.00    -0.234 OA 
ENDROOT
BRANCH   3   6
HETATM    6  C   UNL     1      -8.849   9.126  68.234  1.00  0.00    -0.129 A  
HETATM    7  C   UNL     1      -7.866   9.698  69.089  1.00  0.00    -0.090 A  
HETATM    8  I   UNL     1      -7.166  11.715  68.758  1.00  0.00    -0.065 I  
HETATM    9  C   UNL     1      -7.407   9.003  70.241  1.00  0.00    -0.076 A  
HETATM   10  C   UNL     1      -6.189   9.472  70.954  1.00  0.00    -0.086 C  
HETATM   11  C   UNL     1      -8.043   7.795  70.606  1.00  0.00    -0.103 A  
HETATM   12  C   UNL     1      -9.092   7.260  69.822  1.00  0.00    -0.141 A  
HETATM   13  I   UNL     1      -7.450   6.694  72.362  1.00  0.00    -0.093 I  
HETATM   14  O   UNL     1      -6.352   9.688  72.274  1.00  0.00    -0.278 OA 
HETATM   15  O   UNL     1      -5.129   9.647  70.377  1.00  0.00    -0.027 OA 
HETATM   16  C   UNL     1      -9.405   7.878  68.596  1.00  0.00    -0.145 A  
HETATM   17  I   UNL     1     -10.382   6.640  67.094  1.00  0.00    -0.403 I  
BRANCH  12  18
HETATM   18  N   UNL     1      -9.677   6.040  70.233  1.00  0.00    -0.162 N  
HETATM   19  C   UNL     1     -10.782   5.831  71.016  1.00  0.00    -0.258 C  
HETATM   20  H   UNL     1      -9.210   5.197  69.901  1.00  0.00     0.000 HD 
HETATM   21  O   UNL     1     -10.994   4.685  71.411  1.00  0.00     0.192 OA 
HETATM   22  C   UNL     1     -11.685   6.962  71.432  1.00  0.00    -0.358 C  
ENDBRANCH  12  18
ENDBRANCH   3   6
TORSDOF 2
ENDMDL
MODEL      189
REMARK 921   NORMALIZED FREE ENERGY PREDICTED BY IDOCK:   -0.96 KCAL/MOL
REMARK 922        TOTAL FREE ENERGY PREDICTED BY IDOCK:   -1.50 KCAL/MOL
REMARK 923 INTER-LIGAND FREE ENERGY PREDICTED BY IDOCK:   -2.20 KCAL/MOL
REMARK 924 INTRA-LIGAND FREE ENERGY PREDICTED BY IDOCK:    0.70 KCAL/MOL
REMARK 927      BINDING AFFINITY PREDICTED BY RF-SCORE:    0.00 PKD
ROOT
HETATM    1  C   UNL     1      -6.627   7.388  63.212  1.00  0.00    -0.054 C  
HETATM    2  N   UNL     1      -7.157   6.957  64.481  1.00  0.00    -0.058 N  
HETATM    3  C   UNL     1      -6.442   7.083  65.669  1.00  0.00    -0.047 C  
HETATM    4  H   UNL     1      -8.089   6.544  64.510  1.00  0.00     0.000 HD 
HETATM    5  O   UNL     1      -5.332   7.594  65.730  1.00  0.00    -0.028 OA 
ENDROOT
BRANCH   3   6
HETATM    6  C   UNL     1      -7.107   6.531  66.893  1.00  0.00    -0.073 A  
HETATM    7  C   UNL     1      -7.657   5.220  66.896  1.00  0.00    -0.088 A  
HETATM    8  I   UNL     1      -7.250   3.856  65.270  1.00  0.00    -0.069 I  
HETATM    9  C   UNL     1      -8.390   4.738  68.015  1.00  0.00    -0.102 A  
HETATM   10  C   UNL     1      -9.197   3.495  67.895  1.00  0.00    -0.183 C  
HETATM   11  C   UNL     1      -8.444   5.530  69.185  1.00  0.00    -0.104 A  
HETATM   12  C   UNL     1      -7.817   6.796  69.236  1.00  0.00    -0.110 A  
HETATM   13  I   UNL     1      -9.489   4.864  70.949  1.00  0.00    -0.273 I  
HETATM   14  O   UNL     1      -8.931   2.554  68.821  1.00  0.00    -0.093 OA 
HETATM   15  O   UNL     1     -10.031   3.348  67.018  1.00  0.00     0.078 OA 
HETATM   16  C   UNL     1      -7.251   7.319  68.056  1.00  0.00    -0.091 A  
HETATM   17  I   UNL     1      -7.049   9.485  67.942  1.00  0.00    -0.081 I  
BRANCH  12  18
HETATM   18  N   UNL     1      -7.921   7.545  70.430  1.00  0.00    -0.100 N  
HETATM   19  C   UNL     1      -8.931   8.371  70.848  1.00  0.00    -0.160 C  
HETATM   20  H   UNL     1      -7.133   7.459  71.070  1.00  0.00     0.000 HD 
HETATM   21  O   UNL     1      -8.721   9.079  71.833  1.00  0.00    -0.363 OA 
HETATM   22  C   UNL     1     -10.240   8.462  70.108  1.00  0.00    -0.198 C  
ENDBRANCH  12  18
ENDBRANCH   3   6
TORSDOF 2
ENDMDL
MODEL      190
REMARK 921   NORMALIZED FREE ENERGY PREDICTED BY IDOCK:   -0.95 KCAL/MOL
REMARK 922        TOTAL FREE ENERGY PREDICTED BY IDOCK:   -1.49 KCAL/MOL
REMARK 923 INTER-LIGAND FREE ENERGY PREDICTED BY IDOCK:   -2.62 KCAL/MOL
REMARK 924 INTRA-LIGAND FREE ENERGY PREDICTED BY IDOCK:    1.13 KCAL/MOL
REMARK 927      BINDING AFFINITY PREDICTED BY RF-SCORE:    0.00 PKD
ROOT
HETATM    1  C   UNL     1      -5.148  15.028  70.498  1.00  0.00    -0.122 C  
HETATM    2  N   UNL     1      -6.354  14.626  69.817  1.00  0.00    -0.140 N  
HETATM    3  C   UNL     1      -6.334  13.866  68.651  1.00  0.00    -0.090 C  
HETATM    4  H   UNL     1      -7.254  14.910  70.205  1.00  0.00     0.000 HD 
HETATM    5  O   UNL     1      -5.302  13.457  68.137  1.00  0.00    -0.088 OA 
ENDROOT
BRANCH   3   6
HETATM    6  C   UNL     1      -7.670  13.584  68.034  1.00  0.00    -0.143 A  
HETATM    7  C   UNL     1      -7.893  12.390  67.294  1.00  0.00    -0.166 A  
HETATM    8  I   UNL     1      -6.441  10.790  67.327  1.00  0.00    -0.089 I  
HETATM    9  C   UNL     1      -9.121  12.174  66.610  1.00  0.00    -0.206 A  
HETATM   10  C   UNL     1      -9.234  11.074  65.616  1.00  0.00    -0.210 C  
HETATM   11  C   UNL     1     -10.173  13.100  66.792  1.00  0.00    -0.252 A  
HETATM   12  C   UNL     1     -10.003  14.244  67.606  1.00  0.00    -0.225 A  
HETATM   13  I   UNL     1     -12.087  12.833  65.837  1.00  0.00    -0.168 I  
HETATM   14  O   UNL     1     -10.256  10.222  65.825  1.00  0.00    -0.257 OA 
HETATM   15  O   UNL     1      -8.452  10.960  64.687  1.00  0.00    -0.080 OA 
HETATM   16  C   UNL     1      -8.723  14.520  68.127  1.00  0.00    -0.171 A  
HETATM   17  I   UNL     1      -8.301  16.593  68.643  1.00  0.00    -0.215 I  
BRANCH  12  18
HETATM   18  N   UNL     1     -11.089  15.139  67.735  1.00  0.00    -0.303 N  
HETATM   19  C   UNL     1     -11.864  15.406  68.833  1.00  0.00    -0.329 C  
HETATM   20  H   UNL     1     -11.330  15.659  66.892  1.00  0.00     0.000 HD 
HETATM   21  O   UNL     1     -12.884  16.075  68.664  1.00  0.00     0.952 OA 
HETATM   22  C   UNL     1     -11.525  14.863  70.196  1.00  0.00    -0.320 C  
ENDBRANCH  12  18
ENDBRANCH   3   6
TORSDOF 2
ENDMDL
MODEL      191
REMARK 921   NORMALIZED FREE ENERGY PREDICTED BY IDOCK:   -0.92 KCAL/MOL
REMARK 922        TOTAL FREE ENERGY PREDICTED BY IDOCK:   -1.45 KCAL/MOL
REMARK 923 INTER-LIGAND FREE ENERGY PREDICTED BY IDOCK:   -1.25 KCAL/MOL
REMARK 924 INTRA-LIGAND FREE ENERGY PREDICTED BY IDOCK:   -0.20 KCAL/MOL
REMARK 927      BINDING AFFINITY PREDICTED BY RF-SCORE:    0.00 PKD
ROOT
HETATM    1  C   UNL     1      -7.355   7.544  63.059  1.00  0.00    -0.096 C  
HETATM    2  N   UNL     1      -8.030   7.516  64.333  1.00  0.00    -0.194 N  
HETATM    3  C   UNL     1      -7.479   8.078  65.481  1.00  0.00    -0.081 C  
HETATM    4  H   UNL     1      -8.945   7.069  64.395  1.00  0.00     0.000 HD 
HETATM    5  O   UNL     1      -6.403   8.661  65.490  1.00  0.00    -0.054 OA 
ENDROOT
BRANCH   3   6
HETATM    6  C   UNL     1      -8.278   7.913  66.737  1.00  0.00    -0.116 A  
HETATM    7  C   UNL     1      -9.370   8.777  67.026  1.00  0.00    -0.157 A  
HETATM    8  I   UNL     1     -10.132  10.124  65.518  1.00  0.00    -0.057 I  
HETATM    9  C   UNL     1     -10.055   8.697  68.269  1.00  0.00    -0.225 A  
HETATM   10  C   UNL     1     -10.990   9.781  68.673  1.00  0.00    -0.147 C  
HETATM   11  C   UNL     1      -9.728   7.650  69.161  1.00  0.00    -0.164 A  
HETATM   12  C   UNL     1      -8.712   6.718  68.846  1.00  0.00    -0.129 A  
HETATM   13  I   UNL     1     -10.745   7.416  71.047  1.00  0.00    -0.278 I  
HETATM   14  O   UNL     1     -12.229   9.368  69.006  1.00  0.00     1.183 OA 
HETATM   15  O   UNL     1     -10.652  10.952  68.694  1.00  0.00    -0.174 OA 
HETATM   16  C   UNL     1      -7.935   6.928  67.690  1.00  0.00    -0.113 A  
HETATM   17  I   UNL     1      -5.953   6.026  67.664  1.00  0.00    -0.019 I  
BRANCH  12  18
HETATM   18  N   UNL     1      -8.423   5.703  69.786  1.00  0.00    -0.106 N  
HETATM   19  C   UNL     1      -8.826   4.393  69.797  1.00  0.00    -0.084 C  
HETATM   20  H   UNL     1      -7.831   5.985  70.567  1.00  0.00     0.000 HD 
HETATM   21  O   UNL     1      -8.619   3.740  70.820  1.00  0.00    -0.069 OA 
HETATM   22  C   UNL     1      -9.546   3.775  68.628  1.00  0.00    -0.173 C  
ENDBRANCH  12  18
ENDBRANCH   3   6
TORSDOF 2
ENDMDL
MODEL      192
REMARK 921   NORMALIZED FREE ENERGY PREDICTED BY IDOCK:   -0.80 KCAL/MOL
REMARK 922        TOTAL FREE ENERGY PREDICTED BY IDOCK:   -1.32 KCAL/MOL
REMARK 923 INTER-LIGAND FREE ENERGY PREDICTED BY IDOCK:   -1.45 KCAL/MOL
REMARK 924 INTRA-LIGAND FREE ENERGY PREDICTED BY IDOCK:    0.12 KCAL/MOL
REMARK 927      BINDING AFFINITY PREDICTED BY RF-SCORE:    0.00 PKD
ROOT
HETATM    1  C   UNL     1      -5.464  15.010  67.459  1.00  0.00     0.138 C  
HETATM    2  N   UNL     1      -6.610  14.358  68.040  1.00  0.00    -0.133 N  
HETATM    3  C   UNL     1      -7.899  14.533  67.543  1.00  0.00    -0.193 C  
HETATM    4  H   UNL     1      -6.472  13.746  68.845  1.00  0.00     0.000 HD 
HETATM    5  O   UNL     1      -8.150  15.222  66.565  1.00  0.00    -0.140 OA 
ENDROOT
BRANCH   3   6
HETATM    6  C   UNL     1      -8.989  13.834  68.296  1.00  0.00    -0.186 A  
HETATM    7  C   UNL     1      -9.316  12.479  68.016  1.00  0.00    -0.205 A  
HETATM    8  I   UNL     1      -8.036  11.280  66.753  1.00  0.00    -0.119 I  
HETATM    9  C   UNL     1     -10.425  11.850  68.646  1.00  0.00    -0.231 A  
HETATM   10  C   UNL     1     -10.927  10.546  68.136  1.00  0.00    -0.277 C  
HETATM   11  C   UNL     1     -11.115  12.547  69.664  1.00  0.00     0.083 A  
HETATM   12  C   UNL     1     -10.740  13.861  70.027  1.00  0.00     0.516 A  
HETATM   13  I   UNL     1     -12.777  11.659  70.711  1.00  0.00     0.016 I  
HETATM   14  O   UNL     1     -11.017   9.571  69.062  1.00  0.00    -0.194 OA 
HETATM   15  O   UNL     1     -11.229  10.382  66.966  1.00  0.00    -0.207 OA 
HETATM   16  C   UNL     1      -9.754  14.519  69.266  1.00  0.00     0.017 A  
HETATM   17  I   UNL     1      -9.781  16.697  69.299  1.00  0.00     0.076 I  
BRANCH  12  18
HETATM   18  N   UNL     1     -11.480  14.510  71.043  1.00  0.00    -0.518 N  
HETATM   19  C   UNL     1     -12.629  15.248  70.939  1.00  0.00    -0.412 C  
HETATM   20  H   UNL     1     -11.105  14.414  71.986  1.00  0.00     0.000 HD 
HETATM   21  O   UNL     1     -12.989  15.888  71.927  1.00  0.00    -0.453 OA 
HETATM   22  C   UNL     1     -13.406  15.330  69.651  1.00  0.00     0.976 C  
ENDBRANCH  12  18
ENDBRANCH   3   6
TORSDOF 2
ENDMDL
MODEL      193
REMARK 921   NORMALIZED FREE ENERGY PREDICTED BY IDOCK:   -0.07 KCAL/MOL
REMARK 922        TOTAL FREE ENERGY PREDICTED BY IDOCK:   -0.51 KCAL/MOL
REMARK 923 INTER-LIGAND FREE ENERGY PREDICTED BY IDOCK:   -2.42 KCAL/MOL
REMARK 924 INTRA-LIGAND FREE ENERGY PREDICTED BY IDOCK:    1.91 KCAL/MOL
REMARK 927      BINDING AFFINITY PREDICTED BY RF-SCORE:    0.00 PKD
ROOT
HETATM    1  C   UNL     1     -11.231  12.140  69.838  1.00  0.00     0.097 C  
HETATM    2  N   UNL     1     -10.545  11.226  68.958  1.00  0.00    -0.236 N  
HETATM    3  C   UNL     1     -11.003   9.933  68.722  1.00  0.00    -0.179 C  
HETATM    4  H   UNL     1      -9.694  11.539  68.491  1.00  0.00     0.000 HD 
HETATM    5  O   UNL     1     -12.030   9.487  69.215  1.00  0.00     0.459 OA 
ENDROOT
BRANCH   3   6
HETATM    6  C   UNL     1     -10.145   9.089  67.831  1.00  0.00    -0.246 A  
HETATM    7  C   UNL     1      -9.547   9.637  66.662  1.00  0.00    -0.187 A  
HETATM    8  I   UNL     1      -9.563  11.770  66.319  1.00  0.00    -0.250 I  
HETATM    9  C   UNL     1      -8.829   8.812  65.754  1.00  0.00    -0.233 A  
HETATM   10  C   UNL     1      -8.464   9.331  64.409  1.00  0.00    -0.188 C  
HETATM   11  C   UNL     1      -8.596   7.461  66.100  1.00  0.00    -0.146 A  
HETATM   12  C   UNL     1      -9.098   6.923  67.307  1.00  0.00    -0.124 A  
HETATM   13  I   UNL     1      -7.477   6.144  64.811  1.00  0.00    -0.104 I  
HETATM   14  O   UNL     1      -7.155   9.237  64.101  1.00  0.00    -0.094 OA 
HETATM   15  O   UNL     1      -9.293   9.806  63.652  1.00  0.00    -0.253 OA 
HETATM   16  C   UNL     1      -9.951   7.716  68.099  1.00  0.00    -0.175 A  
HETATM   17  I   UNL     1     -11.309   6.662  69.436  1.00  0.00    -0.039 I  
BRANCH  12  18
HETATM   18  N   UNL     1      -8.843   5.561  67.588  1.00  0.00    -0.107 N  
HETATM   19  C   UNL     1      -9.518   4.448  67.160  1.00  0.00    -0.172 C  
HETATM   20  H   UNL     1      -8.044   5.381  68.196  1.00  0.00     0.000 HD 
HETATM   21  O   UNL     1      -9.242   3.372  67.691  1.00  0.00    -0.157 OA 
HETATM   22  C   UNL     1     -10.601   4.529  66.117  1.00  0.00    -0.087 C  
ENDBRANCH  12  18
ENDBRANCH   3   6
TORSDOF 2
ENDMDL
MODEL      194
REMARK 921   NORMALIZED FREE ENERGY PREDICTED BY IDOCK:    0.75 KCAL/MOL
REMARK 922        TOTAL FREE ENERGY PREDICTED BY IDOCK:    0.41 KCAL/MOL
REMARK 923 INTER-LIGAND FREE ENERGY PREDICTED BY IDOCK:   -1.48 KCAL/MOL
REMARK 924 INTRA-LIGAND FREE ENERGY PREDICTED BY IDOCK:    1.89 KCAL/MOL
REMARK 927      BINDING AFFINITY PREDICTED BY RF-SCORE:    0.00 PKD
ROOT
HETATM    1  C   UNL     1      -9.928   6.249  73.161  1.00  0.00    -0.174 C  
HETATM    2  N   UNL     1      -9.171   6.659  72.005  1.00  0.00    -0.143 N  
HETATM    3  C   UNL     1      -9.670   6.549  70.710  1.00  0.00    -0.179 C  
HETATM    4  H   UNL     1      -8.236   7.044  72.141  1.00  0.00     0.000 HD 
HETATM    5  O   UNL     1     -10.791   6.129  70.459  1.00  0.00    -0.257 OA 
ENDROOT
BRANCH   3   6
HETATM    6  C   UNL     1      -8.737   6.963  69.614  1.00  0.00    -0.141 A  
HETATM    7  C   UNL     1      -8.698   6.253  68.382  1.00  0.00    -0.116 A  
HETATM    8  I   UNL     1     -10.213   4.784  67.914  1.00  0.00     0.232 I  
HETATM    9  C   UNL     1      -7.734   6.569  67.386  1.00  0.00    -0.101 A  
HETATM   10  C   UNL     1      -7.516   5.645  66.242  1.00  0.00    -0.083 C  
HETATM   11  C   UNL     1      -6.903   7.697  67.579  1.00  0.00    -0.069 A  
HETATM   12  C   UNL     1      -6.995   8.477  68.755  1.00  0.00    -0.063 A  
HETATM   13  I   UNL     1      -5.444   8.286  66.105  1.00  0.00    -0.031 I  
HETATM   14  O   UNL     1      -7.616   6.214  65.025  1.00  0.00    -0.081 OA 
HETATM   15  O   UNL     1      -7.269   4.462  66.405  1.00  0.00    -0.073 OA 
HETATM   16  C   UNL     1      -7.835   8.035  69.796  1.00  0.00    -0.106 A  
HETATM   17  I   UNL     1      -7.363   8.736  71.802  1.00  0.00     0.130 I  
BRANCH  12  18
HETATM   18  N   UNL     1      -6.125   9.582  68.893  1.00  0.00    -0.042 N  
HETATM   19  C   UNL     1      -6.239  10.843  68.368  1.00  0.00    -0.046 C  
HETATM   20  H   UNL     1      -5.296   9.419  69.463  1.00  0.00     0.000 HD 
HETATM   21  O   UNL     1      -5.262  11.588  68.453  1.00  0.00    -0.040 OA 
HETATM   22  C   UNL     1      -7.487  11.299  67.660  1.00  0.00    -0.101 C  
ENDBRANCH  12  18
ENDBRANCH   3   6
TORSDOF 2
ENDMDL
MODEL      195
REMARK 921   NORMALIZED FREE ENERGY PREDICTED BY IDOCK:    2.20 KCAL/MOL
REMARK 922        TOTAL FREE ENERGY PREDICTED BY IDOCK:    2.03 KCAL/MOL
REMARK 923 INTER-LIGAND FREE ENERGY PREDICTED BY IDOCK:    1.47 KCAL/MOL
REMARK 924 INTRA-LIGAND FREE ENERGY PREDICTED BY IDOCK:    0.56 KCAL/MOL
REMARK 927      BINDING AFFINITY PREDICTED BY RF-SCORE:    0.00 PKD
ROOT
HETATM    1  C   UNL     1     -13.500   6.878  69.859  1.00  0.00     3.794 C  
HETATM    2  N   UNL     1     -12.127   6.937  70.294  1.00  0.00    -0.627 N  
HETATM    3  C   UNL     1     -11.094   6.328  69.588  1.00  0.00    -0.412 C  
HETATM    4  H   UNL     1     -11.905   7.444  71.151  1.00  0.00     0.000 HD 
HETATM    5  O   UNL     1     -11.267   5.728  68.536  1.00  0.00    -0.122 OA 
ENDROOT
BRANCH   3   6
HETATM    6  C   UNL     1      -9.733   6.431  70.204  1.00  0.00    -0.185 A  
HETATM    7  C   UNL     1      -9.022   5.265  70.601  1.00  0.00    -0.134 A  
HETATM    8  I   UNL     1      -9.717   3.304  70.016  1.00  0.00     0.494 I  
HETATM    9  C   UNL     1      -7.783   5.364  71.291  1.00  0.00    -0.103 A  
HETATM   10  C   UNL     1      -7.201   4.164  71.949  1.00  0.00    -0.058 C  
HETATM   11  C   UNL     1      -7.195   6.640  71.453  1.00  0.00    -0.082 A  
HETATM   12  C   UNL     1      -7.840   7.804  70.976  1.00  0.00    -0.089 A  
HETATM   13  I   UNL     1      -5.296   6.888  72.443  1.00  0.00    -0.038 I  
HETATM   14  O   UNL     1      -5.933   3.880  71.592  1.00  0.00    -0.012 OA 
HETATM   15  O   UNL     1      -7.833   3.494  72.747  1.00  0.00    -0.060 OA 
HETATM   16  C   UNL     1      -9.144   7.690  70.455  1.00  0.00    -0.152 A  
HETATM   17  I   UNL     1     -10.378   9.484  70.499  1.00  0.00    -0.321 I  
BRANCH  12  18
HETATM   18  N   UNL     1      -7.207   9.051  71.183  1.00  0.00    -0.106 N  
HETATM   19  C   UNL     1      -6.524   9.833  70.289  1.00  0.00    -0.093 C  
HETATM   20  H   UNL     1      -7.266   9.420  72.131  1.00  0.00     0.000 HD 
HETATM   21  O   UNL     1      -5.882  10.784  70.735  1.00  0.00    -0.176 OA 
HETATM   22  C   UNL     1      -6.503   9.522  68.816  1.00  0.00    -0.047 C  
ENDBRANCH  12  18
ENDBRANCH   3   6
TORSDOF 2
ENDMDL
MODEL      196
REMARK 921   NORMALIZED FREE ENERGY PREDICTED BY IDOCK:    2.53 KCAL/MOL
REMARK 922        TOTAL FREE ENERGY PREDICTED BY IDOCK:    2.39 KCAL/MOL
REMARK 923 INTER-LIGAND FREE ENERGY PREDICTED BY IDOCK:   -0.12 KCAL/MOL
REMARK 924 INTRA-LIGAND FREE ENERGY PREDICTED BY IDOCK:    2.51 KCAL/MOL
REMARK 927      BINDING AFFINITY PREDICTED BY RF-SCORE:    0.00 PKD
ROOT
HETATM    1  C   UNL     1      -6.023  20.257  65.311  1.00  0.00    -0.212 C  
HETATM    2  N   UNL     1      -6.824  19.300  66.034  1.00  0.00    -0.232 N  
HETATM    3  C   UNL     1      -6.572  17.931  65.989  1.00  0.00    -0.281 C  
HETATM    4  H   UNL     1      -7.603  19.638  66.598  1.00  0.00     0.000 HD 
HETATM    5  O   UNL     1      -5.640  17.444  65.363  1.00  0.00    -0.017 OA 
ENDROOT
BRANCH   3   6
HETATM    6  C   UNL     1      -7.532  17.066  66.746  1.00  0.00    -0.266 A  
HETATM    7  C   UNL     1      -8.766  17.589  67.222  1.00  0.00    -0.230 A  
HETATM    8  I   UNL     1      -9.456  19.532  66.576  1.00  0.00    -0.524 I  
HETATM    9  C   UNL     1      -9.624  16.804  68.039  1.00  0.00    -0.234 A  
HETATM   10  C   UNL     1     -10.754  17.447  68.761  1.00  0.00    -0.197 C  
HETATM   11  C   UNL     1      -9.301  15.445  68.257  1.00  0.00    -0.193 A  
HETATM   12  C   UNL     1      -8.127  14.879  67.708  1.00  0.00    -0.152 A  
HETATM   13  I   UNL     1     -10.565  14.162  69.442  1.00  0.00     0.225 I  
HETATM   14  O   UNL     1     -11.960  16.886  68.543  1.00  0.00     0.443 OA 
HETATM   15  O   UNL     1     -10.591  18.409  69.491  1.00  0.00     0.293 OA 
HETATM   16  C   UNL     1      -7.211  15.725  67.052  1.00  0.00    -0.173 A  
HETATM   17  I   UNL     1      -5.145  15.045  66.956  1.00  0.00     1.946 I  
BRANCH  12  18
HETATM   18  N   UNL     1      -7.854  13.518  67.975  1.00  0.00    -0.132 N  
HETATM   19  C   UNL     1      -7.046  12.971  68.936  1.00  0.00    -0.068 C  
HETATM   20  H   UNL     1      -8.325  12.849  67.366  1.00  0.00     0.000 HD 
HETATM   21  O   UNL     1      -6.799  11.767  68.858  1.00  0.00    -0.088 OA 
HETATM   22  C   UNL     1      -6.428  13.808  70.025  1.00  0.00    -0.027 C  
ENDBRANCH  12  18
ENDBRANCH   3   6
TORSDOF 2
ENDMDL
MODEL      197
REMARK 921   NORMALIZED FREE ENERGY PREDICTED BY IDOCK:    4.11 KCAL/MOL
REMARK 922        TOTAL FREE ENERGY PREDICTED BY IDOCK:    4.16 KCAL/MOL
REMARK 923 INTER-LIGAND FREE ENERGY PREDICTED BY IDOCK:    3.19 KCAL/MOL
REMARK 924 INTRA-LIGAND FREE ENERGY PREDICTED BY IDOCK:    0.97 KCAL/MOL
REMARK 927      BINDING AFFINITY PREDICTED BY RF-SCORE:    0.00 PKD
ROOT
HETATM    1  C   UNL     1     -12.422   7.542  68.619  1.00  0.00     4.444 C  
HETATM    2  N   UNL     1     -11.284   7.246  67.784  1.00  0.00    -0.502 N  
HETATM    3  C   UNL     1     -10.324   6.304  68.140  1.00  0.00    -0.195 C  
HETATM    4  H   UNL     1     -11.180   7.747  66.902  1.00  0.00     0.000 HD 
HETATM    5  O   UNL     1     -10.388   5.637  69.163  1.00  0.00    -0.211 OA 
ENDROOT
BRANCH   3   6
HETATM    6  C   UNL     1      -9.172   6.157  67.193  1.00  0.00    -0.120 A  
HETATM    7  C   UNL     1      -8.664   4.872  66.856  1.00  0.00    -0.107 A  
HETATM    8  I   UNL     1      -9.744   3.085  67.412  1.00  0.00     0.953 I  
HETATM    9  C   UNL     1      -7.499   4.736  66.051  1.00  0.00    -0.078 A  
HETATM   10  C   UNL     1      -6.818   3.418  65.948  1.00  0.00    -0.053 C  
HETATM   11  C   UNL     1      -6.933   5.894  65.472  1.00  0.00    -0.064 A  
HETATM   12  C   UNL     1      -7.485   7.173  65.715  1.00  0.00    -0.081 A  
HETATM   13  I   UNL     1      -5.197   5.784  64.199  1.00  0.00    -0.017 I  
HETATM   14  O   UNL     1      -6.626   2.975  64.690  1.00  0.00    -0.033 OA 
HETATM   15  O   UNL     1      -6.467   2.793  66.934  1.00  0.00    -0.034 OA 
HETATM   16  C   UNL     1      -8.528   7.293  66.654  1.00  0.00    -0.124 A  
HETATM   17  I   UNL     1      -8.786   9.242  67.590  1.00  0.00    -0.129 I  
BRANCH  12  18
HETATM   18  N   UNL     1      -6.863   8.294  65.118  1.00  0.00    -0.068 N  
HETATM   19  C   UNL     1      -7.390   9.220  64.257  1.00  0.00    -0.106 C  
HETATM   20  H   UNL     1      -5.882   8.431  65.362  1.00  0.00     0.000 HD 
HETATM   21  O   UNL     1      -6.611   9.996  63.705  1.00  0.00    -0.122 OA 
HETATM   22  C   UNL     1      -8.863   9.264  63.945  1.00  0.00    -0.160 C  
ENDBRANCH  12  18
ENDBRANCH   3   6
TORSDOF 2
ENDMDL
MODEL      198
REMARK 921   NORMALIZED FREE ENERGY PREDICTED BY IDOCK:    4.13 KCAL/MOL
REMARK 922        TOTAL FREE ENERGY PREDICTED BY IDOCK:    4.19 KCAL/MOL
REMARK 923 INTER-LIGAND FREE ENERGY PREDICTED BY IDOCK:    0.61 KCAL/MOL
REMARK 924 INTRA-LIGAND FREE ENERGY PREDICTED BY IDOCK:    3.57 KCAL/MOL
REMARK 927      BINDING AFFINITY PREDICTED BY RF-SCORE:    0.00 PKD
ROOT
HETATM    1  C   UNL     1      -7.363  10.575  68.475  1.00  0.00    -0.088 C  
HETATM    2  N   UNL     1      -7.257   9.161  68.214  1.00  0.00    -0.077 N  
HETATM    3  C   UNL     1      -8.126   8.494  67.355  1.00  0.00    -0.106 C  
HETATM    4  H   UNL     1      -6.518   8.630  68.676  1.00  0.00     0.000 HD 
HETATM    5  O   UNL     1      -9.018   9.058  66.737  1.00  0.00    -0.129 OA 
ENDROOT
BRANCH   3   6
HETATM    6  C   UNL     1      -7.921   7.015  67.238  1.00  0.00    -0.111 A  
HETATM    7  C   UNL     1      -7.050   6.475  66.252  1.00  0.00    -0.067 A  
HETATM    8  I   UNL     1      -5.732   7.767  65.126  1.00  0.00    -0.037 I  
HETATM    9  C   UNL     1      -6.943   5.070  66.062  1.00  0.00    -0.066 A  
HETATM   10  C   UNL     1      -6.262   4.534  64.853  1.00  0.00    -0.034 C  
HETATM   11  C   UNL     1      -7.609   4.209  66.964  1.00  0.00    -0.077 A  
HETATM   12  C   UNL     1      -8.400   4.728  68.015  1.00  0.00    -0.102 A  
HETATM   13  I   UNL     1      -7.468   2.065  66.788  1.00  0.00    -0.067 I  
HETATM   14  O   UNL     1      -5.274   3.653  65.102  1.00  0.00    -0.008 OA 
HETATM   15  O   UNL     1      -6.582   4.874  63.727  1.00  0.00    -0.035 OA 
HETATM   16  C   UNL     1      -8.627   6.117  68.069  1.00  0.00    -0.115 A  
HETATM   17  I   UNL     1     -10.417   6.779  69.119  1.00  0.00    -0.308 I  
BRANCH  12  18
HETATM   18  N   UNL     1      -9.052   3.814  68.874  1.00  0.00    -0.128 N  
HETATM   19  C   UNL     1      -9.777   2.695  68.557  1.00  0.00     0.142 C  
HETATM   20  H   UNL     1      -8.972   4.016  69.870  1.00  0.00     0.000 HD 
HETATM   21  O   UNL     1     -10.424   2.159  69.457  1.00  0.00     1.326 OA 
HETATM   22  C   UNL     1      -9.834   2.159  67.151  1.00  0.00     0.704 C  
ENDBRANCH  12  18
ENDBRANCH   3   6
TORSDOF 2
ENDMDL
MODEL      199
REMARK 921   NORMALIZED FREE ENERGY PREDICTED BY IDOCK:    5.49 KCAL/MOL
REMARK 922        TOTAL FREE ENERGY PREDICTED BY IDOCK:    5.70 KCAL/MOL
REMARK 923 INTER-LIGAND FREE ENERGY PREDICTED BY IDOCK:    5.65 KCAL/MOL
REMARK 924 INTRA-LIGAND FREE ENERGY PREDICTED BY IDOCK:    0.05 KCAL/MOL
REMARK 927      BINDING AFFINITY PREDICTED BY RF-SCORE:    0.00 PKD
ROOT
HETATM    1  C   UNL     1     -10.148  16.642  71.813  1.00  0.00     4.600 C  
HETATM    2  N   UNL     1      -9.970  15.623  70.809  1.00  0.00     0.271 N  
HETATM    3  C   UNL     1      -9.873  15.921  69.452  1.00  0.00    -0.280 C  
HETATM    4  H   UNL     1      -9.913  14.648  71.103  1.00  0.00     0.000 HD 
HETATM    5  O   UNL     1      -9.900  17.064  69.016  1.00  0.00    -0.265 OA 
ENDROOT
BRANCH   3   6
HETATM    6  C   UNL     1      -9.752  14.745  68.532  1.00  0.00    -0.218 A  
HETATM    7  C   UNL     1     -10.909  14.119  67.993  1.00  0.00    -0.246 A  
HETATM    8  I   UNL     1     -12.852  15.043  68.194  1.00  0.00     3.273 I  
HETATM    9  C   UNL     1     -10.802  12.934  67.215  1.00  0.00    -0.277 A  
HETATM   10  C   UNL     1     -12.018  12.136  66.905  1.00  0.00    -0.090 C  
HETATM   11  C   UNL     1      -9.515  12.464  66.864  1.00  0.00    -0.219 A  
HETATM   12  C   UNL     1      -8.351  13.132  67.309  1.00  0.00    -0.179 A  
HETATM   13  I   UNL     1      -9.250  10.704  65.647  1.00  0.00    -0.283 I  
HETATM   14  O   UNL     1     -12.214  11.884  65.596  1.00  0.00    -0.413 OA 
HETATM   15  O   UNL     1     -12.775  11.746  67.778  1.00  0.00     0.828 OA 
HETATM   16  C   UNL     1      -8.488  14.197  68.220  1.00  0.00    -0.169 A  
HETATM   17  I   UNL     1      -6.763  14.644  69.473  1.00  0.00    -0.130 I  
BRANCH  12  18
HETATM   18  N   UNL     1      -7.094  12.603  66.936  1.00  0.00    -0.356 N  
HETATM   19  C   UNL     1      -6.356  11.619  67.540  1.00  0.00    -0.087 C  
HETATM   20  H   UNL     1      -6.677  13.012  66.100  1.00  0.00     0.000 HD 
HETATM   21  O   UNL     1      -5.197  11.457  67.158  1.00  0.00    -0.052 OA 
HETATM   22  C   UNL     1      -6.910  10.792  68.670  1.00  0.00    -0.060 C  
ENDBRANCH  12  18
ENDBRANCH   3   6
TORSDOF 2
ENDMDL
MODEL      200
REMARK 921   NORMALIZED FREE ENERGY PREDICTED BY IDOCK:    6.15 KCAL/MOL
REMARK 922        TOTAL FREE ENERGY PREDICTED BY IDOCK:    6.44 KCAL/MOL
REMARK 923 INTER-LIGAND FREE ENERGY PREDICTED BY IDOCK:    6.06 KCAL/MOL
REMARK 924 INTRA-LIGAND FREE ENERGY PREDICTED BY IDOCK:    0.38 KCAL/MOL
REMARK 927      BINDING AFFINITY PREDICTED BY RF-SCORE:    0.00 PKD
ROOT
HETATM    1  C   UNL     1     -10.671  11.370  68.247  1.00  0.00    -0.204 C  
HETATM    2  N   UNL     1      -9.990  10.129  68.516  1.00  0.00    -0.158 N  
HETATM    3  C   UNL     1     -10.647   9.012  69.024  1.00  0.00    -0.190 C  
HETATM    4  H   UNL     1      -8.989  10.066  68.326  1.00  0.00     0.000 HD 
HETATM    5  O   UNL     1     -11.850   8.990  69.250  1.00  0.00     0.652 OA 
ENDROOT
BRANCH   3   6
HETATM    6  C   UNL     1      -9.786   7.819  69.305  1.00  0.00    -0.173 A  
HETATM    7  C   UNL     1     -10.065   6.561  68.702  1.00  0.00    -0.161 A  
HETATM    8  I   UNL     1     -11.511   6.405  67.105  1.00  0.00     1.821 I  
HETATM    9  C   UNL     1      -9.321   5.401  69.057  1.00  0.00    -0.163 A  
HETATM   10  C   UNL     1      -9.803   4.056  68.646  1.00  0.00     0.024 C  
HETATM   11  C   UNL     1      -8.205   5.544  69.913  1.00  0.00    -0.105 A  
HETATM   12  C   UNL     1      -7.852   6.806  70.443  1.00  0.00    -0.109 A  
HETATM   13  I   UNL     1      -6.988   3.854  70.468  1.00  0.00    -0.034 I  
HETATM   14  O   UNL     1      -8.903   3.311  67.976  1.00  0.00    -0.102 OA 
HETATM   15  O   UNL     1     -10.931   3.668  68.899  1.00  0.00     3.089 OA 
HETATM   16  C   UNL     1      -8.709   7.901  70.215  1.00  0.00    -0.138 A  
HETATM   17  I   UNL     1      -8.609   9.540  71.644  1.00  0.00     2.264 I  
BRANCH  12  18
HETATM   18  N   UNL     1      -6.734   6.879  71.305  1.00  0.00    -0.056 N  
HETATM   19  C   UNL     1      -6.685   6.768  72.669  1.00  0.00    -0.063 C  
HETATM   20  H   UNL     1      -5.837   7.037  70.846  1.00  0.00     0.000 HD 
HETATM   21  O   UNL     1      -5.629   7.064  73.230  1.00  0.00    -0.045 OA 
HETATM   22  C   UNL     1      -7.887   6.353  73.475  1.00  0.00    -0.092 C  
ENDBRANCH  12  18
ENDBRANCH   3   6
TORSDOF 2
ENDMDL
MODEL      201
REMARK 921   NORMALIZED FREE ENERGY PREDICTED BY IDOCK:    6.46 KCAL/MOL
REMARK 922        TOTAL FREE ENERGY PREDICTED BY IDOCK:    6.78 KCAL/MOL
REMARK 923 INTER-LIGAND FREE ENERGY PREDICTED BY IDOCK:   -0.66 KCAL/MOL
REMARK 924 INTRA-LIGAND FREE ENERGY PREDICTED BY IDOCK:    7.44 KCAL/MOL
REMARK 927      BINDING AFFINITY PREDICTED BY RF-SCORE:    0.00 PKD
ROOT
HETATM    1  C   UNL     1     -13.261   8.910  71.869  1.00  0.00    -0.393 C  
HETATM    2  N   UNL     1     -12.132   9.500  71.194  1.00  0.00    -0.327 N  
HETATM    3  C   UNL     1     -12.107  10.839  70.812  1.00  0.00    -0.372 C  
HETATM    4  H   UNL     1     -11.322   8.915  70.989  1.00  0.00     0.000 HD 
HETATM    5  O   UNL     1     -13.021  11.617  71.047  1.00  0.00    -0.273 OA 
ENDROOT
BRANCH   3   6
HETATM    6  C   UNL     1     -10.886  11.282  70.067  1.00  0.00     0.124 A  
HETATM    7  C   UNL     1      -9.644  10.611  70.236  1.00  0.00     0.948 A  
HETATM    8  I   UNL     1      -9.549   8.729  71.295  1.00  0.00    -0.343 I  
HETATM    9  C   UNL     1      -8.459  11.100  69.621  1.00  0.00     0.615 A  
HETATM   10  C   UNL     1      -7.133  10.569  70.034  1.00  0.00    -0.127 C  
HETATM   11  C   UNL     1      -8.559  12.185  68.720  1.00  0.00     0.105 A  
HETATM   12  C   UNL     1      -9.804  12.803  68.461  1.00  0.00    -0.143 A  
HETATM   13  I   UNL     1      -6.828  12.967  67.701  1.00  0.00    -0.098 I  
HETATM   14  O   UNL     1      -6.370  10.102  69.027  1.00  0.00    -0.043 OA 
HETATM   15  O   UNL     1      -6.776  10.558  71.200  1.00  0.00    -0.194 OA 
HETATM   16  C   UNL     1     -10.926  12.410  69.217  1.00  0.00    -0.087 A  
HETATM   17  I   UNL     1     -12.545  13.856  69.395  1.00  0.00     0.940 I  
BRANCH  12  18
HETATM   18  N   UNL     1      -9.834  13.893  67.561  1.00  0.00    -0.232 N  
HETATM   19  C   UNL     1     -10.914  14.519  66.995  1.00  0.00    -0.312 C  
HETATM   20  H   UNL     1      -8.923  14.266  67.295  1.00  0.00     0.000 HD 
HETATM   21  O   UNL     1     -10.699  15.318  66.084  1.00  0.00    -0.307 OA 
HETATM   22  C   UNL     1     -12.324  14.210  67.424  1.00  0.00    -0.136 C  
ENDBRANCH  12  18
ENDBRANCH   3   6
TORSDOF 2
ENDMDL
MODEL      202
REMARK 921   NORMALIZED FREE ENERGY PREDICTED BY IDOCK:    6.70 KCAL/MOL
REMARK 922        TOTAL FREE ENERGY PREDICTED BY IDOCK:    7.06 KCAL/MOL
REMARK 923 INTER-LIGAND FREE ENERGY PREDICTED BY IDOCK:    6.66 KCAL/MOL
REMARK 924 INTRA-LIGAND FREE ENERGY PREDICTED BY IDOCK:    0.40 KCAL/MOL
REMARK 927      BINDING AFFINITY PREDICTED BY RF-SCORE:    0.00 PKD
ROOT
HETATM    1  C   UNL     1      -6.768  12.628  71.345  1.00  0.00     3.559 C  
HETATM    2  N   UNL     1      -7.510  11.422  71.070  1.00  0.00     3.149 N  
HETATM    3  C   UNL     1      -6.886  10.198  70.845  1.00  0.00     0.220 C  
HETATM    4  H   UNL     1      -8.528  11.469  71.039  1.00  0.00     0.000 HD 
HETATM    5  O   UNL     1      -5.673  10.047  70.895  1.00  0.00    -0.074 OA 
ENDROOT
BRANCH   3   6
HETATM    6  C   UNL     1      -7.795   9.054  70.513  1.00  0.00    -0.138 A  
HETATM    7  C   UNL     1      -8.092   8.055  71.481  1.00  0.00    -0.110 A  
HETATM    8  I   UNL     1      -7.534   8.330  73.550  1.00  0.00    -0.032 I  
HETATM    9  C   UNL     1      -8.858   6.908  71.134  1.00  0.00    -0.142 A  
HETATM   10  C   UNL     1      -8.915   5.746  72.060  1.00  0.00    -0.138 C  
HETATM   11  C   UNL     1      -9.442   6.844  69.848  1.00  0.00    -0.156 A  
HETATM   12  C   UNL     1      -9.241   7.878  68.905  1.00  0.00    -0.144 A  
HETATM   13  I   UNL     1     -10.661   5.170  69.247  1.00  0.00     0.681 I  
HETATM   14  O   UNL     1     -10.158   5.345  72.392  1.00  0.00    -0.173 OA 
HETATM   15  O   UNL     1      -7.907   5.205  72.482  1.00  0.00    -0.098 OA 
HETATM   16  C   UNL     1      -8.336   8.912  69.217  1.00  0.00    -0.119 A  
HETATM   17  I   UNL     1      -7.446   9.975  67.538  1.00  0.00    -0.089 I  
BRANCH  12  18
HETATM   18  N   UNL     1      -9.840   7.746  67.632  1.00  0.00    -0.154 N  
HETATM   19  C   UNL     1      -9.479   6.940  66.585  1.00  0.00    -0.166 C  
HETATM   20  H   UNL     1     -10.657   8.335  67.470  1.00  0.00     0.000 HD 
HETATM   21  O   UNL     1     -10.024   7.135  65.498  1.00  0.00     0.895 OA 
HETATM   22  C   UNL     1      -8.415   5.884  66.726  1.00  0.00    -0.109 C  
ENDBRANCH  12  18
ENDBRANCH   3   6
TORSDOF 2
ENDMDL
MODEL      203
REMARK 921   NORMALIZED FREE ENERGY PREDICTED BY IDOCK:    6.97 KCAL/MOL
REMARK 922        TOTAL FREE ENERGY PREDICTED BY IDOCK:    7.36 KCAL/MOL
REMARK 923 INTER-LIGAND FREE ENERGY PREDICTED BY IDOCK:    4.35 KCAL/MOL
REMARK 924 INTRA-LIGAND FREE ENERGY PREDICTED BY IDOCK:    3.01 KCAL/MOL
REMARK 927      BINDING AFFINITY PREDICTED BY RF-SCORE:    0.00 PKD
ROOT
HETATM    1  C   UNL     1     -10.575  16.430  65.818  1.00  0.00    -0.315 C  
HETATM    2  N   UNL     1     -10.055  15.087  65.748  1.00  0.00    -0.316 N  
HETATM    3  C   UNL     1     -10.192  14.180  66.795  1.00  0.00    -0.262 C  
HETATM    4  H   UNL     1      -9.570  14.791  64.901  1.00  0.00     0.000 HD 
HETATM    5  O   UNL     1     -10.786  14.441  67.833  1.00  0.00    -0.241 OA 
ENDROOT
BRANCH   3   6
HETATM    6  C   UNL     1      -9.545  12.845  66.591  1.00  0.00    -0.257 A  
HETATM    7  C   UNL     1     -10.106  11.891  65.698  1.00  0.00    -0.243 A  
HETATM    8  I   UNL     1     -11.700  12.454  64.351  1.00  0.00    -0.504 I  
HETATM    9  C   UNL     1      -9.561  10.582  65.590  1.00  0.00    -0.278 A  
HETATM   10  C   UNL     1     -10.320   9.517  64.882  1.00  0.00     1.220 C  
HETATM   11  C   UNL     1      -8.362  10.285  66.279  1.00  0.00    -0.134 A  
HETATM   12  C   UNL     1      -7.733  11.255  67.094  1.00  0.00    -0.147 A  
HETATM   13  I   UNL     1      -7.432   8.346  66.138  1.00  0.00    -0.092 I  
HETATM   14  O   UNL     1      -9.640   8.891  63.902  1.00  0.00     0.902 OA 
HETATM   15  O   UNL     1     -11.471   9.242  65.174  1.00  0.00     4.754 OA 
HETATM   16  C   UNL     1      -8.390  12.480  67.319  1.00  0.00    -0.185 A  
HETATM   17  I   UNL     1      -7.854  13.562  69.131  1.00  0.00     0.678 I  
BRANCH  12  18
HETATM   18  N   UNL     1      -6.545  10.890  67.768  1.00  0.00    -0.063 N  
HETATM   19  C   UNL     1      -6.312   9.824  68.596  1.00  0.00    -0.046 C  
HETATM   20  H   UNL     1      -5.748  11.509  67.616  1.00  0.00     0.000 HD 
HETATM   21  O   UNL     1      -5.259   9.814  69.233  1.00  0.00    -0.036 OA 
HETATM   22  C   UNL     1      -7.324   8.723  68.775  1.00  0.00    -0.083 C  
ENDBRANCH  12  18
ENDBRANCH   3   6
TORSDOF 2
ENDMDL
MODEL      204
REMARK 921   NORMALIZED FREE ENERGY PREDICTED BY IDOCK:    7.72 KCAL/MOL
REMARK 922        TOTAL FREE ENERGY PREDICTED BY IDOCK:    8.20 KCAL/MOL
REMARK 923 INTER-LIGAND FREE ENERGY PREDICTED BY IDOCK:    7.86 KCAL/MOL
REMARK 924 INTRA-LIGAND FREE ENERGY PREDICTED BY IDOCK:    0.34 KCAL/MOL
REMARK 927      BINDING AFFINITY PREDICTED BY RF-SCORE:    0.00 PKD
ROOT
HETATM    1  C   UNL     1     -12.666   7.434  67.898  1.00  0.00     8.434 C  
HETATM    2  N   UNL     1     -11.541   7.616  67.016  1.00  0.00     0.736 N  
HETATM    3  C   UNL     1     -10.372   6.868  67.134  1.00  0.00    -0.269 C  
HETATM    4  H   UNL     1     -11.604   8.317  66.278  1.00  0.00     0.000 HD 
HETATM    5  O   UNL     1     -10.225   5.987  67.970  1.00  0.00    -0.149 OA 
ENDROOT
BRANCH   3   6
HETATM    6  C   UNL     1      -9.273   7.219  66.179  1.00  0.00    -0.136 A  
HETATM    7  C   UNL     1      -8.735   6.243  65.296  1.00  0.00     0.004 A  
HETATM    8  I   UNL     1      -9.708   4.329  65.052  1.00  0.00    -0.123 I  
HETATM    9  C   UNL     1      -7.616   6.542  64.472  1.00  0.00    -0.101 A  
HETATM   10  C   UNL     1      -6.890   5.445  63.778  1.00  0.00    -0.046 C  
HETATM   11  C   UNL     1      -7.131   7.870  64.437  1.00  0.00    -0.074 A  
HETATM   12  C   UNL     1      -7.719   8.879  65.235  1.00  0.00    -0.100 A  
HETATM   13  I   UNL     1      -5.470   8.431  63.183  1.00  0.00    -0.065 I  
HETATM   14  O   UNL     1      -6.755   5.605  62.448  1.00  0.00    -0.031 OA 
HETATM   15  O   UNL     1      -6.457   4.476  64.379  1.00  0.00    -0.036 OA 
HETATM   16  C   UNL     1      -8.709   8.514  66.168  1.00  0.00    -0.152 A  
HETATM   17  I   UNL     1      -8.989   9.843  67.871  1.00  0.00    -0.138 I  
BRANCH  12  18
HETATM   18  N   UNL     1      -7.178  10.183  65.166  1.00  0.00    -0.139 N  
HETATM   19  C   UNL     1      -6.111  10.714  65.842  1.00  0.00    -0.138 C  
HETATM   20  H   UNL     1      -7.649  10.819  64.523  1.00  0.00     0.000 HD 
HETATM   21  O   UNL     1      -5.940  11.932  65.776  1.00  0.00     0.418 OA 
HETATM   22  C   UNL     1      -5.201   9.861  66.685  1.00  0.00    -0.040 C  
ENDBRANCH  12  18
ENDBRANCH   3   6
TORSDOF 2
ENDMDL
MODEL      205
REMARK 921   NORMALIZED FREE ENERGY PREDICTED BY IDOCK:    8.75 KCAL/MOL
REMARK 922        TOTAL FREE ENERGY PREDICTED BY IDOCK:    9.35 KCAL/MOL
REMARK 923 INTER-LIGAND FREE ENERGY PREDICTED BY IDOCK:    5.94 KCAL/MOL
REMARK 924 INTRA-LIGAND FREE ENERGY PREDICTED BY IDOCK:    3.41 KCAL/MOL
REMARK 927      BINDING AFFINITY PREDICTED BY RF-SCORE:    0.00 PKD
ROOT
HETATM    1  C   UNL     1     -12.396  18.789  68.857  1.00  0.00     7.879 C  
HETATM    2  N   UNL     1     -11.270  17.940  68.556  1.00  0.00     0.084 N  
HETATM    3  C   UNL     1     -10.979  16.797  69.296  1.00  0.00    -0.197 C  
HETATM    4  H   UNL     1     -10.665  18.186  67.773  1.00  0.00     0.000 HD 
HETATM    5  O   UNL     1     -11.669  16.412  70.230  1.00  0.00    -0.160 OA 
ENDROOT
BRANCH   3   6
HETATM    6  C   UNL     1      -9.741  16.057  68.894  1.00  0.00    -0.232 A  
HETATM    7  C   UNL     1      -8.677  16.724  68.226  1.00  0.00    -0.227 A  
HETATM    8  I   UNL     1      -8.654  18.880  68.078  1.00  0.00    -0.367 I  
HETATM    9  C   UNL     1      -7.553  16.002  67.740  1.00  0.00    -0.157 A  
HETATM   10  C   UNL     1      -6.601  16.653  66.801  1.00  0.00    -0.182 C  
HETATM   11  C   UNL     1      -7.439  14.628  68.056  1.00  0.00    -0.131 A  
HETATM   12  C   UNL     1      -8.439  13.969  68.806  1.00  0.00    -0.038 A  
HETATM   13  I   UNL     1      -5.748  13.460  67.406  1.00  0.00     0.744 I  
HETATM   14  O   UNL     1      -5.310  16.612  67.183  1.00  0.00    -0.136 OA 
HETATM   15  O   UNL     1      -6.972  17.183  65.768  1.00  0.00    -0.054 OA 
HETATM   16  C   UNL     1      -9.621  14.668  69.121  1.00  0.00    -0.087 A  
HETATM   17  I   UNL     1     -11.395  13.468  69.517  1.00  0.00    -0.086 I  
BRANCH  12  18
HETATM   18  N   UNL     1      -8.273  12.591  69.076  1.00  0.00    -0.321 N  
HETATM   19  C   UNL     1      -8.177  11.543  68.198  1.00  0.00    -0.149 C  
HETATM   20  H   UNL     1      -8.216  12.342  70.063  1.00  0.00     0.000 HD 
HETATM   21  O   UNL     1      -8.236  10.404  68.659  1.00  0.00    -0.108 OA 
HETATM   22  C   UNL     1      -8.058  11.761  66.713  1.00  0.00    -0.133 C  
ENDBRANCH  12  18
ENDBRANCH   3   6
TORSDOF 2
ENDMDL
MODEL      206
REMARK 921   NORMALIZED FREE ENERGY PREDICTED BY IDOCK:    9.42 KCAL/MOL
REMARK 922        TOTAL FREE ENERGY PREDICTED BY IDOCK:   10.09 KCAL/MOL
REMARK 923 INTER-LIGAND FREE ENERGY PREDICTED BY IDOCK:    3.30 KCAL/MOL
REMARK 924 INTRA-LIGAND FREE ENERGY PREDICTED BY IDOCK:    6.80 KCAL/MOL
REMARK 927      BINDING AFFINITY PREDICTED BY RF-SCORE:    0.00 PKD
ROOT
HETATM    1  C   UNL     1      -7.771  11.461  65.066  1.00  0.00     0.990 C  
HETATM    2  N   UNL     1      -8.277  10.429  65.938  1.00  0.00    -0.145 N  
HETATM    3  C   UNL     1      -7.460   9.432  66.464  1.00  0.00    -0.093 C  
HETATM    4  H   UNL     1      -9.268  10.431  66.178  1.00  0.00     0.000 HD 
HETATM    5  O   UNL     1      -6.257   9.374  66.254  1.00  0.00    -0.062 OA 
ENDROOT
BRANCH   3   6
HETATM    6  C   UNL     1      -8.149   8.400  67.304  1.00  0.00    -0.105 A  
HETATM    7  C   UNL     1      -9.037   7.457  66.717  1.00  0.00    -0.151 A  
HETATM    8  I   UNL     1      -9.156   7.251  64.569  1.00  0.00     2.053 I  
HETATM    9  C   UNL     1      -9.781   6.553  67.525  1.00  0.00    -0.141 A  
HETATM   10  C   UNL     1     -10.906   5.782  66.934  1.00  0.00    -0.254 C  
HETATM   11  C   UNL     1      -9.519   6.509  68.914  1.00  0.00    -0.129 A  
HETATM   12  C   UNL     1      -8.565   7.371  69.502  1.00  0.00    -0.134 A  
HETATM   13  I   UNL     1     -10.559   5.139  70.214  1.00  0.00     0.338 I  
HETATM   14  O   UNL     1     -10.835   4.448  67.112  1.00  0.00     0.562 OA 
HETATM   15  O   UNL     1     -11.817   6.325  66.333  1.00  0.00     0.984 OA 
HETATM   16  C   UNL     1      -7.975   8.372  68.705  1.00  0.00    -0.120 A  
HETATM   17  I   UNL     1      -7.194  10.120  69.745  1.00  0.00    -0.148 I  
BRANCH  12  18
HETATM   18  N   UNL     1      -8.360   7.288  70.898  1.00  0.00    -0.115 N  
HETATM   19  C   UNL     1      -7.702   8.155  71.730  1.00  0.00    -0.102 C  
HETATM   20  H   UNL     1      -8.759   6.465  71.350  1.00  0.00     0.000 HD 
HETATM   21  O   UNL     1      -7.473   7.781  72.880  1.00  0.00    -0.090 OA 
HETATM   22  C   UNL     1      -7.218   9.499  71.253  1.00  0.00     0.161 C  
ENDBRANCH  12  18
ENDBRANCH   3   6
TORSDOF 2
ENDMDL
MODEL      207
REMARK 921   NORMALIZED FREE ENERGY PREDICTED BY IDOCK:    9.85 KCAL/MOL
REMARK 922        TOTAL FREE ENERGY PREDICTED BY IDOCK:   10.58 KCAL/MOL
REMARK 923 INTER-LIGAND FREE ENERGY PREDICTED BY IDOCK:    7.98 KCAL/MOL
REMARK 924 INTRA-LIGAND FREE ENERGY PREDICTED BY IDOCK:    2.60 KCAL/MOL
REMARK 927      BINDING AFFINITY PREDICTED BY RF-SCORE:    0.00 PKD
ROOT
HETATM    1  C   UNL     1     -10.615  20.826  68.744  1.00  0.00     0.680 C  
HETATM    2  N   UNL     1     -10.068  19.560  68.322  1.00  0.00    -0.416 N  
HETATM    3  C   UNL     1     -10.862  18.435  68.119  1.00  0.00    -0.051 C  
HETATM    4  H   UNL     1      -9.062  19.487  68.167  1.00  0.00     0.000 HD 
HETATM    5  O   UNL     1     -12.078  18.443  68.251  1.00  0.00     2.353 OA 
ENDROOT
BRANCH   3   6
HETATM    6  C   UNL     1     -10.135  17.182  67.740  1.00  0.00    -0.306 A  
HETATM    7  C   UNL     1      -8.713  17.148  67.700  1.00  0.00    -0.213 A  
HETATM    8  I   UNL     1      -7.553  18.779  68.514  1.00  0.00    -0.352 I  
HETATM    9  C   UNL     1      -8.024  15.997  67.229  1.00  0.00    -0.207 A  
HETATM   10  C   UNL     1      -6.571  16.076  66.920  1.00  0.00     0.062 C  
HETATM   11  C   UNL     1      -8.767  14.831  66.934  1.00  0.00    -0.236 A  
HETATM   12  C   UNL     1     -10.175  14.815  67.064  1.00  0.00    -0.253 A  
HETATM   13  I   UNL     1      -7.808  13.022  66.261  1.00  0.00     2.485 I  
HETATM   14  O   UNL     1      -5.808  15.154  67.539  1.00  0.00    -0.308 OA 
HETATM   15  O   UNL     1      -6.116  16.918  66.165  1.00  0.00    -0.221 OA 
HETATM   16  C   UNL     1     -10.842  16.019  67.363  1.00  0.00    -0.277 A  
HETATM   17  I   UNL     1     -12.932  16.157  66.767  1.00  0.00     6.543 I  
BRANCH  12  18
HETATM   18  N   UNL     1     -10.862  13.622  66.739  1.00  0.00    -0.289 N  
HETATM   19  C   UNL     1     -11.394  13.230  65.539  1.00  0.00    -0.294 C  
HETATM   20  H   UNL     1     -10.977  12.961  67.506  1.00  0.00     0.000 HD 
HETATM   21  O   UNL     1     -12.124  12.239  65.534  1.00  0.00    -0.523 OA 
HETATM   22  C   UNL     1     -11.150  14.005  64.271  1.00  0.00    -0.198 C  
ENDBRANCH  12  18
ENDBRANCH   3   6
TORSDOF 2
ENDMDL
MODEL      208
REMARK 921   NORMALIZED FREE ENERGY PREDICTED BY IDOCK:   10.93 KCAL/MOL
REMARK 922        TOTAL FREE ENERGY PREDICTED BY IDOCK:   11.78 KCAL/MOL
REMARK 923 INTER-LIGAND FREE ENERGY PREDICTED BY IDOCK:   10.99 KCAL/MOL
REMARK 924 INTRA-LIGAND FREE ENERGY PREDICTED BY IDOCK:    0.80 KCAL/MOL
REMARK 927      BINDING AFFINITY PREDICTED BY RF-SCORE:    0.00 PKD
ROOT
HETATM    1  C   UNL     1     -12.846   7.485  67.924  1.00  0.00     9.950 C  
HETATM    2  N   UNL     1     -11.602   8.156  67.640  1.00  0.00     0.886 N  
HETATM    3  C   UNL     1     -10.375   7.668  68.079  1.00  0.00    -0.205 C  
HETATM    4  H   UNL     1     -11.623   9.020  67.097  1.00  0.00     0.000 HD 
HETATM    5  O   UNL     1     -10.256   6.625  68.707  1.00  0.00    -0.154 OA 
ENDROOT
BRANCH   3   6
HETATM    6  C   UNL     1      -9.182   8.513  67.753  1.00  0.00    -0.146 A  
HETATM    7  C   UNL     1      -8.099   7.985  66.997  1.00  0.00    -0.116 A  
HETATM    8  I   UNL     1      -8.283   6.077  66.001  1.00  0.00    -0.141 I  
HETATM    9  C   UNL     1      -6.916   8.747  66.786  1.00  0.00    -0.080 A  
HETATM   10  C   UNL     1      -5.695   8.088  66.253  1.00  0.00    -0.040 C  
HETATM   11  C   UNL     1      -6.887  10.092  67.218  1.00  0.00    -0.078 A  
HETATM   12  C   UNL     1      -7.995  10.666  67.884  1.00  0.00    -0.106 A  
HETATM   13  I   UNL     1      -5.159  11.341  66.900  1.00  0.00    -0.116 I  
HETATM   14  O   UNL     1      -5.168   8.670  65.157  1.00  0.00    -0.034 OA 
HETATM   15  O   UNL     1      -5.215   7.095  66.773  1.00  0.00    -0.020 OA 
HETATM   16  C   UNL     1      -9.079   9.838  68.233  1.00  0.00    -0.122 A  
HETATM   17  I   UNL     1     -10.324  10.498  69.893  1.00  0.00     0.228 I  
BRANCH  12  18
HETATM   18  N   UNL     1      -7.897  12.013  68.304  1.00  0.00    -0.138 N  
HETATM   19  C   UNL     1      -7.837  13.153  67.547  1.00  0.00    -0.172 C  
HETATM   20  H   UNL     1      -7.866  12.155  69.313  1.00  0.00     0.000 HD 
HETATM   21  O   UNL     1      -7.552  14.205  68.119  1.00  0.00    -0.112 OA 
HETATM   22  C   UNL     1      -8.055  13.129  66.057  1.00  0.00     1.702 C  
ENDBRANCH  12  18
ENDBRANCH   3   6
TORSDOF 2
ENDMDL
MODEL      209
REMARK 921   NORMALIZED FREE ENERGY PREDICTED BY IDOCK:   15.19 KCAL/MOL
REMARK 922        TOTAL FREE ENERGY PREDICTED BY IDOCK:   16.54 KCAL/MOL
REMARK 923 INTER-LIGAND FREE ENERGY PREDICTED BY IDOCK:   15.92 KCAL/MOL
REMARK 924 INTRA-LIGAND FREE ENERGY PREDICTED BY IDOCK:    0.63 KCAL/MOL
REMARK 927      BINDING AFFINITY PREDICTED BY RF-SCORE:    0.00 PKD
ROOT
HETATM    1  C   UNL     1      -7.876  20.725  72.068  1.00  0.00     2.877 C  
HETATM    2  N   UNL     1      -8.173  19.922  70.908  1.00  0.00     1.631 N  
HETATM    3  C   UNL     1      -9.437  19.892  70.326  1.00  0.00     0.993 C  
HETATM    4  H   UNL     1      -7.429  19.355  70.500  1.00  0.00     0.000 HD 
HETATM    5  O   UNL     1     -10.375  20.563  70.731  1.00  0.00     1.045 OA 
ENDROOT
BRANCH   3   6
HETATM    6  C   UNL     1      -9.598  18.961  69.163  1.00  0.00    -0.237 A  
HETATM    7  C   UNL     1      -8.976  19.238  67.915  1.00  0.00    -0.311 A  
HETATM    8  I   UNL     1      -7.504  20.812  67.748  1.00  0.00     0.126 I  
HETATM    9  C   UNL     1      -9.221  18.419  66.779  1.00  0.00    -0.293 A  
HETATM   10  C   UNL     1      -8.805  18.879  65.428  1.00  0.00     1.382 C  
HETATM   11  C   UNL     1      -9.983  17.239  66.943  1.00  0.00    -0.294 A  
HETATM   12  C   UNL     1     -10.526  16.893  68.201  1.00  0.00    -0.350 A  
HETATM   13  I   UNL     1     -10.368  15.908  65.291  1.00  0.00    -0.008 I  
HETATM   14  O   UNL     1      -8.032  18.012  64.746  1.00  0.00     2.289 OA 
HETATM   15  O   UNL     1      -9.140  19.963  64.982  1.00  0.00     0.450 OA 
HETATM   16  C   UNL     1     -10.414  17.812  69.263  1.00  0.00     0.039 A  
HETATM   17  I   UNL     1     -11.889  17.654  70.857  1.00  0.00     7.698 I  
BRANCH  12  18
HETATM   18  N   UNL     1     -11.291  15.708  68.295  1.00  0.00    -0.350 N  
HETATM   19  C   UNL     1     -10.868  14.405  68.313  1.00  0.00    -0.242 C  
HETATM   20  H   UNL     1     -12.300  15.841  68.358  1.00  0.00     0.000 HD 
HETATM   21  O   UNL     1     -11.721  13.525  68.199  1.00  0.00    -0.320 OA 
HETATM   22  C   UNL     1      -9.408  14.045  68.412  1.00  0.00    -0.210 C  
ENDBRANCH  12  18
ENDBRANCH   3   6
TORSDOF 2
ENDMDL
MODEL      210
REMARK 921   NORMALIZED FREE ENERGY PREDICTED BY IDOCK:   15.62 KCAL/MOL
REMARK 922        TOTAL FREE ENERGY PREDICTED BY IDOCK:   17.02 KCAL/MOL
REMARK 923 INTER-LIGAND FREE ENERGY PREDICTED BY IDOCK:    9.86 KCAL/MOL
REMARK 924 INTRA-LIGAND FREE ENERGY PREDICTED BY IDOCK:    7.16 KCAL/MOL
REMARK 927      BINDING AFFINITY PREDICTED BY RF-SCORE:    0.00 PKD
ROOT
HETATM    1  C   UNL     1     -12.104  15.283  63.586  1.00  0.00     0.641 C  
HETATM    2  N   UNL     1     -11.170  14.353  64.169  1.00  0.00    -0.579 N  
HETATM    3  C   UNL     1     -11.545  13.076  64.578  1.00  0.00    -0.360 C  
HETATM    4  H   UNL     1     -10.198  14.641  64.287  1.00  0.00     0.000 HD 
HETATM    5  O   UNL     1     -12.680  12.639  64.445  1.00  0.00    -0.656 OA 
ENDROOT
BRANCH   3   6
HETATM    6  C   UNL     1     -10.470  12.254  65.219  1.00  0.00    -0.315 A  
HETATM    7  C   UNL     1     -10.521  10.833  65.188  1.00  0.00    -0.229 A  
HETATM    8  I   UNL     1     -11.949   9.815  63.925  1.00  0.00    13.354 I  
HETATM    9  C   UNL     1      -9.567  10.052  65.895  1.00  0.00    -0.283 A  
HETATM   10  C   UNL     1      -9.798   8.596  66.092  1.00  0.00    -0.198 C  
HETATM   11  C   UNL     1      -8.478  10.706  66.515  1.00  0.00    -0.144 A  
HETATM   12  C   UNL     1      -8.355  12.114  66.472  1.00  0.00     0.020 A  
HETATM   13  I   UNL     1      -6.953   9.604  67.569  1.00  0.00    -0.085 I  
HETATM   14  O   UNL     1      -8.790   7.801  65.685  1.00  0.00    -0.147 OA 
HETATM   15  O   UNL     1     -10.827   8.166  66.584  1.00  0.00    -0.100 OA 
HETATM   16  C   UNL     1      -9.406  12.869  65.917  1.00  0.00     0.043 A  
HETATM   17  I   UNL     1      -9.582  14.938  66.573  1.00  0.00    -0.338 I  
BRANCH  12  18
HETATM   18  N   UNL     1      -7.251  12.708  67.125  1.00  0.00    -0.347 N  
HETATM   19  C   UNL     1      -7.171  13.918  67.762  1.00  0.00    -0.164 C  
HETATM   20  H   UNL     1      -6.392  12.157  67.122  1.00  0.00     0.000 HD 
HETATM   21  O   UNL     1      -6.054  14.321  68.086  1.00  0.00    -0.111 OA 
HETATM   22  C   UNL     1      -8.391  14.765  68.014  1.00  0.00    -0.143 C  
ENDBRANCH  12  18
ENDBRANCH   3   6
TORSDOF 2
ENDMDL
MODEL      211
REMARK 921   NORMALIZED FREE ENERGY PREDICTED BY IDOCK:   17.73 KCAL/MOL
REMARK 922        TOTAL FREE ENERGY PREDICTED BY IDOCK:   19.37 KCAL/MOL
REMARK 923 INTER-LIGAND FREE ENERGY PREDICTED BY IDOCK:   16.69 KCAL/MOL
REMARK 924 INTRA-LIGAND FREE ENERGY PREDICTED BY IDOCK:    2.68 KCAL/MOL
REMARK 927      BINDING AFFINITY PREDICTED BY RF-SCORE:    0.00 PKD
ROOT
HETATM    1  C   UNL     1      -7.850  20.716  72.058  1.00  0.00     2.553 C  
HETATM    2  N   UNL     1      -7.947  19.820  70.933  1.00  0.00     1.569 N  
HETATM    3  C   UNL     1      -9.126  19.654  70.210  1.00  0.00     1.294 C  
HETATM    4  H   UNL     1      -7.122  19.288  70.656  1.00  0.00     0.000 HD 
HETATM    5  O   UNL     1     -10.151  20.275  70.454  1.00  0.00     0.358 OA 
ENDROOT
BRANCH   3   6
HETATM    6  C   UNL     1      -9.078  18.642  69.108  1.00  0.00    -0.019 A  
HETATM    7  C   UNL     1      -7.836  18.204  68.571  1.00  0.00    -0.297 A  
HETATM    8  I   UNL     1      -5.978  18.712  69.552  1.00  0.00    -0.241 I  
HETATM    9  C   UNL     1      -7.791  17.333  67.449  1.00  0.00    -0.198 A  
HETATM   10  C   UNL     1      -6.510  17.118  66.726  1.00  0.00    -0.219 C  
HETATM   11  C   UNL     1      -9.002  16.792  66.959  1.00  0.00    -0.206 A  
HETATM   12  C   UNL     1     -10.242  17.138  67.544  1.00  0.00    -0.323 A  
HETATM   13  I   UNL     1      -9.033  15.425  65.292  1.00  0.00     3.363 I  
HETATM   14  O   UNL     1      -6.145  15.828  66.587  1.00  0.00    -0.056 OA 
HETATM   15  O   UNL     1      -5.845  18.046  66.298  1.00  0.00    -0.150 OA 
HETATM   16  C   UNL     1     -10.268  18.136  68.537  1.00  0.00    -0.384 A  
HETATM   17  I   UNL     1     -12.150  19.195  68.816  1.00  0.00     8.842 I  
BRANCH  12  18
HETATM   18  N   UNL     1     -11.418  16.574  66.997  1.00  0.00     0.423 N  
HETATM   19  C   UNL     1     -11.909  15.301  67.126  1.00  0.00     0.065 C  
HETATM   20  H   UNL     1     -11.981  17.204  66.426  1.00  0.00     0.000 HD 
HETATM   21  O   UNL     1     -12.846  14.973  66.400  1.00  0.00     0.634 OA 
HETATM   22  C   UNL     1     -11.298  14.309  68.080  1.00  0.00    -0.313 C  
ENDBRANCH  12  18
ENDBRANCH   3   6
TORSDOF 2
ENDMDL
MODEL      212
REMARK 921   NORMALIZED FREE ENERGY PREDICTED BY IDOCK:   21.24 KCAL/MOL
REMARK 922        TOTAL FREE ENERGY PREDICTED BY IDOCK:   23.30 KCAL/MOL
REMARK 923 INTER-LIGAND FREE ENERGY PREDICTED BY IDOCK:   20.82 KCAL/MOL
REMARK 924 INTRA-LIGAND FREE ENERGY PREDICTED BY IDOCK:    2.48 KCAL/MOL
REMARK 927      BINDING AFFINITY PREDICTED BY RF-SCORE:    0.00 PKD
ROOT
HETATM    1  C   UNL     1     -12.804   8.056  65.877  1.00  0.00    16.203 C  
HETATM    2  N   UNL     1     -11.601   7.941  66.664  1.00  0.00     1.475 N  
HETATM    3  C   UNL     1     -10.934   6.731  66.834  1.00  0.00    -0.300 C  
HETATM    4  H   UNL     1     -11.226   8.777  67.112  1.00  0.00     0.000 HD 
HETATM    5  O   UNL     1     -11.297   5.688  66.307  1.00  0.00     0.103 OA 
ENDROOT
BRANCH   3   6
HETATM    6  C   UNL     1      -9.734   6.768  67.729  1.00  0.00    -0.140 A  
HETATM    7  C   UNL     1      -8.467   7.183  67.234  1.00  0.00    -0.122 A  
HETATM    8  I   UNL     1      -8.299   8.103  65.286  1.00  0.00    -0.074 I  
HETATM    9  C   UNL     1      -7.304   7.108  68.049  1.00  0.00    -0.097 A  
HETATM   10  C   UNL     1      -5.958   7.267  67.438  1.00  0.00    -0.037 C  
HETATM   11  C   UNL     1      -7.448   6.747  69.409  1.00  0.00    -0.094 A  
HETATM   12  C   UNL     1      -8.717   6.427  69.946  1.00  0.00    -0.142 A  
HETATM   13  I   UNL     1      -5.752   6.652  70.735  1.00  0.00    -0.024 I  
HETATM   14  O   UNL     1      -5.183   8.209  68.010  1.00  0.00    -0.031 OA 
HETATM   15  O   UNL     1      -5.594   6.592  66.490  1.00  0.00    -0.013 OA 
HETATM   16  C   UNL     1      -9.819   6.340  69.073  1.00  0.00    -0.143 A  
HETATM   17  I   UNL     1     -11.489   5.102  69.722  1.00  0.00     4.734 I  
BRANCH  12  18
HETATM   18  N   UNL     1      -8.791   6.059  71.309  1.00  0.00    -0.136 N  
HETATM   19  C   UNL     1      -8.262   6.688  72.404  1.00  0.00    -0.103 C  
HETATM   20  H   UNL     1      -9.312   5.204  71.503  1.00  0.00     0.000 HD 
HETATM   21  O   UNL     1      -8.280   6.082  73.476  1.00  0.00    -0.110 OA 
HETATM   22  C   UNL     1      -7.626   8.050  72.308  1.00  0.00    -0.133 C  
ENDBRANCH  12  18
ENDBRANCH   3   6
TORSDOF 2
ENDMDL
MODEL      213
REMARK 921   NORMALIZED FREE ENERGY PREDICTED BY IDOCK:   25.56 KCAL/MOL
REMARK 922        TOTAL FREE ENERGY PREDICTED BY IDOCK:   28.12 KCAL/MOL
REMARK 923 INTER-LIGAND FREE ENERGY PREDICTED BY IDOCK:   26.00 KCAL/MOL
REMARK 924 INTRA-LIGAND FREE ENERGY PREDICTED BY IDOCK:    2.12 KCAL/MOL
REMARK 927      BINDING AFFINITY PREDICTED BY RF-SCORE:    0.00 PKD
ROOT
HETATM    1  C   UNL     1     -10.621  20.839  68.725  1.00  0.00     0.680 C  
HETATM    2  N   UNL     1     -10.090  19.666  68.076  1.00  0.00    -0.412 N  
HETATM    3  C   UNL     1     -10.892  18.586  67.717  1.00  0.00    -0.247 C  
HETATM    4  H   UNL     1      -9.092  19.627  67.872  1.00  0.00     0.000 HD 
HETATM    5  O   UNL     1     -12.102  18.563  67.895  1.00  0.00     2.058 OA 
ENDROOT
BRANCH   3   6
HETATM    6  C   UNL     1     -10.178  17.419  67.106  1.00  0.00    -0.323 A  
HETATM    7  C   UNL     1     -10.582  16.085  67.392  1.00  0.00    -0.316 A  
HETATM    8  I   UNL     1     -12.438  15.700  68.430  1.00  0.00     1.853 I  
HETATM    9  C   UNL     1      -9.836  14.977  66.907  1.00  0.00    -0.244 A  
HETATM   10  C   UNL     1     -10.094  13.615  67.447  1.00  0.00    -0.241 C  
HETATM   11  C   UNL     1      -8.765  15.215  66.015  1.00  0.00     0.236 A  
HETATM   12  C   UNL     1      -8.411  16.531  65.639  1.00  0.00     0.631 A  
HETATM   13  I   UNL     1      -7.606  13.596  65.188  1.00  0.00    12.318 I  
HETATM   14  O   UNL     1     -10.356  12.676  66.517  1.00  0.00    -0.237 OA 
HETATM   15  O   UNL     1     -10.069  13.378  68.643  1.00  0.00    -0.225 OA 
HETATM   16  C   UNL     1      -9.055  17.612  66.271  1.00  0.00    -0.186 A  
HETATM   17  I   UNL     1      -7.985  19.509  66.302  1.00  0.00    -0.277 I  
BRANCH  12  18
HETATM   18  N   UNL     1      -7.321  16.702  64.755  1.00  0.00     5.423 N  
HETATM   19  C   UNL     1      -5.993  16.877  65.043  1.00  0.00     3.555 C  
HETATM   20  H   UNL     1      -7.557  16.695  63.763  1.00  0.00     0.000 HD 
HETATM   21  O   UNL     1      -5.247  17.207  64.121  1.00  0.00     1.723 OA 
HETATM   22  C   UNL     1      -5.459  16.728  66.443  1.00  0.00     0.233 C  
ENDBRANCH  12  18
ENDBRANCH   3   6
TORSDOF 2
ENDMDL
MODEL      214
REMARK 921   NORMALIZED FREE ENERGY PREDICTED BY IDOCK:   25.60 KCAL/MOL
REMARK 922        TOTAL FREE ENERGY PREDICTED BY IDOCK:   28.16 KCAL/MOL
REMARK 923 INTER-LIGAND FREE ENERGY PREDICTED BY IDOCK:   27.60 KCAL/MOL
REMARK 924 INTRA-LIGAND FREE ENERGY PREDICTED BY IDOCK:    0.56 KCAL/MOL
REMARK 927      BINDING AFFINITY PREDICTED BY RF-SCORE:    0.00 PKD
ROOT
HETATM    1  C   UNL     1     -12.137   9.460  70.583  1.00  0.00    -0.130 C  
HETATM    2  N   UNL     1     -11.435  10.206  69.568  1.00  0.00    -0.395 N  
HETATM    3  C   UNL     1     -11.813  11.492  69.193  1.00  0.00    -0.340 C  
HETATM    4  H   UNL     1     -10.633   9.775  69.109  1.00  0.00     0.000 HD 
HETATM    5  O   UNL     1     -12.742  12.095  69.713  1.00  0.00     0.179 OA 
ENDROOT
BRANCH   3   6
HETATM    6  C   UNL     1     -11.019  12.108  68.082  1.00  0.00    -0.271 A  
HETATM    7  C   UNL     1      -9.709  12.612  68.313  1.00  0.00    -0.216 A  
HETATM    8  I   UNL     1      -8.688  12.198  70.172  1.00  0.00     5.875 I  
HETATM    9  C   UNL     1      -9.000  13.300  67.291  1.00  0.00    -0.217 A  
HETATM   10  C   UNL     1      -7.771  14.066  67.626  1.00  0.00    -0.177 C  
HETATM   11  C   UNL     1      -9.559  13.353  65.993  1.00  0.00    -0.159 A  
HETATM   12  C   UNL     1     -10.817  12.769  65.718  1.00  0.00    -0.272 A  
HETATM   13  I   UNL     1      -8.538  14.330  64.366  1.00  0.00    11.631 I  
HETATM   14  O   UNL     1      -6.685  13.745  66.896  1.00  0.00     0.177 OA 
HETATM   15  O   UNL     1      -7.757  14.916  68.500  1.00  0.00    -0.112 OA 
HETATM   16  C   UNL     1     -11.571  12.250  66.789  1.00  0.00    -0.369 A  
HETATM   17  I   UNL     1     -13.726  12.126  66.502  1.00  0.00    13.694 I  
BRANCH  12  18
HETATM   18  N   UNL     1     -11.327  12.869  64.404  1.00  0.00    -0.339 N  
HETATM   19  C   UNL     1     -11.967  13.920  63.802  1.00  0.00    -0.265 C  
HETATM   20  H   UNL     1     -11.200  12.042  63.821  1.00  0.00     0.000 HD 
HETATM   21  O   UNL     1     -12.504  13.715  62.713  1.00  0.00    -0.437 OA 
HETATM   22  C   UNL     1     -12.068  15.270  64.461  1.00  0.00    -0.252 C  
ENDBRANCH  12  18
ENDBRANCH   3   6
TORSDOF 2
ENDMDL
MODEL      215
REMARK 921   NORMALIZED FREE ENERGY PREDICTED BY IDOCK:   38.91 KCAL/MOL
REMARK 922        TOTAL FREE ENERGY PREDICTED BY IDOCK:   43.03 KCAL/MOL
REMARK 923 INTER-LIGAND FREE ENERGY PREDICTED BY IDOCK:   41.15 KCAL/MOL
REMARK 924 INTRA-LIGAND FREE ENERGY PREDICTED BY IDOCK:    1.89 KCAL/MOL
REMARK 927      BINDING AFFINITY PREDICTED BY RF-SCORE:    0.00 PKD
ROOT
HETATM    1  C   UNL     1     -13.492   8.241  65.498  1.00  0.00    22.627 C  
HETATM    2  N   UNL     1     -12.151   8.644  65.842  1.00  0.00     7.646 N  
HETATM    3  C   UNL     1     -11.095   7.739  65.907  1.00  0.00     3.685 C  
HETATM    4  H   UNL     1     -11.970   9.627  66.044  1.00  0.00     0.000 HD 
HETATM    5  O   UNL     1     -11.217   6.549  65.649  1.00  0.00     2.190 OA 
ENDROOT
BRANCH   3   6
HETATM    6  C   UNL     1      -9.776   8.305  66.337  1.00  0.00    -0.300 A  
HETATM    7  C   UNL     1      -8.566   7.884  65.720  1.00  0.00    -0.147 A  
HETATM    8  I   UNL     1      -8.609   6.688  63.921  1.00  0.00     0.961 I  
HETATM    9  C   UNL     1      -7.306   8.332  66.204  1.00  0.00    -0.077 A  
HETATM   10  C   UNL     1      -6.056   7.668  65.746  1.00  0.00    -0.038 C  
HETATM   11  C   UNL     1      -7.277   9.315  67.219  1.00  0.00    -0.087 A  
HETATM   12  C   UNL     1      -8.475   9.820  67.777  1.00  0.00    -0.121 A  
HETATM   13  I   UNL     1      -5.417  10.092  67.984  1.00  0.00    -0.037 I  
HETATM   14  O   UNL     1      -5.127   8.499  65.235  1.00  0.00    -0.034 OA 
HETATM   15  O   UNL     1      -5.897   6.462  65.829  1.00  0.00    -0.023 OA 
HETATM   16  C   UNL     1      -9.698   9.231  67.401  1.00  0.00    -0.161 A  
HETATM   17  I   UNL     1     -11.353   9.429  68.802  1.00  0.00     0.763 I  
BRANCH  12  18
HETATM   18  N   UNL     1      -8.377  10.792  68.799  1.00  0.00    -0.140 N  
HETATM   19  C   UNL     1      -7.917  10.653  70.082  1.00  0.00     0.630 C  
HETATM   20  H   UNL     1      -8.695  11.727  68.546  1.00  0.00     0.000 HD 
HETATM   21  O   UNL     1      -8.110  11.586  70.863  1.00  0.00     3.935 OA 
HETATM   22  C   UNL     1      -7.246   9.390  70.553  1.00  0.00    -0.126 C  
ENDBRANCH  12  18
ENDBRANCH   3   6
TORSDOF 2
ENDMDL
