MODEL        1
REMARK 921   NORMALIZED FREE ENERGY PREDICTED BY IDOCK:   -6.11 KCAL/MOL
REMARK 922        TOTAL FREE ENERGY PREDICTED BY IDOCK:  -10.68 KCAL/MOL
REMARK 923 INTER-LIGAND FREE ENERGY PREDICTED BY IDOCK:  -10.40 KCAL/MOL
REMARK 924 INTRA-LIGAND FREE ENERGY PREDICTED BY IDOCK:   -0.28 KCAL/MOL
REMARK 927      BINDING AFFINITY PREDICTED BY RF-SCORE:    0.00 PKD
ROOT
HETATM    1  O   UNL     1      -7.388   6.147  71.893  1.00  0.00    -0.089 OA 
HETATM    2  H   UNL     1      -7.272   6.230  72.833  1.00  0.00     0.000 HD 
HETATM    3  C   UNL     1      -7.796   7.379  71.317  1.00  0.00    -0.095 C  
ENDROOT
BRANCH   3   4
HETATM    4  C   UNL     1      -7.982   7.245  69.801  1.00  0.00    -0.123 C  
BRANCH   4   5
HETATM    5  N   UNL     1      -9.386   7.266  69.328  1.00  0.00    -0.154 N  
HETATM    6  C   UNL     1     -10.229   6.152  69.292  1.00  0.00    -0.201 C  
HETATM    7  O   UNL     1     -11.445   6.243  69.061  1.00  0.00    -0.363 OA 
BRANCH   5   8
HETATM    8  C   UNL     1      -9.982   8.557  69.086  1.00  0.00    -0.192 A  
HETATM    9  C   UNL     1     -10.792   9.192  70.069  1.00  0.00    -0.234 A  
HETATM   10  C   UNL     1      -9.829   9.174  67.821  1.00  0.00    -0.174 A  
HETATM   11  I   UNL     1     -10.958   8.262  72.032  1.00  0.00    -0.443 I  
HETATM   12  C   UNL     1     -11.419  10.445  69.818  1.00  0.00    -0.348 A  
HETATM   13  I   UNL     1      -9.065   8.002  66.165  1.00  0.00    -0.120 I  
HETATM   14  I   UNL     1     -11.655  13.205  68.338  1.00  0.00    -0.401 I  
HETATM   15  C   UNL     1     -10.287  10.492  67.608  1.00  0.00    -0.257 A  
HETATM   16  C   UNL     1     -11.079  11.127  68.616  1.00  0.00    -0.239 A  
BRANCH  12  17
HETATM   17  C   UNL     1     -12.541  10.877  70.733  1.00  0.00    -0.377 C  
HETATM   18  N   UNL     1     -12.426  12.056  71.429  1.00  0.00    -0.208 N  
HETATM   19  H   UNL     1     -11.543  12.566  71.402  1.00  0.00     0.000 HD 
HETATM   20  O   UNL     1     -13.545  10.179  70.827  1.00  0.00    -0.233 OA 
BRANCH  18  21
HETATM   21  C   UNL     1     -13.539  12.599  72.211  1.00  0.00    -0.409 C  
BRANCH  21  22
HETATM   22  C   UNL     1     -13.272  14.069  72.553  1.00  0.00    -0.505 C  
HETATM   23  O   UNL     1     -11.925  14.404  72.185  1.00  0.00    -0.195 OA 
HETATM   24  H   UNL     1     -11.760  15.314  72.397  1.00  0.00     0.000 HD 
BRANCH  22  25
HETATM   25  C   UNL     1     -14.265  15.021  71.872  1.00  0.00    -0.555 C  
HETATM   26  H   UNL     1     -14.240  16.344  70.405  1.00  0.00     0.000 HD 
HETATM   27  O   UNL     1     -13.626  15.755  70.827  1.00  0.00    -0.477 OA 
ENDBRANCH  22  25
ENDBRANCH  21  22
ENDBRANCH  18  21
ENDBRANCH  12  17
BRANCH  15  28
HETATM   28  C   UNL     1      -9.982  11.212  66.328  1.00  0.00    -0.219 C  
HETATM   29  O   UNL     1      -8.914  11.793  66.175  1.00  0.00    -0.201 OA 
HETATM   30  H   UNL     1     -11.824  10.687  65.468  1.00  0.00     0.000 HD 
HETATM   31  N   UNL     1     -10.944  11.185  65.329  1.00  0.00    -0.147 N  
BRANCH  31  32
HETATM   32  C   UNL     1     -10.673  11.882  64.077  1.00  0.00    -0.375 C  
BRANCH  32  33
HETATM   33  C   UNL     1     -11.816  12.806  63.638  1.00  0.00    -0.532 C  
HETATM   34  H   UNL     1     -13.768  12.665  63.428  1.00  0.00     0.000 HD 
HETATM   35  O   UNL     1     -13.060  12.093  63.700  1.00  0.00    -0.787 OA 
BRANCH  33  36
HETATM   36  C   UNL     1     -11.867  14.059  64.529  1.00  0.00    -0.434 C  
HETATM   37  O   UNL     1     -12.224  15.221  63.784  1.00  0.00    -0.968 OA 
HETATM   38  H   UNL     1     -12.255  15.995  64.334  1.00  0.00     0.000 HD 
ENDBRANCH  33  36
ENDBRANCH  32  33
ENDBRANCH  31  32
ENDBRANCH  15  28
ENDBRANCH   5   8
BRANCH   6  39
HETATM   39  C   UNL     1      -9.623   4.770  69.584  1.00  0.00    -0.183 C  
HETATM   40  O   UNL     1      -9.702   4.404  70.957  1.00  0.00    -0.165 OA 
HETATM   41  H   UNL     1      -9.327   3.549  71.138  1.00  0.00     0.000 HD 
ENDBRANCH   6  39
ENDBRANCH   4   5
ENDBRANCH   3   4
TORSDOF 12
ENDMDL
MODEL        2
REMARK 921   NORMALIZED FREE ENERGY PREDICTED BY IDOCK:   -6.07 KCAL/MOL
REMARK 922        TOTAL FREE ENERGY PREDICTED BY IDOCK:  -10.61 KCAL/MOL
REMARK 923 INTER-LIGAND FREE ENERGY PREDICTED BY IDOCK:   -9.62 KCAL/MOL
REMARK 924 INTRA-LIGAND FREE ENERGY PREDICTED BY IDOCK:   -0.99 KCAL/MOL
REMARK 927      BINDING AFFINITY PREDICTED BY RF-SCORE:    0.00 PKD
ROOT
HETATM    1  O   UNL     1     -11.038   6.078  66.416  1.00  0.00    -0.713 OA 
HETATM    2  H   UNL     1     -11.486   5.381  66.881  1.00  0.00     0.000 HD 
HETATM    3  C   UNL     1      -9.639   5.841  66.363  1.00  0.00    -0.153 C  
ENDROOT
BRANCH   3   4
HETATM    4  C   UNL     1      -8.917   6.967  65.612  1.00  0.00     0.056 C  
BRANCH   4   5
HETATM    5  N   UNL     1      -8.260   7.982  66.467  1.00  0.00    -0.112 N  
HETATM    6  C   UNL     1      -6.912   8.343  66.379  1.00  0.00    -0.074 C  
HETATM    7  O   UNL     1      -6.443   9.319  66.986  1.00  0.00    -0.065 OA 
BRANCH   5   8
HETATM    8  C   UNL     1      -9.111   8.794  67.301  1.00  0.00    -0.132 A  
HETATM    9  C   UNL     1      -9.707   9.988  66.805  1.00  0.00    -0.189 A  
HETATM   10  C   UNL     1      -9.298   8.448  68.661  1.00  0.00    -0.143 A  
HETATM   11  I   UNL     1      -9.465  10.467  64.694  1.00  0.00    -0.401 I  
HETATM   12  C   UNL     1     -10.512  10.817  67.637  1.00  0.00    -0.252 A  
HETATM   13  I   UNL     1      -7.996   6.964  69.557  1.00  0.00    -0.129 I  
HETATM   14  I   UNL     1     -12.381  11.319  70.110  1.00  0.00    -0.235 I  
HETATM   15  C   UNL     1     -10.231   9.148  69.456  1.00  0.00    -0.208 A  
HETATM   16  C   UNL     1     -10.841  10.333  68.934  1.00  0.00    -0.228 A  
BRANCH  12  17
HETATM   17  C   UNL     1     -10.799  12.226  67.176  1.00  0.00    -0.244 C  
HETATM   18  N   UNL     1     -11.836  12.451  66.302  1.00  0.00    -0.394 N  
HETATM   19  H   UNL     1     -12.326  11.654  65.896  1.00  0.00     0.000 HD 
HETATM   20  O   UNL     1     -10.115  13.152  67.600  1.00  0.00    -0.215 OA 
BRANCH  18  21
HETATM   21  C   UNL     1     -12.255  13.806  65.939  1.00  0.00    -0.466 C  
BRANCH  21  22
HETATM   22  C   UNL     1     -11.520  14.262  64.674  1.00  0.00    -0.385 C  
HETATM   23  O   UNL     1     -12.424  14.219  63.560  1.00  0.00    -1.095 OA 
HETATM   24  H   UNL     1     -11.968  14.501  62.776  1.00  0.00     0.000 HD 
BRANCH  22  25
HETATM   25  C   UNL     1     -10.916  15.666  64.818  1.00  0.00    -0.400 C  
HETATM   26  H   UNL     1     -11.108  17.429  63.949  1.00  0.00     0.000 HD 
HETATM   27  O   UNL     1     -11.481  16.560  63.860  1.00  0.00    -1.145 OA 
ENDBRANCH  22  25
ENDBRANCH  21  22
ENDBRANCH  18  21
ENDBRANCH  12  17
BRANCH  15  28
HETATM   28  C   UNL     1     -10.557   8.684  70.844  1.00  0.00    -0.214 C  
HETATM   29  O   UNL     1      -9.947   9.125  71.811  1.00  0.00    -0.320 OA 
HETATM   30  H   UNL     1     -12.080   7.404  70.175  1.00  0.00     0.000 HD 
HETATM   31  N   UNL     1     -11.575   7.752  70.989  1.00  0.00    -0.283 N  
BRANCH  31  32
HETATM   32  C   UNL     1     -11.906   7.282  72.329  1.00  0.00    -0.248 C  
BRANCH  32  33
HETATM   33  C   UNL     1     -11.378   5.873  72.626  1.00  0.00    -0.292 C  
HETATM   34  H   UNL     1     -10.345   4.501  71.663  1.00  0.00     0.000 HD 
HETATM   35  O   UNL     1     -10.673   5.374  71.479  1.00  0.00    -0.239 OA 
BRANCH  33  36
HETATM   36  C   UNL     1     -10.458   5.893  73.858  1.00  0.00    -0.273 C  
HETATM   37  O   UNL     1      -9.988   7.209  74.144  1.00  0.00    -0.384 OA 
HETATM   38  H   UNL     1      -9.419   7.221  74.905  1.00  0.00     0.000 HD 
ENDBRANCH  33  36
ENDBRANCH  32  33
ENDBRANCH  31  32
ENDBRANCH  15  28
ENDBRANCH   5   8
BRANCH   6  39
HETATM   39  C   UNL     1      -5.994   7.515  65.468  1.00  0.00    -0.038 C  
HETATM   40  O   UNL     1      -5.279   6.501  66.167  1.00  0.00    -0.013 OA 
HETATM   41  H   UNL     1      -4.711   5.989  65.603  1.00  0.00     0.000 HD 
ENDBRANCH   6  39
ENDBRANCH   4   5
ENDBRANCH   3   4
TORSDOF 12
ENDMDL
MODEL        3
REMARK 921   NORMALIZED FREE ENERGY PREDICTED BY IDOCK:   -5.86 KCAL/MOL
REMARK 922        TOTAL FREE ENERGY PREDICTED BY IDOCK:  -10.25 KCAL/MOL
REMARK 923 INTER-LIGAND FREE ENERGY PREDICTED BY IDOCK:   -9.18 KCAL/MOL
REMARK 924 INTRA-LIGAND FREE ENERGY PREDICTED BY IDOCK:   -1.08 KCAL/MOL
REMARK 927      BINDING AFFINITY PREDICTED BY RF-SCORE:    0.00 PKD
ROOT
HETATM    1  O   UNL     1      -5.988  12.451  66.682  1.00  0.00    -0.493 OA 
HETATM    2  H   UNL     1      -5.508  13.083  67.204  1.00  0.00     0.000 HD 
HETATM    3  C   UNL     1      -7.262  12.180  67.248  1.00  0.00    -0.144 C  
ENDROOT
BRANCH   3   4
HETATM    4  C   UNL     1      -8.036  11.161  66.405  1.00  0.00    -0.147 C  
BRANCH   4   5
HETATM    5  N   UNL     1      -9.458  11.492  66.153  1.00  0.00    -0.215 N  
HETATM    6  C   UNL     1     -10.161  11.147  64.995  1.00  0.00    -0.296 C  
HETATM    7  O   UNL     1     -11.391  11.284  64.897  1.00  0.00    -0.120 OA 
BRANCH   5   8
HETATM    8  C   UNL     1     -10.218  12.024  67.258  1.00  0.00    -0.204 A  
HETATM    9  C   UNL     1     -10.755  11.169  68.261  1.00  0.00    -0.196 A  
HETATM   10  C   UNL     1     -10.506  13.408  67.309  1.00  0.00    -0.248 A  
HETATM   11  I   UNL     1     -10.242   9.053  68.203  1.00  0.00    -0.240 I  
HETATM   12  C   UNL     1     -11.543  11.683  69.329  1.00  0.00    -0.385 A  
HETATM   13  I   UNL     1     -10.161  14.621  65.546  1.00  0.00    -0.370 I  
HETATM   14  I   UNL     1     -12.468  13.973  71.270  1.00  0.00    -0.331 I  
HETATM   15  C   UNL     1     -11.128  13.968  68.446  1.00  0.00    -0.275 A  
HETATM   16  C   UNL     1     -11.642  13.097  69.459  1.00  0.00    -0.283 A  
BRANCH  12  17
HETATM   17  C   UNL     1     -12.379  10.713  70.130  1.00  0.00    -0.295 C  
HETATM   18  N   UNL     1     -11.859  10.164  71.279  1.00  0.00    -0.370 N  
HETATM   19  H   UNL     1     -10.881  10.337  71.514  1.00  0.00     0.000 HD 
HETATM   20  O   UNL     1     -13.514  10.441  69.756  1.00  0.00     0.210 OA 
BRANCH  18  21
HETATM   21  C   UNL     1     -12.672   9.339  72.173  1.00  0.00    -0.390 C  
BRANCH  21  22
HETATM   22  C   UNL     1     -12.398   7.854  71.911  1.00  0.00    -0.315 C  
HETATM   23  O   UNL     1     -13.072   7.453  70.708  1.00  0.00    -0.598 OA 
HETATM   24  H   UNL     1     -12.902   6.533  70.546  1.00  0.00     0.000 HD 
BRANCH  22  25
HETATM   25  C   UNL     1     -10.899   7.541  71.813  1.00  0.00    -0.227 C  
HETATM   26  H   UNL     1      -9.241   8.045  72.761  1.00  0.00     0.000 HD 
HETATM   27  O   UNL     1     -10.169   8.239  72.822  1.00  0.00    -0.300 OA 
ENDBRANCH  22  25
ENDBRANCH  21  22
ENDBRANCH  18  21
ENDBRANCH  12  17
BRANCH  15  28
HETATM   28  C   UNL     1     -11.287  15.453  68.581  1.00  0.00    -0.330 C  
HETATM   29  O   UNL     1     -12.388  15.978  68.465  1.00  0.00     0.161 OA 
HETATM   30  H   UNL     1      -9.243  15.746  68.957  1.00  0.00     0.000 HD 
HETATM   31  N   UNL     1     -10.150  16.200  68.852  1.00  0.00    -0.226 N  
BRANCH  31  32
HETATM   32  C   UNL     1     -10.278  17.646  68.982  1.00  0.00    -0.314 C  
BRANCH  32  33
HETATM   33  C   UNL     1     -10.039  18.398  67.667  1.00  0.00    -0.360 C  
HETATM   34  H   UNL     1     -10.266  20.241  67.012  1.00  0.00     0.000 HD 
HETATM   35  O   UNL     1     -10.415  19.775  67.826  1.00  0.00    -0.426 OA 
BRANCH  33  36
HETATM   36  C   UNL     1      -8.564  18.287  67.245  1.00  0.00    -0.254 C  
HETATM   37  O   UNL     1      -8.429  18.142  65.833  1.00  0.00    -0.509 OA 
HETATM   38  H   UNL     1      -7.518  18.073  65.573  1.00  0.00     0.000 HD 
ENDBRANCH  33  36
ENDBRANCH  32  33
ENDBRANCH  31  32
ENDBRANCH  15  28
ENDBRANCH   5   8
BRANCH   6  39
HETATM   39  C   UNL     1      -9.378  10.545  63.819  1.00  0.00    -0.281 C  
HETATM   40  O   UNL     1      -9.242   9.130  63.903  1.00  0.00    -0.408 OA 
HETATM   41  H   UNL     1      -8.757   8.758  63.175  1.00  0.00     0.000 HD 
ENDBRANCH   6  39
ENDBRANCH   4   5
ENDBRANCH   3   4
TORSDOF 12
ENDMDL
MODEL        4
REMARK 921   NORMALIZED FREE ENERGY PREDICTED BY IDOCK:   -5.76 KCAL/MOL
REMARK 922        TOTAL FREE ENERGY PREDICTED BY IDOCK:  -10.07 KCAL/MOL
REMARK 923 INTER-LIGAND FREE ENERGY PREDICTED BY IDOCK:   -9.75 KCAL/MOL
REMARK 924 INTRA-LIGAND FREE ENERGY PREDICTED BY IDOCK:   -0.32 KCAL/MOL
REMARK 927      BINDING AFFINITY PREDICTED BY RF-SCORE:    0.00 PKD
ROOT
HETATM    1  O   UNL     1      -9.107   5.868  65.014  1.00  0.00    -0.368 OA 
HETATM    2  H   UNL     1      -8.987   4.976  65.318  1.00  0.00     0.000 HD 
HETATM    3  C   UNL     1      -7.872   6.568  64.978  1.00  0.00    -0.113 C  
ENDROOT
BRANCH   3   4
HETATM    4  C   UNL     1      -8.066   8.007  64.487  1.00  0.00    -0.132 C  
BRANCH   4   5
HETATM    5  N   UNL     1      -7.616   9.064  65.422  1.00  0.00    -0.089 N  
HETATM    6  C   UNL     1      -6.365   9.687  65.375  1.00  0.00    -0.076 C  
HETATM    7  O   UNL     1      -6.092  10.687  66.058  1.00  0.00    -0.106 OA 
BRANCH   5   8
HETATM    8  C   UNL     1      -8.606   9.631  66.306  1.00  0.00    -0.127 A  
HETATM    9  C   UNL     1      -8.747   9.171  67.645  1.00  0.00    -0.120 A  
HETATM   10  C   UNL     1      -9.508  10.605  65.816  1.00  0.00    -0.200 A  
HETATM   11  I   UNL     1      -7.306   7.723  68.401  1.00  0.00    -0.100 I  
HETATM   12  C   UNL     1      -9.752   9.694  68.507  1.00  0.00    -0.161 A  
HETATM   13  I   UNL     1      -9.654  10.922  63.676  1.00  0.00    -0.414 I  
HETATM   14  I   UNL     1     -11.759  11.929  69.426  1.00  0.00    -0.348 I  
HETATM   15  C   UNL     1     -10.391  11.268  66.695  1.00  0.00    -0.279 A  
HETATM   16  C   UNL     1     -10.505  10.810  68.046  1.00  0.00    -0.194 A  
BRANCH  12  17
HETATM   17  C   UNL     1     -10.089   8.922  69.761  1.00  0.00    -0.199 C  
HETATM   18  N   UNL     1     -11.018   7.910  69.700  1.00  0.00    -0.415 N  
HETATM   19  H   UNL     1     -11.542   7.767  68.836  1.00  0.00     0.000 HD 
HETATM   20  O   UNL     1      -9.519   9.197  70.811  1.00  0.00    -0.229 OA 
BRANCH  18  21
HETATM   21  C   UNL     1     -11.274   7.032  70.843  1.00  0.00    -0.282 C  
BRANCH  21  22
HETATM   22  C   UNL     1     -12.696   7.256  71.368  1.00  0.00    -0.389 C  
HETATM   23  O   UNL     1     -13.055   6.171  72.238  1.00  0.00    -0.413 OA 
HETATM   24  H   UNL     1     -13.937   6.309  72.564  1.00  0.00     0.000 HD 
BRANCH  22  25
HETATM   25  C   UNL     1     -12.850   8.598  72.096  1.00  0.00    -0.391 C  
HETATM   26  H   UNL     1     -14.317   9.685  72.849  1.00  0.00     0.000 HD 
HETATM   27  O   UNL     1     -14.222   8.855  72.398  1.00  0.00    -0.466 OA 
ENDBRANCH  22  25
ENDBRANCH  21  22
ENDBRANCH  18  21
ENDBRANCH  12  17
BRANCH  15  28
HETATM   28  C   UNL     1     -11.231  12.415  66.217  1.00  0.00    -0.317 C  
HETATM   29  O   UNL     1     -12.375  12.230  65.818  1.00  0.00    -0.622 OA 
HETATM   30  H   UNL     1      -9.721  13.822  66.603  1.00  0.00     0.000 HD 
HETATM   31  N   UNL     1     -10.670  13.684  66.257  1.00  0.00    -0.283 N  
BRANCH  31  32
HETATM   32  C   UNL     1     -11.466  14.814  65.793  1.00  0.00    -0.322 C  
BRANCH  32  33
HETATM   33  C   UNL     1     -10.623  15.936  65.174  1.00  0.00    -0.397 C  
HETATM   34  H   UNL     1     -10.858  17.288  63.761  1.00  0.00     0.000 HD 
HETATM   35  O   UNL     1     -11.380  16.593  64.145  1.00  0.00    -1.141 OA 
BRANCH  33  36
HETATM   36  C   UNL     1     -10.194  16.944  66.253  1.00  0.00    -0.329 C  
HETATM   37  O   UNL     1     -10.372  18.290  65.819  1.00  0.00    -0.594 OA 
HETATM   38  H   UNL     1     -10.107  18.912  66.486  1.00  0.00     0.000 HD 
ENDBRANCH  33  36
ENDBRANCH  32  33
ENDBRANCH  31  32
ENDBRANCH  15  28
ENDBRANCH   5   8
BRANCH   6  39
HETATM   39  C   UNL     1      -5.307   9.123  64.414  1.00  0.00    -0.054 C  
HETATM   40  O   UNL     1      -5.741   9.095  63.058  1.00  0.00    -0.083 OA 
HETATM   41  H   UNL     1      -5.087   8.746  62.464  1.00  0.00     0.000 HD 
ENDBRANCH   6  39
ENDBRANCH   4   5
ENDBRANCH   3   4
TORSDOF 12
ENDMDL
MODEL        5
REMARK 921   NORMALIZED FREE ENERGY PREDICTED BY IDOCK:   -5.67 KCAL/MOL
REMARK 922        TOTAL FREE ENERGY PREDICTED BY IDOCK:   -9.93 KCAL/MOL
REMARK 923 INTER-LIGAND FREE ENERGY PREDICTED BY IDOCK:   -9.15 KCAL/MOL
REMARK 924 INTRA-LIGAND FREE ENERGY PREDICTED BY IDOCK:   -0.78 KCAL/MOL
REMARK 927      BINDING AFFINITY PREDICTED BY RF-SCORE:    0.00 PKD
ROOT
HETATM    1  O   UNL     1     -12.288  11.117  68.184  1.00  0.00    -0.615 OA 
HETATM    2  H   UNL     1     -12.223  10.915  69.109  1.00  0.00     0.000 HD 
HETATM    3  C   UNL     1     -12.021  12.490  67.939  1.00  0.00    -0.223 C  
ENDROOT
BRANCH   3   4
HETATM    4  C   UNL     1     -12.127  12.816  66.444  1.00  0.00    -0.300 C  
BRANCH   4   5
HETATM    5  N   UNL     1     -10.855  12.752  65.688  1.00  0.00    -0.269 N  
HETATM    6  C   UNL     1     -10.759  12.731  64.294  1.00  0.00    -0.394 C  
HETATM    7  O   UNL     1      -9.677  12.858  63.698  1.00  0.00    -0.078 OA 
BRANCH   5   8
HETATM    8  C   UNL     1      -9.633  12.932  66.434  1.00  0.00    -0.252 A  
HETATM    9  C   UNL     1      -8.920  11.818  66.960  1.00  0.00    -0.186 A  
HETATM   10  C   UNL     1      -9.172  14.239  66.721  1.00  0.00    -0.264 A  
HETATM   11  I   UNL     1      -9.606   9.814  66.450  1.00  0.00    -0.318 I  
HETATM   12  C   UNL     1      -7.738  11.992  67.735  1.00  0.00    -0.139 A  
HETATM   13  I   UNL     1     -10.503  15.919  66.397  1.00  0.00    -0.256 I  
HETATM   14  I   UNL     1      -5.197  13.605  68.633  1.00  0.00    -0.102 I  
HETATM   15  C   UNL     1      -7.913  14.436  67.328  1.00  0.00    -0.204 A  
HETATM   16  C   UNL     1      -7.196  13.304  67.830  1.00  0.00    -0.137 A  
BRANCH  12  17
HETATM   17  C   UNL     1      -7.249  10.826  68.561  1.00  0.00    -0.088 C  
HETATM   18  N   UNL     1      -7.882  10.525  69.744  1.00  0.00    -0.348 N  
HETATM   19  H   UNL     1      -8.601  11.156  70.097  1.00  0.00     0.000 HD 
HETATM   20  O   UNL     1      -6.306  10.153  68.157  1.00  0.00    -0.053 OA 
BRANCH  18  21
HETATM   21  C   UNL     1      -7.550   9.321  70.508  1.00  0.00    -0.139 C  
BRANCH  21  22
HETATM   22  C   UNL     1      -8.808   8.768  71.186  1.00  0.00    -0.219 C  
HETATM   23  O   UNL     1      -8.615   8.761  72.609  1.00  0.00    -0.411 OA 
HETATM   24  H   UNL     1      -9.395   8.418  73.029  1.00  0.00     0.000 HD 
BRANCH  22  25
HETATM   25  C   UNL     1     -10.071   9.560  70.821  1.00  0.00    -0.282 C  
HETATM   26  H   UNL     1     -11.640   9.337  69.642  1.00  0.00     0.000 HD 
HETATM   27  O   UNL     1     -10.858   8.846  69.868  1.00  0.00    -0.229 OA 
ENDBRANCH  22  25
ENDBRANCH  21  22
ENDBRANCH  18  21
ENDBRANCH  12  17
BRANCH  15  28
HETATM   28  C   UNL     1      -7.344  15.815  67.484  1.00  0.00    -0.178 C  
HETATM   29  O   UNL     1      -6.752  16.356  66.557  1.00  0.00    -0.238 OA 
HETATM   30  H   UNL     1      -8.027  15.991  69.461  1.00  0.00     0.000 HD 
HETATM   31  N   UNL     1      -7.522  16.451  68.704  1.00  0.00    -0.181 N  
BRANCH  31  32
HETATM   32  C   UNL     1      -6.973  17.791  68.881  1.00  0.00    -0.250 C  
BRANCH  32  33
HETATM   33  C   UNL     1      -8.034  18.896  68.805  1.00  0.00    -0.317 C  
HETATM   34  H   UNL     1      -8.472  20.376  67.581  1.00  0.00     0.000 HD 
HETATM   35  O   UNL     1      -7.815  19.691  67.629  1.00  0.00    -0.267 OA 
BRANCH  33  36
HETATM   36  C   UNL     1      -9.446  18.286  68.787  1.00  0.00    -0.281 C  
HETATM   37  O   UNL     1     -10.455  19.293  68.792  1.00  0.00    -0.488 OA 
HETATM   38  H   UNL     1     -11.327  18.916  68.782  1.00  0.00     0.000 HD 
ENDBRANCH  33  36
ENDBRANCH  32  33
ENDBRANCH  31  32
ENDBRANCH  15  28
ENDBRANCH   5   8
BRANCH   6  39
HETATM   39  C   UNL     1     -12.051  12.578  63.478  1.00  0.00    -0.562 C  
HETATM   40  O   UNL     1     -12.222  11.270  62.941  1.00  0.00    -0.884 OA 
HETATM   41  H   UNL     1     -13.022  11.175  62.436  1.00  0.00     0.000 HD 
ENDBRANCH   6  39
ENDBRANCH   4   5
ENDBRANCH   3   4
TORSDOF 12
ENDMDL
MODEL        6
REMARK 921   NORMALIZED FREE ENERGY PREDICTED BY IDOCK:   -5.66 KCAL/MOL
REMARK 922        TOTAL FREE ENERGY PREDICTED BY IDOCK:   -9.91 KCAL/MOL
REMARK 923 INTER-LIGAND FREE ENERGY PREDICTED BY IDOCK:   -9.35 KCAL/MOL
REMARK 924 INTRA-LIGAND FREE ENERGY PREDICTED BY IDOCK:   -0.56 KCAL/MOL
REMARK 927      BINDING AFFINITY PREDICTED BY RF-SCORE:    0.00 PKD
ROOT
HETATM    1  O   UNL     1      -6.041  10.879  65.701  1.00  0.00    -0.267 OA 
HETATM    2  H   UNL     1      -5.796  11.424  64.963  1.00  0.00     0.000 HD 
HETATM    3  C   UNL     1      -6.293   9.543  65.291  1.00  0.00    -0.073 C  
ENDROOT
BRANCH   3   4
HETATM    4  C   UNL     1      -6.688   8.664  66.484  1.00  0.00    -0.071 C  
BRANCH   4   5
HETATM    5  N   UNL     1      -8.111   8.255  66.528  1.00  0.00    -0.103 N  
HETATM    6  C   UNL     1      -8.609   7.054  66.016  1.00  0.00    -0.148 C  
HETATM    7  O   UNL     1      -9.769   6.667  66.230  1.00  0.00    -0.115 OA 
BRANCH   5   8
HETATM    8  C   UNL     1      -9.003   9.053  67.334  1.00  0.00    -0.124 A  
HETATM    9  C   UNL     1      -9.728  10.142  66.773  1.00  0.00    -0.187 A  
HETATM   10  C   UNL     1      -9.105   8.805  68.724  1.00  0.00    -0.138 A  
HETATM   11  I   UNL     1      -9.613  10.465  64.622  1.00  0.00    -0.384 I  
HETATM   12  C   UNL     1     -10.575  10.960  67.573  1.00  0.00    -0.271 A  
HETATM   13  I   UNL     1      -7.635   7.525  69.674  1.00  0.00    -0.098 I  
HETATM   14  I   UNL     1     -12.388  11.493  70.082  1.00  0.00    -0.171 I  
HETATM   15  C   UNL     1     -10.069   9.480  69.503  1.00  0.00    -0.218 A  
HETATM   16  C   UNL     1     -10.807  10.557  68.918  1.00  0.00    -0.235 A  
BRANCH  12  17
HETATM   17  C   UNL     1     -11.011  12.295  67.016  1.00  0.00    -0.268 C  
HETATM   18  N   UNL     1     -12.052  12.343  66.119  1.00  0.00    -0.334 N  
HETATM   19  H   UNL     1     -12.443  11.470  65.763  1.00  0.00     0.000 HD 
HETATM   20  O   UNL     1     -10.443  13.317  67.383  1.00  0.00    -0.241 OA 
BRANCH  18  21
HETATM   21  C   UNL     1     -12.616  13.614  65.663  1.00  0.00    -0.484 C  
BRANCH  21  22
HETATM   22  C   UNL     1     -11.769  14.183  64.519  1.00  0.00    -0.413 C  
HETATM   23  O   UNL     1     -12.532  14.150  63.304  1.00  0.00    -1.146 OA 
HETATM   24  H   UNL     1     -12.007  14.503  62.595  1.00  0.00     0.000 HD 
BRANCH  22  25
HETATM   25  C   UNL     1     -11.277  15.609  64.804  1.00  0.00    -0.382 C  
HETATM   26  H   UNL     1     -11.545  17.417  64.056  1.00  0.00     0.000 HD 
HETATM   27  O   UNL     1     -11.849  16.535  63.879  1.00  0.00    -1.059 OA 
ENDBRANCH  22  25
ENDBRANCH  21  22
ENDBRANCH  18  21
ENDBRANCH  12  17
BRANCH  15  28
HETATM   28  C   UNL     1     -10.296   9.105  70.937  1.00  0.00    -0.280 C  
HETATM   29  O   UNL     1      -9.595   9.575  71.826  1.00  0.00    -0.106 OA 
HETATM   30  H   UNL     1     -11.910   7.848  70.465  1.00  0.00     0.000 HD 
HETATM   31  N   UNL     1     -11.328   8.221  71.215  1.00  0.00    -0.259 N  
BRANCH  31  32
HETATM   32  C   UNL     1     -11.566   7.837  72.602  1.00  0.00    -0.344 C  
BRANCH  32  33
HETATM   33  C   UNL     1     -11.015   6.449  72.950  1.00  0.00    -0.250 C  
HETATM   34  H   UNL     1      -9.896   5.091  72.065  1.00  0.00     0.000 HD 
HETATM   35  O   UNL     1     -10.238   5.952  71.850  1.00  0.00    -0.194 OA 
BRANCH  33  36
HETATM   36  C   UNL     1     -10.162   6.513  74.228  1.00  0.00    -0.350 C  
HETATM   37  O   UNL     1      -9.336   7.675  74.251  1.00  0.00    -0.419 OA 
HETATM   38  H   UNL     1      -8.808   7.715  75.041  1.00  0.00     0.000 HD 
ENDBRANCH  33  36
ENDBRANCH  32  33
ENDBRANCH  31  32
ENDBRANCH  15  28
ENDBRANCH   5   8
BRANCH   6  39
HETATM   39  C   UNL     1      -7.666   6.170  65.186  1.00  0.00    -0.097 C  
HETATM   40  O   UNL     1      -8.166   4.852  64.986  1.00  0.00    -0.118 OA 
HETATM   41  H   UNL     1      -7.582   4.305  64.472  1.00  0.00     0.000 HD 
ENDBRANCH   6  39
ENDBRANCH   4   5
ENDBRANCH   3   4
TORSDOF 12
ENDMDL
MODEL        7
REMARK 921   NORMALIZED FREE ENERGY PREDICTED BY IDOCK:   -5.54 KCAL/MOL
REMARK 922        TOTAL FREE ENERGY PREDICTED BY IDOCK:   -9.70 KCAL/MOL
REMARK 923 INTER-LIGAND FREE ENERGY PREDICTED BY IDOCK:   -8.67 KCAL/MOL
REMARK 924 INTRA-LIGAND FREE ENERGY PREDICTED BY IDOCK:   -1.03 KCAL/MOL
REMARK 927      BINDING AFFINITY PREDICTED BY RF-SCORE:    0.00 PKD
ROOT
HETATM    1  O   UNL     1     -12.261  11.131  68.279  1.00  0.00    -0.709 OA 
HETATM    2  H   UNL     1     -12.209  10.904  69.200  1.00  0.00     0.000 HD 
HETATM    3  C   UNL     1     -12.042  12.520  68.080  1.00  0.00    -0.063 C  
ENDROOT
BRANCH   3   4
HETATM    4  C   UNL     1     -12.126  12.885  66.593  1.00  0.00    -0.289 C  
BRANCH   4   5
HETATM    5  N   UNL     1     -10.853  12.787  65.841  1.00  0.00    -0.265 N  
HETATM    6  C   UNL     1     -10.758  12.679  64.450  1.00  0.00    -0.359 C  
HETATM    7  O   UNL     1      -9.678  12.779  63.847  1.00  0.00    -0.178 OA 
BRANCH   5   8
HETATM    8  C   UNL     1      -9.633  13.025  66.573  1.00  0.00    -0.260 A  
HETATM    9  C   UNL     1      -9.149  14.345  66.788  1.00  0.00    -0.257 A  
HETATM   10  C   UNL     1      -8.858  11.928  67.020  1.00  0.00    -0.190 A  
HETATM   11  I   UNL     1     -10.390  16.021  66.156  1.00  0.00    -0.337 I  
HETATM   12  C   UNL     1      -7.922  14.584  67.471  1.00  0.00    -0.208 A  
HETATM   13  I   UNL     1      -9.294   9.949  66.251  1.00  0.00    -0.280 I  
HETATM   14  I   UNL     1      -5.640  13.789  69.477  1.00  0.00    -0.107 I  
HETATM   15  C   UNL     1      -7.737  12.136  67.853  1.00  0.00    -0.134 A  
HETATM   16  C   UNL     1      -7.276  13.472  68.080  1.00  0.00    -0.125 A  
BRANCH  12  17
HETATM   17  C   UNL     1      -7.288  15.949  67.342  1.00  0.00    -0.193 C  
HETATM   18  N   UNL     1      -7.684  16.959  68.185  1.00  0.00    -0.181 N  
HETATM   19  H   UNL     1      -8.473  16.803  68.812  1.00  0.00     0.000 HD 
HETATM   20  O   UNL     1      -6.416  16.132  66.498  1.00  0.00    -0.176 OA 
BRANCH  18  21
HETATM   21  C   UNL     1      -7.001  18.254  68.208  1.00  0.00    -0.237 C  
BRANCH  21  22
HETATM   22  C   UNL     1      -7.812  19.289  67.421  1.00  0.00    -0.255 C  
HETATM   23  O   UNL     1      -7.961  18.841  66.064  1.00  0.00    -0.422 OA 
HETATM   24  H   UNL     1      -8.464  19.483  65.577  1.00  0.00     0.000 HD 
BRANCH  22  25
HETATM   25  C   UNL     1      -9.187  19.560  68.048  1.00  0.00    -0.334 C  
HETATM   26  H   UNL     1     -11.013  19.981  67.426  1.00  0.00     0.000 HD 
HETATM   27  O   UNL     1     -10.163  19.814  67.037  1.00  0.00    -0.393 OA 
ENDBRANCH  22  25
ENDBRANCH  21  22
ENDBRANCH  18  21
ENDBRANCH  12  17
BRANCH  15  28
HETATM   28  C   UNL     1      -7.010  10.976  68.465  1.00  0.00    -0.070 C  
HETATM   29  O   UNL     1      -6.035  10.484  67.909  1.00  0.00    -0.044 OA 
HETATM   30  H   UNL     1      -8.281  10.923  70.135  1.00  0.00     0.000 HD 
HETATM   31  N   UNL     1      -7.475  10.495  69.680  1.00  0.00    -0.152 N  
BRANCH  31  32
HETATM   32  C   UNL     1      -6.788   9.364  70.293  1.00  0.00    -0.080 C  
BRANCH  32  33
HETATM   33  C   UNL     1      -7.742   8.351  70.939  1.00  0.00    -0.088 C  
HETATM   34  H   UNL     1      -8.759   8.216  72.619  1.00  0.00     0.000 HD 
HETATM   35  O   UNL     1      -8.168   8.843  72.219  1.00  0.00    -0.379 OA 
BRANCH  33  36
HETATM   36  C   UNL     1      -8.955   8.099  70.028  1.00  0.00    -0.143 C  
HETATM   37  O   UNL     1     -10.097   8.838  70.454  1.00  0.00    -0.181 OA 
HETATM   38  H   UNL     1     -10.846   8.682  69.891  1.00  0.00     0.000 HD 
ENDBRANCH  33  36
ENDBRANCH  32  33
ENDBRANCH  31  32
ENDBRANCH  15  28
ENDBRANCH   5   8
BRANCH   6  39
HETATM   39  C   UNL     1     -12.049  12.462  63.647  1.00  0.00    -0.556 C  
HETATM   40  O   UNL     1     -12.532  13.652  63.033  1.00  0.00    -1.020 OA 
HETATM   41  H   UNL     1     -13.331  13.518  62.536  1.00  0.00     0.000 HD 
ENDBRANCH   6  39
ENDBRANCH   4   5
ENDBRANCH   3   4
TORSDOF 12
ENDMDL
MODEL        8
REMARK 921   NORMALIZED FREE ENERGY PREDICTED BY IDOCK:   -5.53 KCAL/MOL
REMARK 922        TOTAL FREE ENERGY PREDICTED BY IDOCK:   -9.69 KCAL/MOL
REMARK 923 INTER-LIGAND FREE ENERGY PREDICTED BY IDOCK:   -8.64 KCAL/MOL
REMARK 924 INTRA-LIGAND FREE ENERGY PREDICTED BY IDOCK:   -1.04 KCAL/MOL
REMARK 927      BINDING AFFINITY PREDICTED BY RF-SCORE:    0.00 PKD
ROOT
HETATM    1  O   UNL     1      -5.586  11.708  66.155  1.00  0.00    -0.455 OA 
HETATM    2  H   UNL     1      -5.464  12.484  65.621  1.00  0.00     0.000 HD 
HETATM    3  C   UNL     1      -5.630  10.537  65.352  1.00  0.00    -0.132 C  
ENDROOT
BRANCH   3   4
HETATM    4  C   UNL     1      -5.827   9.284  66.214  1.00  0.00    -0.058 C  
BRANCH   4   5
HETATM    5  N   UNL     1      -7.145   8.621  66.080  1.00  0.00    -0.082 N  
HETATM    6  C   UNL     1      -7.379   7.459  65.339  1.00  0.00    -0.072 C  
HETATM    7  O   UNL     1      -8.451   6.836  65.396  1.00  0.00    -0.145 OA 
BRANCH   5   8
HETATM    8  C   UNL     1      -8.209   9.088  66.934  1.00  0.00    -0.116 A  
HETATM    9  C   UNL     1      -8.407   8.539  68.232  1.00  0.00    -0.124 A  
HETATM   10  C   UNL     1      -9.124  10.054  66.451  1.00  0.00    -0.149 A  
HETATM   11  I   UNL     1      -6.948   7.106  68.985  1.00  0.00    -0.080 I  
HETATM   12  C   UNL     1      -9.483   8.964  69.062  1.00  0.00    -0.156 A  
HETATM   13  I   UNL     1      -9.160  10.500  64.330  1.00  0.00    -0.283 I  
HETATM   14  I   UNL     1     -11.639  11.050  69.992  1.00  0.00    -0.397 I  
HETATM   15  C   UNL     1     -10.086  10.622  67.314  1.00  0.00    -0.238 A  
HETATM   16  C   UNL     1     -10.258  10.075  68.625  1.00  0.00    -0.180 A  
BRANCH  12  17
HETATM   17  C   UNL     1      -9.857   8.100  70.243  1.00  0.00    -0.184 C  
HETATM   18  N   UNL     1     -10.758   7.076  70.071  1.00  0.00    -0.233 N  
HETATM   19  H   UNL     1     -11.239   6.983  69.176  1.00  0.00     0.000 HD 
HETATM   20  O   UNL     1      -9.340   8.313  71.335  1.00  0.00    -0.149 OA 
BRANCH  18  21
HETATM   21  C   UNL     1     -11.044   6.116  71.138  1.00  0.00    -0.298 C  
BRANCH  21  22
HETATM   22  C   UNL     1     -12.220   6.610  71.987  1.00  0.00    -0.293 C  
HETATM   23  O   UNL     1     -11.736   7.532  72.976  1.00  0.00    -0.594 OA 
HETATM   24  H   UNL     1     -12.465   7.838  73.502  1.00  0.00     0.000 HD 
BRANCH  22  25
HETATM   25  C   UNL     1     -13.323   7.262  71.142  1.00  0.00    -0.181 C  
HETATM   26  H   UNL     1     -14.529   8.820  71.275  1.00  0.00     0.000 HD 
HETATM   27  O   UNL     1     -13.847   8.417  71.798  1.00  0.00    -0.374 OA 
ENDBRANCH  22  25
ENDBRANCH  21  22
ENDBRANCH  18  21
ENDBRANCH  12  17
BRANCH  15  28
HETATM   28  C   UNL     1     -10.948  11.762  66.857  1.00  0.00    -0.285 C  
HETATM   29  O   UNL     1     -12.129  11.583  66.583  1.00  0.00    -0.297 OA 
HETATM   30  H   UNL     1      -9.381  13.151  67.012  1.00  0.00     0.000 HD 
HETATM   31  N   UNL     1     -10.363  13.016  66.769  1.00  0.00    -0.252 N  
BRANCH  31  32
HETATM   32  C   UNL     1     -11.179  14.139  66.322  1.00  0.00    -0.329 C  
BRANCH  32  33
HETATM   33  C   UNL     1     -11.148  14.345  64.803  1.00  0.00    -0.394 C  
HETATM   34  H   UNL     1     -12.342  13.966  63.284  1.00  0.00     0.000 HD 
HETATM   35  O   UNL     1     -12.361  13.838  64.225  1.00  0.00    -0.572 OA 
BRANCH  33  36
HETATM   36  C   UNL     1     -10.973  15.836  64.466  1.00  0.00    -0.189 C  
HETATM   37  O   UNL     1     -12.084  16.345  63.732  1.00  0.00    -1.269 OA 
HETATM   38  H   UNL     1     -11.976  17.265  63.525  1.00  0.00     0.000 HD 
ENDBRANCH  33  36
ENDBRANCH  32  33
ENDBRANCH  31  32
ENDBRANCH  15  28
ENDBRANCH   5   8
BRANCH   6  39
HETATM   39  C   UNL     1      -6.246   6.922  64.450  1.00  0.00    -0.036 C  
HETATM   40  O   UNL     1      -6.507   7.077  63.059  1.00  0.00    -0.046 OA 
HETATM   41  H   UNL     1      -5.806   6.745  62.509  1.00  0.00     0.000 HD 
ENDBRANCH   6  39
ENDBRANCH   4   5
ENDBRANCH   3   4
TORSDOF 12
ENDMDL
MODEL        9
REMARK 921   NORMALIZED FREE ENERGY PREDICTED BY IDOCK:   -5.48 KCAL/MOL
REMARK 922        TOTAL FREE ENERGY PREDICTED BY IDOCK:   -9.61 KCAL/MOL
REMARK 923 INTER-LIGAND FREE ENERGY PREDICTED BY IDOCK:   -8.21 KCAL/MOL
REMARK 924 INTRA-LIGAND FREE ENERGY PREDICTED BY IDOCK:   -1.40 KCAL/MOL
REMARK 927      BINDING AFFINITY PREDICTED BY RF-SCORE:    0.00 PKD
ROOT
HETATM    1  O   UNL     1     -11.073   6.103  66.526  1.00  0.00    -0.702 OA 
HETATM    2  H   UNL     1     -11.519   5.401  66.984  1.00  0.00     0.000 HD 
HETATM    3  C   UNL     1      -9.670   5.889  66.501  1.00  0.00    -0.155 C  
ENDROOT
BRANCH   3   4
HETATM    4  C   UNL     1      -8.951   7.024  65.762  1.00  0.00    -0.005 C  
BRANCH   4   5
HETATM    5  N   UNL     1      -8.305   8.038  66.627  1.00  0.00    -0.117 N  
HETATM    6  C   UNL     1      -6.981   8.468  66.496  1.00  0.00    -0.075 C  
HETATM    7  O   UNL     1      -6.531   9.442  67.120  1.00  0.00    -0.065 OA 
BRANCH   5   8
HETATM    8  C   UNL     1      -9.155   8.776  67.528  1.00  0.00    -0.133 A  
HETATM    9  C   UNL     1      -9.856   9.937  67.096  1.00  0.00    -0.186 A  
HETATM   10  C   UNL     1      -9.238   8.392  68.888  1.00  0.00    -0.147 A  
HETATM   11  I   UNL     1      -9.772  10.472  64.985  1.00  0.00    -0.420 I  
HETATM   12  C   UNL     1     -10.661  10.695  67.992  1.00  0.00    -0.275 A  
HETATM   13  I   UNL     1      -7.792   6.980  69.672  1.00  0.00    -0.123 I  
HETATM   14  I   UNL     1     -12.408  11.025  70.581  1.00  0.00    -0.428 I  
HETATM   15  C   UNL     1     -10.165   9.013  69.752  1.00  0.00    -0.214 A  
HETATM   16  C   UNL     1     -10.881  10.165  69.295  1.00  0.00    -0.235 A  
BRANCH  12  17
HETATM   17  C   UNL     1     -11.066  12.091  67.581  1.00  0.00    -0.264 C  
HETATM   18  N   UNL     1     -10.224  13.144  67.851  1.00  0.00    -0.228 N  
HETATM   19  H   UNL     1      -9.391  12.982  68.418  1.00  0.00     0.000 HD 
HETATM   20  O   UNL     1     -12.130  12.264  66.997  1.00  0.00    -0.575 OA 
BRANCH  18  21
HETATM   21  C   UNL     1     -10.491  14.491  67.345  1.00  0.00    -0.264 C  
BRANCH  21  22
HETATM   22  C   UNL     1     -11.173  15.333  68.429  1.00  0.00    -0.309 C  
HETATM   23  O   UNL     1     -12.520  14.870  68.610  1.00  0.00    -0.582 OA 
HETATM   24  H   UNL     1     -12.943  15.392  69.282  1.00  0.00     0.000 HD 
BRANCH  22  25
HETATM   25  C   UNL     1     -10.413  15.303  69.763  1.00  0.00    -0.275 C  
HETATM   26  H   UNL     1     -10.847  15.114  71.680  1.00  0.00     0.000 HD 
HETATM   27  O   UNL     1     -11.317  15.133  70.855  1.00  0.00    -0.294 OA 
ENDBRANCH  22  25
ENDBRANCH  21  22
ENDBRANCH  18  21
ENDBRANCH  12  17
BRANCH  15  28
HETATM   28  C   UNL     1     -10.377   8.502  71.146  1.00  0.00    -0.215 C  
HETATM   29  O   UNL     1      -9.753   8.977  72.088  1.00  0.00    -0.279 OA 
HETATM   30  H   UNL     1     -11.826   7.112  70.532  1.00  0.00     0.000 HD 
HETATM   31  N   UNL     1     -11.307   7.488  71.325  1.00  0.00    -0.255 N  
BRANCH  31  32
HETATM   32  C   UNL     1     -11.526   6.971  72.671  1.00  0.00    -0.211 C  
BRANCH  32  33
HETATM   33  C   UNL     1     -10.826   5.631  72.928  1.00  0.00    -0.264 C  
HETATM   34  H   UNL     1      -9.837   4.306  71.858  1.00  0.00     0.000 HD 
HETATM   35  O   UNL     1     -10.271   5.137  71.699  1.00  0.00    -0.199 OA 
BRANCH  33  36
HETATM   36  C   UNL     1      -9.726   5.794  73.990  1.00  0.00    -0.177 C  
HETATM   37  O   UNL     1      -9.708   7.112  74.532  1.00  0.00    -0.439 OA 
HETATM   38  H   UNL     1      -9.028   7.213  75.188  1.00  0.00     0.000 HD 
ENDBRANCH  33  36
ENDBRANCH  32  33
ENDBRANCH  31  32
ENDBRANCH  15  28
ENDBRANCH   5   8
BRANCH   6  39
HETATM   39  C   UNL     1      -6.066   7.719  65.514  1.00  0.00    -0.038 C  
HETATM   40  O   UNL     1      -5.976   8.351  64.241  1.00  0.00    -0.063 OA 
HETATM   41  H   UNL     1      -5.410   7.888  63.634  1.00  0.00     0.000 HD 
ENDBRANCH   6  39
ENDBRANCH   4   5
ENDBRANCH   3   4
TORSDOF 12
ENDMDL
MODEL       10
REMARK 921   NORMALIZED FREE ENERGY PREDICTED BY IDOCK:   -5.39 KCAL/MOL
REMARK 922        TOTAL FREE ENERGY PREDICTED BY IDOCK:   -9.44 KCAL/MOL
REMARK 923 INTER-LIGAND FREE ENERGY PREDICTED BY IDOCK:   -8.84 KCAL/MOL
REMARK 924 INTRA-LIGAND FREE ENERGY PREDICTED BY IDOCK:   -0.61 KCAL/MOL
REMARK 927      BINDING AFFINITY PREDICTED BY RF-SCORE:    0.00 PKD
ROOT
HETATM    1  O   UNL     1     -14.370   7.644  72.372  1.00  0.00    -0.594 OA 
HETATM    2  H   UNL     1     -15.000   8.079  72.935  1.00  0.00     0.000 HD 
HETATM    3  C   UNL     1     -13.749   8.567  71.489  1.00  0.00    -0.318 C  
ENDROOT
BRANCH   3   4
HETATM    4  C   UNL     1     -12.732   7.864  70.582  1.00  0.00     0.339 C  
BRANCH   4   5
HETATM    5  N   UNL     1     -11.350   8.392  70.647  1.00  0.00    -0.261 N  
HETATM    6  C   UNL     1     -10.545   8.374  71.790  1.00  0.00    -0.282 C  
HETATM    7  O   UNL     1      -9.338   8.660  71.760  1.00  0.00    -0.226 OA 
BRANCH   5   8
HETATM    8  C   UNL     1     -10.723   8.759  69.401  1.00  0.00    -0.169 A  
HETATM    9  C   UNL     1     -10.841  10.076  68.876  1.00  0.00    -0.220 A  
HETATM   10  C   UNL     1     -10.045   7.776  68.641  1.00  0.00    -0.199 A  
HETATM   11  I   UNL     1     -11.828  11.591  70.092  1.00  0.00    -0.259 I  
HETATM   12  C   UNL     1     -10.263  10.432  67.625  1.00  0.00    -0.240 A  
HETATM   13  I   UNL     1     -10.309   5.685  69.150  1.00  0.00    -0.298 I  
HETATM   14  I   UNL     1      -8.176  10.065  65.306  1.00  0.00    -0.175 I  
HETATM   15  C   UNL     1      -9.311   8.141  67.491  1.00  0.00    -0.165 A  
HETATM   16  C   UNL     1      -9.420   9.477  66.989  1.00  0.00    -0.155 A  
BRANCH  12  17
HETATM   17  C   UNL     1     -10.729  11.705  66.959  1.00  0.00    -0.253 C  
HETATM   18  N   UNL     1     -11.727  11.646  66.016  1.00  0.00    -0.044 N  
HETATM   19  H   UNL     1     -12.062  10.735  65.703  1.00  0.00     0.000 HD 
HETATM   20  O   UNL     1     -10.223  12.775  67.282  1.00  0.00    -0.229 OA 
BRANCH  18  21
HETATM   21  C   UNL     1     -12.322  12.858  65.449  1.00  0.00    -0.485 C  
BRANCH  21  22
HETATM   22  C   UNL     1     -12.418  12.732  63.925  1.00  0.00    -0.367 C  
HETATM   23  O   UNL     1     -12.375  14.042  63.339  1.00  0.00    -1.099 OA 
HETATM   24  H   UNL     1     -12.435  13.965  62.394  1.00  0.00     0.000 HD 
BRANCH  22  25
HETATM   25  C   UNL     1     -11.310  11.847  63.337  1.00  0.00    -0.374 C  
HETATM   26  H   UNL     1      -9.369  11.978  62.998  1.00  0.00     0.000 HD 
HETATM   27  O   UNL     1     -10.054  12.526  63.361  1.00  0.00    -0.396 OA 
ENDBRANCH  22  25
ENDBRANCH  21  22
ENDBRANCH  18  21
ENDBRANCH  12  17
BRANCH  15  28
HETATM   28  C   UNL     1      -8.456   7.138  66.777  1.00  0.00    -0.121 C  
HETATM   29  O   UNL     1      -7.300   6.935  67.131  1.00  0.00    -0.085 OA 
HETATM   30  H   UNL     1      -9.990   6.619  65.441  1.00  0.00     0.000 HD 
HETATM   31  N   UNL     1      -9.023   6.447  65.716  1.00  0.00    -0.103 N  
BRANCH  31  32
HETATM   32  C   UNL     1      -8.209   5.470  65.002  1.00  0.00    -0.139 C  
BRANCH  32  33
HETATM   33  C   UNL     1      -9.019   4.285  64.462  1.00  0.00    -0.147 C  
HETATM   34  H   UNL     1      -8.652   2.420  63.944  1.00  0.00     0.000 HD 
HETATM   35  O   UNL     1      -8.151   3.155  64.279  1.00  0.00    -0.082 OA 
BRANCH  33  36
HETATM   36  C   UNL     1     -10.165   3.933  65.424  1.00  0.00    -0.042 C  
HETATM   37  O   UNL     1     -11.434   4.300  64.888  1.00  0.00    -1.029 OA 
HETATM   38  H   UNL     1     -12.143   4.083  65.483  1.00  0.00     0.000 HD 
ENDBRANCH  33  36
ENDBRANCH  32  33
ENDBRANCH  31  32
ENDBRANCH  15  28
ENDBRANCH   5   8
BRANCH   6  39
HETATM   39  C   UNL     1     -11.183   7.951  73.123  1.00  0.00    -0.145 C  
HETATM   40  O   UNL     1     -11.395   6.547  73.220  1.00  0.00    -0.473 OA 
HETATM   41  H   UNL     1     -11.789   6.285  74.045  1.00  0.00     0.000 HD 
ENDBRANCH   6  39
ENDBRANCH   4   5
ENDBRANCH   3   4
TORSDOF 12
ENDMDL
MODEL       11
REMARK 921   NORMALIZED FREE ENERGY PREDICTED BY IDOCK:   -5.39 KCAL/MOL
REMARK 922        TOTAL FREE ENERGY PREDICTED BY IDOCK:   -9.44 KCAL/MOL
REMARK 923 INTER-LIGAND FREE ENERGY PREDICTED BY IDOCK:   -9.03 KCAL/MOL
REMARK 924 INTRA-LIGAND FREE ENERGY PREDICTED BY IDOCK:   -0.41 KCAL/MOL
REMARK 927      BINDING AFFINITY PREDICTED BY RF-SCORE:    0.00 PKD
ROOT
HETATM    1  O   UNL     1     -12.717  11.576  62.896  1.00  0.00    -0.947 OA 
HETATM    2  H   UNL     1     -12.891  12.265  62.266  1.00  0.00     0.000 HD 
HETATM    3  C   UNL     1     -11.552  11.859  63.656  1.00  0.00    -0.464 C  
ENDROOT
BRANCH   3   4
HETATM    4  C   UNL     1     -11.271  10.746  64.673  1.00  0.00     0.586 C  
BRANCH   4   5
HETATM    5  N   UNL     1     -10.247  11.062  65.695  1.00  0.00    -0.251 N  
HETATM    6  C   UNL     1      -8.867  11.029  65.475  1.00  0.00    -0.169 C  
HETATM    7  O   UNL     1      -8.049  11.471  66.298  1.00  0.00    -0.125 OA 
BRANCH   5   8
HETATM    8  C   UNL     1     -10.707  11.638  66.935  1.00  0.00    -0.257 A  
HETATM    9  C   UNL     1     -10.825  13.048  67.093  1.00  0.00    -0.260 A  
HETATM   10  C   UNL     1     -10.972  10.799  68.044  1.00  0.00    -0.283 A  
HETATM   11  I   UNL     1     -10.481  14.318  65.357  1.00  0.00    -0.433 I  
HETATM   12  C   UNL     1     -11.235  13.624  68.328  1.00  0.00    -0.302 A  
HETATM   13  I   UNL     1     -10.297   8.740  67.988  1.00  0.00    -0.190 I  
HETATM   14  I   UNL     1     -12.708  13.535  71.101  1.00  0.00    -0.207 I  
HETATM   15  C   UNL     1     -11.550  11.326  69.218  1.00  0.00    -0.390 A  
HETATM   16  C   UNL     1     -11.685  12.745  69.353  1.00  0.00    -0.319 A  
BRANCH  12  17
HETATM   17  C   UNL     1     -10.985  15.098  68.546  1.00  0.00    -0.262 C  
HETATM   18  N   UNL     1      -9.719  15.526  68.868  1.00  0.00    -0.210 N  
HETATM   19  H   UNL     1      -8.994  14.835  69.059  1.00  0.00     0.000 HD 
HETATM   20  O   UNL     1     -11.909  15.893  68.416  1.00  0.00    -0.322 OA 
BRANCH  18  21
HETATM   21  C   UNL     1      -9.384  16.950  68.942  1.00  0.00    -0.229 C  
BRANCH  21  22
HETATM   22  C   UNL     1      -8.984  17.468  67.556  1.00  0.00    -0.230 C  
HETATM   23  O   UNL     1     -10.150  17.963  66.881  1.00  0.00    -0.317 OA 
HETATM   24  H   UNL     1      -9.902  18.284  66.022  1.00  0.00     0.000 HD 
BRANCH  22  25
HETATM   25  C   UNL     1      -7.904  18.556  67.625  1.00  0.00    -0.234 C  
HETATM   26  H   UNL     1      -7.264  20.045  66.495  1.00  0.00     0.000 HD 
HETATM   27  O   UNL     1      -7.932  19.371  66.453  1.00  0.00    -0.278 OA 
ENDBRANCH  22  25
ENDBRANCH  21  22
ENDBRANCH  18  21
ENDBRANCH  12  17
BRANCH  15  28
HETATM   28  C   UNL     1     -11.987  10.421  70.331  1.00  0.00    -0.320 C  
HETATM   29  O   UNL     1     -13.167  10.121  70.468  1.00  0.00    -0.275 OA 
HETATM   30  H   UNL     1     -10.029  10.183  71.051  1.00  0.00     0.000 HD 
HETATM   31  N   UNL     1     -11.008   9.933  71.185  1.00  0.00    -0.302 N  
BRANCH  31  32
HETATM   32  C   UNL     1     -11.409   9.055  72.278  1.00  0.00    -0.117 C  
BRANCH  32  33
HETATM   33  C   UNL     1     -11.181   7.569  71.978  1.00  0.00    -0.257 C  
HETATM   34  H   UNL     1     -10.450   6.012  72.937  1.00  0.00     0.000 HD 
HETATM   35  O   UNL     1     -10.591   6.933  73.123  1.00  0.00    -0.250 OA 
BRANCH  33  36
HETATM   36  C   UNL     1     -12.507   6.886  71.606  1.00  0.00    -0.375 C  
HETATM   37  O   UNL     1     -13.631   7.623  72.081  1.00  0.00    -0.503 OA 
HETATM   38  H   UNL     1     -14.451   7.201  71.851  1.00  0.00     0.000 HD 
ENDBRANCH  33  36
ENDBRANCH  32  33
ENDBRANCH  31  32
ENDBRANCH  15  28
ENDBRANCH   5   8
BRANCH   6  39
HETATM   39  C   UNL     1      -8.356  10.453  64.145  1.00  0.00    -0.139 C  
HETATM   40  O   UNL     1      -8.300  11.420  63.101  1.00  0.00    -0.402 OA 
HETATM   41  H   UNL     1      -7.984  11.063  62.279  1.00  0.00     0.000 HD 
ENDBRANCH   6  39
ENDBRANCH   4   5
ENDBRANCH   3   4
TORSDOF 12
ENDMDL
MODEL       12
REMARK 921   NORMALIZED FREE ENERGY PREDICTED BY IDOCK:   -5.39 KCAL/MOL
REMARK 922        TOTAL FREE ENERGY PREDICTED BY IDOCK:   -9.44 KCAL/MOL
REMARK 923 INTER-LIGAND FREE ENERGY PREDICTED BY IDOCK:   -8.73 KCAL/MOL
REMARK 924 INTRA-LIGAND FREE ENERGY PREDICTED BY IDOCK:   -0.71 KCAL/MOL
REMARK 927      BINDING AFFINITY PREDICTED BY RF-SCORE:    0.00 PKD
ROOT
HETATM    1  O   UNL     1     -12.896  12.148  63.623  1.00  0.00    -0.746 OA 
HETATM    2  H   UNL     1     -12.871  12.232  62.677  1.00  0.00     0.000 HD 
HETATM    3  C   UNL     1     -11.605  11.879  64.148  1.00  0.00    -0.351 C  
ENDROOT
BRANCH   3   4
HETATM    4  C   UNL     1     -11.646  11.743  65.674  1.00  0.00    -0.122 C  
BRANCH   4   5
HETATM    5  N   UNL     1     -10.326  11.740  66.348  1.00  0.00    -0.216 N  
HETATM    6  C   UNL     1      -9.540  12.876  66.561  1.00  0.00    -0.259 C  
HETATM    7  O   UNL     1      -8.531  12.863  67.283  1.00  0.00    -0.183 OA 
BRANCH   5   8
HETATM    8  C   UNL     1      -9.924  10.522  67.008  1.00  0.00    -0.201 A  
HETATM    9  C   UNL     1      -9.222   9.502  66.308  1.00  0.00    -0.172 A  
HETATM   10  C   UNL     1     -10.300  10.297  68.354  1.00  0.00    -0.177 A  
HETATM   11  I   UNL     1      -8.592   9.895  64.260  1.00  0.00    -0.269 I  
HETATM   12  C   UNL     1      -8.862   8.279  66.942  1.00  0.00    -0.155 A  
HETATM   13  I   UNL     1     -11.799  11.577  69.256  1.00  0.00    -0.354 I  
HETATM   14  I   UNL     1      -8.195   6.530  69.464  1.00  0.00    -0.128 I  
HETATM   15  C   UNL     1      -9.803   9.179  69.058  1.00  0.00    -0.176 A  
HETATM   16  C   UNL     1      -9.077   8.172  68.345  1.00  0.00    -0.136 A  
BRANCH  12  17
HETATM   17  C   UNL     1      -8.464   7.113  66.069  1.00  0.00    -0.145 C  
HETATM   18  N   UNL     1      -9.416   6.194  65.696  1.00  0.00    -0.371 N  
HETATM   19  H   UNL     1     -10.351   6.255  66.100  1.00  0.00     0.000 HD 
HETATM   20  O   UNL     1      -7.302   7.010  65.692  1.00  0.00    -0.074 OA 
BRANCH  18  21
HETATM   21  C   UNL     1      -9.123   5.132  64.732  1.00  0.00     0.002 C  
BRANCH  21  22
HETATM   22  C   UNL     1     -10.121   3.981  64.900  1.00  0.00    -0.205 C  
HETATM   23  O   UNL     1     -11.454   4.514  64.946  1.00  0.00    -1.056 OA 
HETATM   24  H   UNL     1     -12.073   3.801  65.050  1.00  0.00     0.000 HD 
BRANCH  22  25
HETATM   25  C   UNL     1     -10.003   2.932  63.785  1.00  0.00    -0.160 C  
HETATM   26  H   UNL     1     -11.222   1.853  62.667  1.00  0.00     0.000 HD 
HETATM   27  O   UNL     1     -11.296   2.502  63.357  1.00  0.00    -0.313 OA 
ENDBRANCH  22  25
ENDBRANCH  21  22
ENDBRANCH  18  21
ENDBRANCH  12  17
BRANCH  15  28
HETATM   28  C   UNL     1     -10.060   9.021  70.527  1.00  0.00    -0.215 C  
HETATM   29  O   UNL     1      -9.267   9.461  71.352  1.00  0.00    -0.277 OA 
HETATM   30  H   UNL     1     -11.879   8.023  70.212  1.00  0.00     0.000 HD 
HETATM   31  N   UNL     1     -11.225   8.373  70.911  1.00  0.00    -0.258 N  
BRANCH  31  32
HETATM   32  C   UNL     1     -11.494   8.203  72.334  1.00  0.00    -0.397 C  
BRANCH  32  33
HETATM   33  C   UNL     1     -11.283   6.765  72.824  1.00  0.00    -0.231 C  
HETATM   34  H   UNL     1     -10.855   5.025  72.008  1.00  0.00     0.000 HD 
HETATM   35  O   UNL     1     -10.986   5.916  71.705  1.00  0.00    -0.258 OA 
BRANCH  33  36
HETATM   36  C   UNL     1     -10.145   6.711  73.858  1.00  0.00    -0.324 C  
HETATM   37  O   UNL     1      -9.052   7.547  73.483  1.00  0.00    -0.187 OA 
HETATM   38  H   UNL     1      -8.350   7.514  74.122  1.00  0.00     0.000 HD 
ENDBRANCH  33  36
ENDBRANCH  32  33
ENDBRANCH  31  32
ENDBRANCH  15  28
ENDBRANCH   5   8
BRANCH   6  39
HETATM   39  C   UNL     1      -9.970  14.194  65.897  1.00  0.00    -0.311 C  
HETATM   40  O   UNL     1     -10.820  14.984  66.721  1.00  0.00    -0.307 OA 
HETATM   41  H   UNL     1     -11.086  15.799  66.311  1.00  0.00     0.000 HD 
ENDBRANCH   6  39
ENDBRANCH   4   5
ENDBRANCH   3   4
TORSDOF 12
ENDMDL
MODEL       13
REMARK 921   NORMALIZED FREE ENERGY PREDICTED BY IDOCK:   -5.38 KCAL/MOL
REMARK 922        TOTAL FREE ENERGY PREDICTED BY IDOCK:   -9.44 KCAL/MOL
REMARK 923 INTER-LIGAND FREE ENERGY PREDICTED BY IDOCK:   -8.95 KCAL/MOL
REMARK 924 INTRA-LIGAND FREE ENERGY PREDICTED BY IDOCK:   -0.49 KCAL/MOL
REMARK 927      BINDING AFFINITY PREDICTED BY RF-SCORE:    0.00 PKD
ROOT
HETATM    1  O   UNL     1      -5.763  12.178  68.404  1.00  0.00    -0.052 OA 
HETATM    2  H   UNL     1      -5.610  12.918  68.980  1.00  0.00     0.000 HD 
HETATM    3  C   UNL     1      -6.628  12.531  67.335  1.00  0.00    -0.152 C  
ENDROOT
BRANCH   3   4
HETATM    4  C   UNL     1      -6.873  11.336  66.406  1.00  0.00    -0.055 C  
BRANCH   4   5
HETATM    5  N   UNL     1      -8.296  11.017  66.142  1.00  0.00    -0.169 N  
HETATM    6  C   UNL     1      -8.782  10.485  64.945  1.00  0.00    -0.181 C  
HETATM    7  O   UNL     1      -9.945  10.066  64.825  1.00  0.00    -0.321 OA 
BRANCH   5   8
HETATM    8  C   UNL     1      -9.202  11.065  67.264  1.00  0.00    -0.148 A  
HETATM    9  C   UNL     1     -10.064  12.179  67.467  1.00  0.00    -0.196 A  
HETATM   10  C   UNL     1      -9.183  10.028  68.226  1.00  0.00    -0.129 A  
HETATM   11  I   UNL     1     -10.130  13.731  65.939  1.00  0.00    -0.263 I  
HETATM   12  C   UNL     1     -10.928  12.252  68.596  1.00  0.00    -0.276 A  
HETATM   13  I   UNL     1      -7.535   8.619  68.222  1.00  0.00    -0.098 I  
HETATM   14  I   UNL     1     -12.607  10.967  70.919  1.00  0.00    -0.425 I  
HETATM   15  C   UNL     1     -10.151   9.987  69.253  1.00  0.00    -0.226 A  
HETATM   16  C   UNL     1     -11.028  11.103  69.430  1.00  0.00    -0.244 A  
BRANCH  12  17
HETATM   17  C   UNL     1     -11.528  13.593  68.949  1.00  0.00    -0.303 C  
HETATM   18  N   UNL     1     -11.023  14.297  70.017  1.00  0.00    -0.464 N  
HETATM   19  H   UNL     1     -10.325  13.857  70.617  1.00  0.00     0.000 HD 
HETATM   20  O   UNL     1     -12.444  14.043  68.270  1.00  0.00    -0.119 OA 
BRANCH  18  21
HETATM   21  C   UNL     1     -11.460  15.662  70.314  1.00  0.00    -0.349 C  
BRANCH  21  22
HETATM   22  C   UNL     1     -12.674  15.633  71.248  1.00  0.00    -0.475 C  
HETATM   23  O   UNL     1     -13.869  15.477  70.467  1.00  0.00    -0.827 OA 
HETATM   24  H   UNL     1     -14.622  15.459  71.046  1.00  0.00     0.000 HD 
BRANCH  22  25
HETATM   25  C   UNL     1     -12.578  14.523  72.304  1.00  0.00    -0.303 C  
HETATM   26  H   UNL     1     -13.817  13.447  73.402  1.00  0.00     0.000 HD 
HETATM   27  O   UNL     1     -13.877  14.134  72.749  1.00  0.00    -0.645 OA 
ENDBRANCH  22  25
ENDBRANCH  21  22
ENDBRANCH  18  21
ENDBRANCH  12  17
BRANCH  15  28
HETATM   28  C   UNL     1     -10.242   8.807  70.175  1.00  0.00    -0.190 C  
HETATM   29  O   UNL     1      -9.672   8.815  71.259  1.00  0.00    -0.214 OA 
HETATM   30  H   UNL     1     -11.477   7.736  68.858  1.00  0.00     0.000 HD 
HETATM   31  N   UNL     1     -10.999   7.722  69.758  1.00  0.00    -0.206 N  
BRANCH  31  32
HETATM   32  C   UNL     1     -11.098   6.561  70.636  1.00  0.00    -0.309 C  
BRANCH  32  33
HETATM   33  C   UNL     1     -12.014   6.790  71.844  1.00  0.00    -0.333 C  
HETATM   34  H   UNL     1     -13.946   7.011  72.152  1.00  0.00     0.000 HD 
HETATM   35  O   UNL     1     -13.379   6.869  71.403  1.00  0.00    -0.308 OA 
BRANCH  33  36
HETATM   36  C   UNL     1     -11.844   5.656  72.869  1.00  0.00    -0.044 C  
HETATM   37  O   UNL     1     -10.913   6.005  73.891  1.00  0.00    -0.400 OA 
HETATM   38  H   UNL     1     -10.807   5.305  74.524  1.00  0.00     0.000 HD 
ENDBRANCH  33  36
ENDBRANCH  32  33
ENDBRANCH  31  32
ENDBRANCH  15  28
ENDBRANCH   5   8
BRANCH   6  39
HETATM   39  C   UNL     1      -7.824  10.390  63.748  1.00  0.00    -0.065 C  
HETATM   40  O   UNL     1      -8.188  11.247  62.671  1.00  0.00    -0.456 OA 
HETATM   41  H   UNL     1      -7.595  11.188  61.930  1.00  0.00     0.000 HD 
ENDBRANCH   6  39
ENDBRANCH   4   5
ENDBRANCH   3   4
TORSDOF 12
ENDMDL
MODEL       14
REMARK 921   NORMALIZED FREE ENERGY PREDICTED BY IDOCK:   -5.36 KCAL/MOL
REMARK 922        TOTAL FREE ENERGY PREDICTED BY IDOCK:   -9.39 KCAL/MOL
REMARK 923 INTER-LIGAND FREE ENERGY PREDICTED BY IDOCK:   -8.93 KCAL/MOL
REMARK 924 INTRA-LIGAND FREE ENERGY PREDICTED BY IDOCK:   -0.46 KCAL/MOL
REMARK 927      BINDING AFFINITY PREDICTED BY RF-SCORE:    0.00 PKD
ROOT
HETATM    1  O   UNL     1      -9.659   9.763  63.249  1.00  0.00    -0.509 OA 
HETATM    2  H   UNL     1      -9.948  10.288  62.512  1.00  0.00     0.000 HD 
HETATM    3  C   UNL     1     -10.124  10.305  64.477  1.00  0.00    -0.216 C  
ENDROOT
BRANCH   3   4
HETATM    4  C   UNL     1      -9.657   9.458  65.667  1.00  0.00    -0.274 C  
BRANCH   4   5
HETATM    5  N   UNL     1      -9.042  10.214  66.783  1.00  0.00    -0.139 N  
HETATM    6  C   UNL     1      -7.786  10.826  66.731  1.00  0.00    -0.136 C  
HETATM    7  O   UNL     1      -7.383  11.597  67.617  1.00  0.00    -0.095 OA 
BRANCH   5   8
HETATM    8  C   UNL     1      -9.878  10.511  67.919  1.00  0.00    -0.160 A  
HETATM    9  C   UNL     1     -10.515  11.777  68.055  1.00  0.00    -0.199 A  
HETATM   10  C   UNL     1     -10.009   9.563  68.962  1.00  0.00    -0.180 A  
HETATM   11  I   UNL     1     -10.360  13.197  66.410  1.00  0.00    -0.315 I  
HETATM   12  C   UNL     1     -11.305  12.092  69.196  1.00  0.00    -0.338 A  
HETATM   13  I   UNL     1      -8.646   7.878  69.027  1.00  0.00    -0.133 I  
HETATM   14  I   UNL     1     -13.094  11.313  71.658  1.00  0.00     0.002 I  
HETATM   15  C   UNL     1     -10.926   9.777  70.013  1.00  0.00    -0.319 A  
HETATM   16  C   UNL     1     -11.578  11.046  70.122  1.00  0.00    -0.334 A  
BRANCH  12  17
HETATM   17  C   UNL     1     -11.637  13.542  69.456  1.00  0.00    -0.294 C  
HETATM   18  N   UNL     1     -10.946  14.228  70.428  1.00  0.00    -0.436 N  
HETATM   19  H   UNL     1     -10.298  13.720  71.029  1.00  0.00     0.000 HD 
HETATM   20  O   UNL     1     -12.504  14.093  68.787  1.00  0.00    -0.170 OA 
BRANCH  18  21
HETATM   21  C   UNL     1     -11.118  15.669  70.621  1.00  0.00    -0.359 C  
BRANCH  21  22
HETATM   22  C   UNL     1     -12.197  15.932  71.677  1.00  0.00    -0.479 C  
HETATM   23  O   UNL     1     -13.467  15.490  71.175  1.00  0.00    -0.510 OA 
HETATM   24  H   UNL     1     -14.136  15.653  71.829  1.00  0.00     0.000 HD 
BRANCH  22  25
HETATM   25  C   UNL     1     -11.886  15.253  73.018  1.00  0.00    -0.392 C  
HETATM   26  H   UNL     1     -12.795  14.961  74.746  1.00  0.00     0.000 HD 
HETATM   27  O   UNL     1     -12.988  15.382  73.917  1.00  0.00    -0.488 OA 
ENDBRANCH  22  25
ENDBRANCH  21  22
ENDBRANCH  18  21
ENDBRANCH  12  17
BRANCH  15  28
HETATM   28  C   UNL     1     -11.192   8.706  71.029  1.00  0.00    -0.271 C  
HETATM   29  O   UNL     1     -12.031   7.837  70.818  1.00  0.00    -0.256 OA 
HETATM   30  H   UNL     1      -9.747   9.454  72.355  1.00  0.00     0.000 HD 
HETATM   31  N   UNL     1     -10.450   8.731  72.200  1.00  0.00    -0.339 N  
BRANCH  31  32
HETATM   32  C   UNL     1     -10.694   7.703  73.205  1.00  0.00    -0.350 C  
BRANCH  32  33
HETATM   33  C   UNL     1      -9.660   6.571  73.179  1.00  0.00    -0.151 C  
HETATM   34  H   UNL     1      -8.431   5.727  74.465  1.00  0.00     0.000 HD 
HETATM   35  O   UNL     1      -9.071   6.429  74.481  1.00  0.00    -0.150 OA 
BRANCH  33  36
HETATM   36  C   UNL     1     -10.318   5.252  72.739  1.00  0.00    -0.196 C  
HETATM   37  O   UNL     1     -11.579   5.476  72.112  1.00  0.00    -0.190 OA 
HETATM   38  H   UNL     1     -11.986   4.662  71.840  1.00  0.00     0.000 HD 
ENDBRANCH  33  36
ENDBRANCH  32  33
ENDBRANCH  31  32
ENDBRANCH  15  28
ENDBRANCH   5   8
BRANCH   6  39
HETATM   39  C   UNL     1      -6.892  10.552  65.511  1.00  0.00    -0.100 C  
HETATM   40  O   UNL     1      -5.695  11.323  65.511  1.00  0.00    -0.456 OA 
HETATM   41  H   UNL     1      -5.142  11.154  64.757  1.00  0.00     0.000 HD 
ENDBRANCH   6  39
ENDBRANCH   4   5
ENDBRANCH   3   4
TORSDOF 12
ENDMDL
MODEL       15
REMARK 921   NORMALIZED FREE ENERGY PREDICTED BY IDOCK:   -5.33 KCAL/MOL
REMARK 922        TOTAL FREE ENERGY PREDICTED BY IDOCK:   -9.35 KCAL/MOL
REMARK 923 INTER-LIGAND FREE ENERGY PREDICTED BY IDOCK:   -9.17 KCAL/MOL
REMARK 924 INTRA-LIGAND FREE ENERGY PREDICTED BY IDOCK:   -0.19 KCAL/MOL
REMARK 927      BINDING AFFINITY PREDICTED BY RF-SCORE:    0.00 PKD
ROOT
HETATM    1  O   UNL     1     -10.224  10.400  62.366  1.00  0.00    -0.722 OA 
HETATM    2  H   UNL     1      -9.783   9.576  62.196  1.00  0.00     0.000 HD 
HETATM    3  C   UNL     1      -9.478  11.204  63.267  1.00  0.00    -0.332 C  
ENDROOT
BRANCH   3   4
HETATM    4  C   UNL     1     -10.190  12.534  63.542  1.00  0.00    -0.193 C  
BRANCH   4   5
HETATM    5  N   UNL     1     -10.759  12.682  64.901  1.00  0.00    -0.288 N  
HETATM    6  C   UNL     1     -12.107  12.501  65.223  1.00  0.00    -0.444 C  
HETATM    7  O   UNL     1     -12.513  12.458  66.395  1.00  0.00    -0.418 OA 
BRANCH   5   8
HETATM    8  C   UNL     1      -9.829  12.819  65.995  1.00  0.00    -0.255 A  
HETATM    9  C   UNL     1      -9.442  11.695  66.778  1.00  0.00    -0.186 A  
HETATM   10  C   UNL     1      -9.350  14.102  66.353  1.00  0.00    -0.230 A  
HETATM   11  I   UNL     1     -10.134   9.721  66.171  1.00  0.00    -0.142 I  
HETATM   12  C   UNL     1      -8.559  11.832  67.887  1.00  0.00    -0.156 A  
HETATM   13  I   UNL     1     -10.324  15.855  65.530  1.00  0.00    -0.267 I  
HETATM   14  I   UNL     1      -6.286  13.295  69.485  1.00  0.00    -0.038 I  
HETATM   15  C   UNL     1      -8.338  14.242  67.327  1.00  0.00    -0.222 A  
HETATM   16  C   UNL     1      -7.942  13.098  68.090  1.00  0.00    -0.154 A  
BRANCH  12  17
HETATM   17  C   UNL     1      -8.485  10.699  68.883  1.00  0.00    -0.154 C  
HETATM   18  N   UNL     1      -9.500  10.536  69.796  1.00  0.00    -0.416 N  
HETATM   19  H   UNL     1     -10.232  11.244  69.856  1.00  0.00     0.000 HD 
HETATM   20  O   UNL     1      -7.530   9.930  68.854  1.00  0.00    -0.075 OA 
BRANCH  18  21
HETATM   21  C   UNL     1      -9.557   9.373  70.683  1.00  0.00    -0.268 C  
BRANCH  21  22
HETATM   22  C   UNL     1     -10.839   8.576  70.421  1.00  0.00    -0.234 C  
HETATM   23  O   UNL     1     -11.772   9.401  69.706  1.00  0.00    -0.443 OA 
HETATM   24  H   UNL     1     -12.567   8.907  69.543  1.00  0.00     0.000 HD 
BRANCH  22  25
HETATM   25  C   UNL     1     -10.576   7.274  69.651  1.00  0.00    -0.235 C  
HETATM   26  H   UNL     1     -11.442   5.513  69.430  1.00  0.00     0.000 HD 
HETATM   27  O   UNL     1     -11.605   6.318  69.907  1.00  0.00    -0.435 OA 
ENDBRANCH  22  25
ENDBRANCH  21  22
ENDBRANCH  18  21
ENDBRANCH  12  17
BRANCH  15  28
HETATM   28  C   UNL     1      -7.708  15.577  67.592  1.00  0.00    -0.158 C  
HETATM   29  O   UNL     1      -6.738  15.951  66.944  1.00  0.00    -0.266 OA 
HETATM   30  H   UNL     1      -9.084  16.046  69.107  1.00  0.00     0.000 HD 
HETATM   31  N   UNL     1      -8.269  16.368  68.584  1.00  0.00    -0.211 N  
BRANCH  31  32
HETATM   32  C   UNL     1      -7.671  17.668  68.864  1.00  0.00    -0.205 C  
BRANCH  32  33
HETATM   33  C   UNL     1      -8.322  18.816  68.084  1.00  0.00    -0.306 C  
HETATM   34  H   UNL     1     -10.019  19.814  68.158  1.00  0.00     0.000 HD 
HETATM   35  O   UNL     1      -9.615  19.102  68.641  1.00  0.00    -0.367 OA 
BRANCH  33  36
HETATM   36  C   UNL     1      -7.429  20.068  68.124  1.00  0.00    -0.266 C  
HETATM   37  O   UNL     1      -6.546  20.049  69.243  1.00  0.00    -0.323 OA 
HETATM   38  H   UNL     1      -5.994  20.822  69.267  1.00  0.00     0.000 HD 
ENDBRANCH  33  36
ENDBRANCH  32  33
ENDBRANCH  31  32
ENDBRANCH  15  28
ENDBRANCH   5   8
BRANCH   6  39
HETATM   39  C   UNL     1     -13.111  12.316  64.074  1.00  0.00    -0.058 C  
HETATM   40  O   UNL     1     -12.764  11.253  63.193  1.00  0.00    -0.699 OA 
HETATM   41  H   UNL     1     -13.385  11.139  62.483  1.00  0.00     0.000 HD 
ENDBRANCH   6  39
ENDBRANCH   4   5
ENDBRANCH   3   4
TORSDOF 12
ENDMDL
MODEL       16
REMARK 921   NORMALIZED FREE ENERGY PREDICTED BY IDOCK:   -5.32 KCAL/MOL
REMARK 922        TOTAL FREE ENERGY PREDICTED BY IDOCK:   -9.32 KCAL/MOL
REMARK 923 INTER-LIGAND FREE ENERGY PREDICTED BY IDOCK:   -8.23 KCAL/MOL
REMARK 924 INTRA-LIGAND FREE ENERGY PREDICTED BY IDOCK:   -1.09 KCAL/MOL
REMARK 927      BINDING AFFINITY PREDICTED BY RF-SCORE:    0.00 PKD
ROOT
HETATM    1  O   UNL     1      -6.530  12.528  70.465  1.00  0.00    -0.479 OA 
HETATM    2  H   UNL     1      -6.337  13.386  70.105  1.00  0.00     0.000 HD 
HETATM    3  C   UNL     1      -6.054  11.495  69.616  1.00  0.00    -0.114 C  
ENDROOT
BRANCH   3   4
HETATM    4  C   UNL     1      -6.366  10.112  70.199  1.00  0.00    -0.107 C  
BRANCH   4   5
HETATM    5  N   UNL     1      -7.403   9.338  69.478  1.00  0.00    -0.067 N  
HETATM    6  C   UNL     1      -7.150   8.472  68.410  1.00  0.00    -0.084 C  
HETATM    7  O   UNL     1      -8.015   7.709  67.951  1.00  0.00    -0.115 OA 
BRANCH   5   8
HETATM    8  C   UNL     1      -8.728   9.318  70.047  1.00  0.00    -0.195 A  
HETATM    9  C   UNL     1      -9.742  10.204  69.585  1.00  0.00    -0.221 A  
HETATM   10  C   UNL     1      -9.011   8.462  71.139  1.00  0.00    -0.167 A  
HETATM   11  I   UNL     1      -9.311  11.463  67.861  1.00  0.00    -0.186 I  
HETATM   12  C   UNL     1     -11.038  10.220  70.174  1.00  0.00    -0.385 A  
HETATM   13  I   UNL     1      -7.365   7.514  72.184  1.00  0.00    -0.092 I  
HETATM   14  I   UNL     1     -13.400   8.899  71.770  1.00  0.00    -0.486 I  
HETATM   15  C   UNL     1     -10.331   8.329  71.620  1.00  0.00    -0.289 A  
HETATM   16  C   UNL     1     -11.345   9.210  71.128  1.00  0.00    -0.322 A  
BRANCH  12  17
HETATM   17  C   UNL     1     -11.930  11.408  69.903  1.00  0.00    -0.359 C  
HETATM   18  N   UNL     1     -11.841  12.517  70.711  1.00  0.00    -0.395 N  
HETATM   19  H   UNL     1     -11.253  12.479  71.543  1.00  0.00     0.000 HD 
HETATM   20  O   UNL     1     -12.709  11.375  68.956  1.00  0.00    -0.117 OA 
BRANCH  18  21
HETATM   21  C   UNL     1     -12.568  13.750  70.408  1.00  0.00    -0.256 C  
BRANCH  21  22
HETATM   22  C   UNL     1     -12.423  14.744  71.565  1.00  0.00    -0.339 C  
HETATM   23  O   UNL     1     -12.430  16.082  71.044  1.00  0.00    -0.532 OA 
HETATM   24  H   UNL     1     -12.339  16.698  71.762  1.00  0.00     0.000 HD 
BRANCH  22  25
HETATM   25  C   UNL     1     -13.520  14.577  72.625  1.00  0.00    -0.493 C  
HETATM   26  H   UNL     1     -14.700  13.137  73.284  1.00  0.00     0.000 HD 
HETATM   27  O   UNL     1     -14.021  13.240  72.628  1.00  0.00    -0.741 OA 
ENDBRANCH  22  25
ENDBRANCH  21  22
ENDBRANCH  18  21
ENDBRANCH  12  17
BRANCH  15  28
HETATM   28  C   UNL     1     -10.667   7.303  72.662  1.00  0.00    -0.278 C  
HETATM   29  O   UNL     1     -10.743   7.615  73.845  1.00  0.00    -0.195 OA 
HETATM   30  H   UNL     1     -10.840   5.763  71.246  1.00  0.00     0.000 HD 
HETATM   31  N   UNL     1     -10.897   6.004  72.236  1.00  0.00    -0.233 N  
BRANCH  31  32
HETATM   32  C   UNL     1     -11.220   4.988  73.231  1.00  0.00    -0.338 C  
BRANCH  32  33
HETATM   33  C   UNL     1     -10.030   4.090  73.590  1.00  0.00    -0.126 C  
HETATM   34  H   UNL     1      -9.741   2.457  74.653  1.00  0.00     0.000 HD 
HETATM   35  O   UNL     1     -10.478   3.014  74.430  1.00  0.00    -0.160 OA 
BRANCH  33  36
HETATM   36  C   UNL     1      -9.369   3.538  72.316  1.00  0.00    -0.115 C  
HETATM   37  O   UNL     1     -10.144   2.495  71.729  1.00  0.00    -0.160 OA 
HETATM   38  H   UNL     1      -9.736   2.154  70.942  1.00  0.00     0.000 HD 
ENDBRANCH  33  36
ENDBRANCH  32  33
ENDBRANCH  31  32
ENDBRANCH  15  28
ENDBRANCH   5   8
BRANCH   6  39
HETATM   39  C   UNL     1      -5.735   8.449  67.811  1.00  0.00    -0.039 C  
HETATM   40  O   UNL     1      -5.576   9.348  66.718  1.00  0.00    -0.045 OA 
HETATM   41  H   UNL     1      -4.701   9.333  66.348  1.00  0.00     0.000 HD 
ENDBRANCH   6  39
ENDBRANCH   4   5
ENDBRANCH   3   4
TORSDOF 12
ENDMDL
MODEL       17
REMARK 921   NORMALIZED FREE ENERGY PREDICTED BY IDOCK:   -5.30 KCAL/MOL
REMARK 922        TOTAL FREE ENERGY PREDICTED BY IDOCK:   -9.29 KCAL/MOL
REMARK 923 INTER-LIGAND FREE ENERGY PREDICTED BY IDOCK:   -8.57 KCAL/MOL
REMARK 924 INTRA-LIGAND FREE ENERGY PREDICTED BY IDOCK:   -0.73 KCAL/MOL
REMARK 927      BINDING AFFINITY PREDICTED BY RF-SCORE:    0.00 PKD
ROOT
HETATM    1  O   UNL     1     -10.322   6.115  66.164  1.00  0.00    -0.425 OA 
HETATM    2  H   UNL     1     -10.577   5.377  66.706  1.00  0.00     0.000 HD 
HETATM    3  C   UNL     1      -8.909   6.225  66.080  1.00  0.00    -0.153 C  
ENDROOT
BRANCH   3   4
HETATM    4  C   UNL     1      -8.499   7.416  65.206  1.00  0.00    -0.056 C  
BRANCH   4   5
HETATM    5  N   UNL     1      -7.957   8.585  65.936  1.00  0.00    -0.101 N  
HETATM    6  C   UNL     1      -6.760   9.234  65.622  1.00  0.00    -0.073 C  
HETATM    7  O   UNL     1      -6.430  10.313  66.140  1.00  0.00    -0.087 OA 
BRANCH   5   8
HETATM    8  C   UNL     1      -8.822   9.219  66.901  1.00  0.00    -0.127 A  
HETATM    9  C   UNL     1      -9.714  10.260  66.519  1.00  0.00    -0.193 A  
HETATM   10  C   UNL     1      -8.730   8.861  68.268  1.00  0.00    -0.134 A  
HETATM   11  I   UNL     1      -9.892  10.748  64.404  1.00  0.00    -0.416 I  
HETATM   12  C   UNL     1     -10.537  10.920  67.475  1.00  0.00    -0.271 A  
HETATM   13  I   UNL     1      -7.035   7.685  68.935  1.00  0.00    -0.074 I  
HETATM   14  I   UNL     1     -12.081  11.067  70.207  1.00  0.00    -0.456 I  
HETATM   15  C   UNL     1      -9.657   9.368  69.204  1.00  0.00    -0.163 A  
HETATM   16  C   UNL     1     -10.565  10.397  68.799  1.00  0.00    -0.208 A  
BRANCH  12  17
HETATM   17  C   UNL     1     -11.170  12.235  67.085  1.00  0.00    -0.307 C  
HETATM   18  N   UNL     1     -10.487  13.406  67.316  1.00  0.00    -0.247 N  
HETATM   19  H   UNL     1      -9.613  13.377  67.842  1.00  0.00     0.000 HD 
HETATM   20  O   UNL     1     -12.275  12.240  66.554  1.00  0.00    -0.588 OA 
BRANCH  18  21
HETATM   21  C   UNL     1     -10.981  14.693  66.824  1.00  0.00    -0.323 C  
BRANCH  21  22
HETATM   22  C   UNL     1     -10.218  15.100  65.559  1.00  0.00    -0.376 C  
HETATM   23  O   UNL     1     -10.572  14.213  64.487  1.00  0.00    -0.557 OA 
HETATM   24  H   UNL     1     -10.099  14.465  63.703  1.00  0.00     0.000 HD 
BRANCH  22  25
HETATM   25  C   UNL     1     -10.481  16.558  65.156  1.00  0.00    -0.143 C  
HETATM   26  H   UNL     1     -11.690  17.536  63.939  1.00  0.00     0.000 HD 
HETATM   27  O   UNL     1     -11.527  16.634  64.188  1.00  0.00    -1.131 OA 
ENDBRANCH  22  25
ENDBRANCH  21  22
ENDBRANCH  18  21
ENDBRANCH  12  17
BRANCH  15  28
HETATM   28  C   UNL     1      -9.671   8.867  70.617  1.00  0.00    -0.212 C  
HETATM   29  O   UNL     1      -8.970   9.392  71.475  1.00  0.00    -0.268 OA 
HETATM   30  H   UNL     1     -11.096   7.385  70.192  1.00  0.00     0.000 HD 
HETATM   31  N   UNL     1     -10.511   7.803  70.915  1.00  0.00    -0.205 N  
BRANCH  31  32
HETATM   32  C   UNL     1     -10.538   7.295  72.281  1.00  0.00    -0.224 C  
BRANCH  32  33
HETATM   33  C   UNL     1     -10.219   5.798  72.379  1.00  0.00    -0.190 C  
HETATM   34  H   UNL     1     -11.017   4.220  73.245  1.00  0.00     0.000 HD 
HETATM   35  O   UNL     1     -11.214   5.148  73.184  1.00  0.00    -0.298 OA 
BRANCH  33  36
HETATM   36  C   UNL     1     -10.164   5.168  70.977  1.00  0.00    -0.225 C  
HETATM   37  O   UNL     1      -9.881   3.772  71.037  1.00  0.00    -0.183 OA 
HETATM   38  H   UNL     1      -9.847   3.383  70.171  1.00  0.00     0.000 HD 
ENDBRANCH  33  36
ENDBRANCH  32  33
ENDBRANCH  31  32
ENDBRANCH  15  28
ENDBRANCH   5   8
BRANCH   6  39
HETATM   39  C   UNL     1      -5.840   8.596  64.570  1.00  0.00    -0.064 C  
HETATM   40  O   UNL     1      -5.959   9.197  63.284  1.00  0.00    -0.087 OA 
HETATM   41  H   UNL     1      -5.390   8.802  62.634  1.00  0.00     0.000 HD 
ENDBRANCH   6  39
ENDBRANCH   4   5
ENDBRANCH   3   4
TORSDOF 12
ENDMDL
MODEL       18
REMARK 921   NORMALIZED FREE ENERGY PREDICTED BY IDOCK:   -5.27 KCAL/MOL
REMARK 922        TOTAL FREE ENERGY PREDICTED BY IDOCK:   -9.24 KCAL/MOL
REMARK 923 INTER-LIGAND FREE ENERGY PREDICTED BY IDOCK:   -8.66 KCAL/MOL
REMARK 924 INTRA-LIGAND FREE ENERGY PREDICTED BY IDOCK:   -0.59 KCAL/MOL
REMARK 927      BINDING AFFINITY PREDICTED BY RF-SCORE:    0.00 PKD
ROOT
HETATM    1  O   UNL     1      -6.284  12.737  67.068  1.00  0.00    -0.468 OA 
HETATM    2  H   UNL     1      -5.582  12.417  67.622  1.00  0.00     0.000 HD 
HETATM    3  C   UNL     1      -7.531  12.170  67.442  1.00  0.00    -0.156 C  
ENDROOT
BRANCH   3   4
HETATM    4  C   UNL     1      -8.664  12.686  66.547  1.00  0.00    -0.003 C  
BRANCH   4   5
HETATM    5  N   UNL     1      -9.611  11.656  66.061  1.00  0.00    -0.223 N  
HETATM    6  C   UNL     1     -10.381  11.768  64.900  1.00  0.00    -0.289 C  
HETATM    7  O   UNL     1     -11.024  10.815  64.432  1.00  0.00    -0.124 OA 
BRANCH   5   8
HETATM    8  C   UNL     1      -9.581  10.371  66.716  1.00  0.00    -0.171 A  
HETATM    9  C   UNL     1     -10.262  10.155  67.947  1.00  0.00    -0.180 A  
HETATM   10  C   UNL     1      -8.799   9.324  66.172  1.00  0.00    -0.155 A  
HETATM   11  I   UNL     1     -11.516  11.755  68.732  1.00  0.00    -0.438 I  
HETATM   12  C   UNL     1     -10.199   8.902  68.620  1.00  0.00    -0.221 A  
HETATM   13  I   UNL     1      -7.357   9.785  64.620  1.00  0.00    -0.141 I  
HETATM   14  I   UNL     1      -9.787   5.790  68.699  1.00  0.00    -0.237 I  
HETATM   15  C   UNL     1      -8.864   8.024  66.719  1.00  0.00    -0.157 A  
HETATM   16  C   UNL     1      -9.573   7.818  67.945  1.00  0.00    -0.146 A  
BRANCH  12  17
HETATM   17  C   UNL     1     -10.618   8.850  70.071  1.00  0.00    -0.220 C  
HETATM   18  N   UNL     1     -11.856   8.351  70.397  1.00  0.00    -0.476 N  
HETATM   19  H   UNL     1     -12.514   8.124  69.651  1.00  0.00     0.000 HD 
HETATM   20  O   UNL     1      -9.841   9.237  70.938  1.00  0.00    -0.262 OA 
BRANCH  18  21
HETATM   21  C   UNL     1     -12.256   8.136  71.789  1.00  0.00    -0.319 C  
BRANCH  21  22
HETATM   22  C   UNL     1     -13.675   8.670  72.016  1.00  0.00    -0.426 C  
HETATM   23  O   UNL     1     -13.940   8.722  73.426  1.00  0.00    -1.132 OA 
HETATM   24  H   UNL     1     -14.819   9.054  73.567  1.00  0.00     0.000 HD 
BRANCH  22  25
HETATM   25  C   UNL     1     -13.892  10.050  71.379  1.00  0.00     0.043 C  
HETATM   26  H   UNL     1     -13.079  11.846  71.485  1.00  0.00     0.000 HD 
HETATM   27  O   UNL     1     -12.944  10.993  71.879  1.00  0.00    -0.457 OA 
ENDBRANCH  22  25
ENDBRANCH  21  22
ENDBRANCH  18  21
ENDBRANCH  12  17
BRANCH  15  28
HETATM   28  C   UNL     1      -8.171   6.875  66.049  1.00  0.00    -0.125 C  
HETATM   29  O   UNL     1      -7.026   6.567  66.361  1.00  0.00    -0.063 OA 
HETATM   30  H   UNL     1      -9.830   6.436  64.841  1.00  0.00     0.000 HD 
HETATM   31  N   UNL     1      -8.874   6.175  65.080  1.00  0.00     0.016 N  
BRANCH  31  32
HETATM   32  C   UNL     1      -8.219   5.056  64.412  1.00  0.00    -0.128 C  
BRANCH  32  33
HETATM   33  C   UNL     1      -9.016   3.749  64.494  1.00  0.00    -0.124 C  
HETATM   34  H   UNL     1     -10.148   2.846  65.828  1.00  0.00     0.000 HD 
HETATM   35  O   UNL     1      -9.654   3.656  65.777  1.00  0.00    -0.176 OA 
BRANCH  33  36
HETATM   36  C   UNL     1     -10.061   3.685  63.367  1.00  0.00    -0.189 C  
HETATM   37  O   UNL     1     -11.184   2.888  63.734  1.00  0.00    -0.562 OA 
HETATM   38  H   UNL     1     -11.830   2.848  63.038  1.00  0.00     0.000 HD 
ENDBRANCH  33  36
ENDBRANCH  32  33
ENDBRANCH  31  32
ENDBRANCH  15  28
ENDBRANCH   5   8
BRANCH   6  39
HETATM   39  C   UNL     1     -10.398  13.117  64.166  1.00  0.00    -0.263 C  
HETATM   40  O   UNL     1     -11.424  13.206  63.183  1.00  0.00    -0.684 OA 
HETATM   41  H   UNL     1     -11.435  14.041  62.728  1.00  0.00     0.000 HD 
ENDBRANCH   6  39
ENDBRANCH   4   5
ENDBRANCH   3   4
TORSDOF 12
ENDMDL
MODEL       19
REMARK 921   NORMALIZED FREE ENERGY PREDICTED BY IDOCK:   -5.27 KCAL/MOL
REMARK 922        TOTAL FREE ENERGY PREDICTED BY IDOCK:   -9.24 KCAL/MOL
REMARK 923 INTER-LIGAND FREE ENERGY PREDICTED BY IDOCK:   -8.75 KCAL/MOL
REMARK 924 INTRA-LIGAND FREE ENERGY PREDICTED BY IDOCK:   -0.49 KCAL/MOL
REMARK 927      BINDING AFFINITY PREDICTED BY RF-SCORE:    0.00 PKD
ROOT
HETATM    1  O   UNL     1      -6.174  12.506  66.754  1.00  0.00    -0.491 OA 
HETATM    2  H   UNL     1      -5.419  12.224  67.256  1.00  0.00     0.000 HD 
HETATM    3  C   UNL     1      -7.372  12.358  67.503  1.00  0.00    -0.146 C  
ENDROOT
BRANCH   3   4
HETATM    4  C   UNL     1      -8.591  12.814  66.692  1.00  0.00    -0.006 C  
BRANCH   4   5
HETATM    5  N   UNL     1      -9.597  11.764  66.412  1.00  0.00    -0.212 N  
HETATM    6  C   UNL     1     -10.571  11.843  65.412  1.00  0.00    -0.271 C  
HETATM    7  O   UNL     1     -11.277  10.873  65.091  1.00  0.00     0.045 OA 
BRANCH   5   8
HETATM    8  C   UNL     1      -9.431  10.495  67.078  1.00  0.00    -0.163 A  
HETATM    9  C   UNL     1      -8.811   9.395  66.423  1.00  0.00    -0.145 A  
HETATM   10  C   UNL     1      -9.963  10.309  68.377  1.00  0.00    -0.157 A  
HETATM   11  I   UNL     1      -7.938   9.720  64.453  1.00  0.00    -0.171 I  
HETATM   12  C   UNL     1      -8.684   8.128  67.059  1.00  0.00    -0.136 A  
HETATM   13  I   UNL     1     -11.353  11.775  69.164  1.00  0.00    -0.367 I  
HETATM   14  I   UNL     1      -8.510   6.276  69.590  1.00  0.00    -0.130 I  
HETATM   15  C   UNL     1      -9.694   9.126  69.097  1.00  0.00    -0.163 A  
HETATM   16  C   UNL     1      -9.047   8.036  68.432  1.00  0.00    -0.136 A  
BRANCH  12  17
HETATM   17  C   UNL     1      -8.366   6.927  66.199  1.00  0.00    -0.130 C  
HETATM   18  N   UNL     1      -9.396   6.184  65.672  1.00  0.00    -0.373 N  
HETATM   19  H   UNL     1     -10.354   6.390  65.956  1.00  0.00     0.000 HD 
HETATM   20  O   UNL     1      -7.196   6.641  65.970  1.00  0.00    -0.068 OA 
BRANCH  18  21
HETATM   21  C   UNL     1      -9.152   5.104  64.713  1.00  0.00     0.002 C  
BRANCH  21  22
HETATM   22  C   UNL     1     -10.173   3.980  64.919  1.00  0.00    -0.200 C  
HETATM   23  O   UNL     1     -11.490   4.546  65.003  1.00  0.00    -1.101 OA 
HETATM   24  H   UNL     1     -12.123   3.849  65.131  1.00  0.00     0.000 HD 
BRANCH  22  25
HETATM   25  C   UNL     1     -10.116   2.923  63.807  1.00  0.00    -0.169 C  
HETATM   26  H   UNL     1      -9.509   2.816  61.931  1.00  0.00     0.000 HD 
HETATM   27  O   UNL     1      -9.544   3.470  62.619  1.00  0.00    -0.096 OA 
ENDBRANCH  22  25
ENDBRANCH  21  22
ENDBRANCH  18  21
ENDBRANCH  12  17
BRANCH  15  28
HETATM   28  C   UNL     1     -10.111   8.989  70.531  1.00  0.00    -0.215 C  
HETATM   29  O   UNL     1      -9.330   9.253  71.438  1.00  0.00    -0.263 OA 
HETATM   30  H   UNL     1     -12.049   8.363  70.021  1.00  0.00     0.000 HD 
HETATM   31  N   UNL     1     -11.407   8.567  70.787  1.00  0.00    -0.268 N  
BRANCH  31  32
HETATM   32  C   UNL     1     -11.834   8.422  72.174  1.00  0.00    -0.375 C  
BRANCH  32  33
HETATM   33  C   UNL     1     -13.228   9.003  72.444  1.00  0.00    -0.447 C  
HETATM   34  H   UNL     1     -14.182  10.677  72.039  1.00  0.00     0.000 HD 
HETATM   35  O   UNL     1     -13.318  10.317  71.872  1.00  0.00    -0.415 OA 
BRANCH  33  36
HETATM   36  C   UNL     1     -14.315   8.085  71.860  1.00  0.00    -0.457 C  
HETATM   37  O   UNL     1     -14.095   6.720  72.206  1.00  0.00    -0.572 OA 
HETATM   38  H   UNL     1     -14.766   6.153  71.845  1.00  0.00     0.000 HD 
ENDBRANCH  33  36
ENDBRANCH  32  33
ENDBRANCH  31  32
ENDBRANCH  15  28
ENDBRANCH   5   8
BRANCH   6  39
HETATM   39  C   UNL     1     -10.740  13.174  64.664  1.00  0.00    -0.380 C  
HETATM   40  O   UNL     1     -11.639  13.086  63.563  1.00  0.00    -0.579 OA 
HETATM   41  H   UNL     1     -11.744  13.910  63.100  1.00  0.00     0.000 HD 
ENDBRANCH   6  39
ENDBRANCH   4   5
ENDBRANCH   3   4
TORSDOF 12
ENDMDL
MODEL       20
REMARK 921   NORMALIZED FREE ENERGY PREDICTED BY IDOCK:   -5.26 KCAL/MOL
REMARK 922        TOTAL FREE ENERGY PREDICTED BY IDOCK:   -9.23 KCAL/MOL
REMARK 923 INTER-LIGAND FREE ENERGY PREDICTED BY IDOCK:   -8.74 KCAL/MOL
REMARK 924 INTRA-LIGAND FREE ENERGY PREDICTED BY IDOCK:   -0.49 KCAL/MOL
REMARK 927      BINDING AFFINITY PREDICTED BY RF-SCORE:    0.00 PKD
ROOT
HETATM    1  O   UNL     1     -14.129   7.442  70.796  1.00  0.00    -0.555 OA 
HETATM    2  H   UNL     1     -14.963   7.432  71.251  1.00  0.00     0.000 HD 
HETATM    3  C   UNL     1     -13.109   6.849  71.585  1.00  0.00    -0.279 C  
ENDROOT
BRANCH   3   4
HETATM    4  C   UNL     1     -11.762   6.866  70.851  1.00  0.00    -0.361 C  
BRANCH   4   5
HETATM    5  N   UNL     1     -10.788   7.872  71.332  1.00  0.00    -0.224 N  
HETATM    6  C   UNL     1     -10.196   7.863  72.598  1.00  0.00    -0.296 C  
HETATM    7  O   UNL     1      -9.255   8.615  72.900  1.00  0.00    -0.280 OA 
BRANCH   5   8
HETATM    8  C   UNL     1     -10.263   8.801  70.361  1.00  0.00    -0.197 A  
HETATM    9  C   UNL     1     -10.891  10.056  70.128  1.00  0.00    -0.311 A  
HETATM   10  C   UNL     1      -9.152   8.432  69.566  1.00  0.00    -0.153 A  
HETATM   11  I   UNL     1     -12.556  10.636  71.408  1.00  0.00    -0.437 I  
HETATM   12  C   UNL     1     -10.404  10.958  69.139  1.00  0.00    -0.228 A  
HETATM   13  I   UNL     1      -8.526   6.356  69.533  1.00  0.00    -0.134 I  
HETATM   14  I   UNL     1      -8.146  12.132  67.298  1.00  0.00    -0.135 I  
HETATM   15  C   UNL     1      -8.540   9.372  68.710  1.00  0.00    -0.127 A  
HETATM   16  C   UNL     1      -9.170  10.640  68.504  1.00  0.00    -0.170 A  
BRANCH  12  17
HETATM   17  C   UNL     1     -11.310  12.079  68.687  1.00  0.00    -0.277 C  
HETATM   18  N   UNL     1     -11.275  13.282  69.351  1.00  0.00    -0.423 N  
HETATM   19  H   UNL     1     -10.719  13.365  70.202  1.00  0.00     0.000 HD 
HETATM   20  O   UNL     1     -12.050  11.906  67.725  1.00  0.00    -0.564 OA 
BRANCH  18  21
HETATM   21  C   UNL     1     -12.016  14.449  68.867  1.00  0.00    -0.302 C  
BRANCH  21  22
HETATM   22  C   UNL     1     -12.140  15.492  69.983  1.00  0.00    -0.368 C  
HETATM   23  O   UNL     1     -13.498  15.526  70.449  1.00  0.00    -0.791 OA 
HETATM   24  H   UNL     1     -13.575  16.173  71.141  1.00  0.00     0.000 HD 
BRANCH  22  25
HETATM   25  C   UNL     1     -11.181  15.222  71.150  1.00  0.00    -0.330 C  
HETATM   26  H   UNL     1     -11.312  14.809  73.077  1.00  0.00     0.000 HD 
HETATM   27  O   UNL     1     -11.906  14.976  72.355  1.00  0.00    -0.370 OA 
ENDBRANCH  22  25
ENDBRANCH  21  22
ENDBRANCH  18  21
ENDBRANCH  12  17
BRANCH  15  28
HETATM   28  C   UNL     1      -7.266   9.041  67.992  1.00  0.00    -0.080 C  
HETATM   29  O   UNL     1      -6.182   9.173  68.548  1.00  0.00    -0.048 OA 
HETATM   30  H   UNL     1      -8.275   8.459  66.245  1.00  0.00     0.000 HD 
HETATM   31  N   UNL     1      -7.364   8.574  66.690  1.00  0.00    -0.081 N  
BRANCH  31  32
HETATM   32  C   UNL     1      -6.138   8.250  65.969  1.00  0.00    -0.045 C  
BRANCH  32  33
HETATM   33  C   UNL     1      -6.202   8.597  64.476  1.00  0.00    -0.066 C  
HETATM   34  H   UNL     1      -7.497   8.372  63.010  1.00  0.00     0.000 HD 
HETATM   35  O   UNL     1      -7.457   8.157  63.935  1.00  0.00    -0.101 OA 
BRANCH  33  36
HETATM   36  C   UNL     1      -6.027  10.111  64.269  1.00  0.00    -0.139 C  
HETATM   37  O   UNL     1      -7.136  10.680  63.576  1.00  0.00    -0.344 OA 
HETATM   38  H   UNL     1      -7.028  11.615  63.448  1.00  0.00     0.000 HD 
ENDBRANCH  33  36
ENDBRANCH  32  33
ENDBRANCH  31  32
ENDBRANCH  15  28
ENDBRANCH   5   8
BRANCH   6  39
HETATM   39  C   UNL     1     -10.714   6.857  73.637  1.00  0.00    -0.274 C  
HETATM   40  O   UNL     1      -9.696   6.383  74.513  1.00  0.00    -0.248 OA 
HETATM   41  H   UNL     1     -10.017   5.760  75.156  1.00  0.00     0.000 HD 
ENDBRANCH   6  39
ENDBRANCH   4   5
ENDBRANCH   3   4
TORSDOF 12
ENDMDL
MODEL       21
REMARK 921   NORMALIZED FREE ENERGY PREDICTED BY IDOCK:   -5.26 KCAL/MOL
REMARK 922        TOTAL FREE ENERGY PREDICTED BY IDOCK:   -9.22 KCAL/MOL
REMARK 923 INTER-LIGAND FREE ENERGY PREDICTED BY IDOCK:   -8.84 KCAL/MOL
REMARK 924 INTRA-LIGAND FREE ENERGY PREDICTED BY IDOCK:   -0.39 KCAL/MOL
REMARK 927      BINDING AFFINITY PREDICTED BY RF-SCORE:    0.00 PKD
ROOT
HETATM    1  O   UNL     1     -14.340   6.580  72.294  1.00  0.00    -0.622 OA 
HETATM    2  H   UNL     1     -15.108   6.935  72.726  1.00  0.00     0.000 HD 
HETATM    3  C   UNL     1     -13.659   7.582  71.554  1.00  0.00    -0.363 C  
ENDROOT
BRANCH   3   4
HETATM    4  C   UNL     1     -12.419   7.008  70.857  1.00  0.00    -0.272 C  
BRANCH   4   5
HETATM    5  N   UNL     1     -11.198   7.843  70.942  1.00  0.00    -0.267 N  
HETATM    6  C   UNL     1     -10.393   7.960  72.079  1.00  0.00    -0.225 C  
HETATM    7  O   UNL     1      -9.287   8.522  72.058  1.00  0.00    -0.234 OA 
BRANCH   5   8
HETATM    8  C   UNL     1     -10.696   8.406  69.713  1.00  0.00    -0.211 A  
HETATM    9  C   UNL     1     -10.987   9.749  69.344  1.00  0.00    -0.212 A  
HETATM   10  C   UNL     1      -9.966   7.591  68.815  1.00  0.00    -0.172 A  
HETATM   11  I   UNL     1     -12.052  11.007  70.769  1.00  0.00    -0.297 I  
HETATM   12  C   UNL     1     -10.532  10.296  68.111  1.00  0.00    -0.224 A  
HETATM   13  I   UNL     1      -9.970   5.442  69.103  1.00  0.00    -0.281 I  
HETATM   14  I   UNL     1      -8.570  10.411  65.661  1.00  0.00    -0.195 I  
HETATM   15  C   UNL     1      -9.350   8.154  67.676  1.00  0.00    -0.160 A  
HETATM   16  C   UNL     1      -9.634   9.514  67.331  1.00  0.00    -0.141 A  
BRANCH  12  17
HETATM   17  C   UNL     1     -11.173  11.570  67.615  1.00  0.00    -0.281 C  
HETATM   18  N   UNL     1     -10.787  12.774  68.156  1.00  0.00    -0.219 N  
HETATM   19  H   UNL     1     -10.154  12.779  68.956  1.00  0.00     0.000 HD 
HETATM   20  O   UNL     1     -12.016  11.516  66.726  1.00  0.00    -0.470 OA 
BRANCH  18  21
HETATM   21  C   UNL     1     -11.262  14.048  67.613  1.00  0.00    -0.297 C  
BRANCH  21  22
HETATM   22  C   UNL     1     -10.074  14.887  67.129  1.00  0.00    -0.240 C  
HETATM   23  O   UNL     1      -9.405  14.190  66.067  1.00  0.00    -0.485 OA 
HETATM   24  H   UNL     1      -8.668  14.710  65.767  1.00  0.00     0.000 HD 
BRANCH  22  25
HETATM   25  C   UNL     1     -10.494  16.289  66.667  1.00  0.00    -0.290 C  
HETATM   26  H   UNL     1      -9.873  17.639  65.366  1.00  0.00     0.000 HD 
HETATM   27  O   UNL     1      -9.613  16.772  65.652  1.00  0.00    -0.527 OA 
ENDBRANCH  22  25
ENDBRANCH  21  22
ENDBRANCH  18  21
ENDBRANCH  12  17
BRANCH  15  28
HETATM   28  C   UNL     1      -8.439   7.334  66.812  1.00  0.00    -0.121 C  
HETATM   29  O   UNL     1      -7.233   7.305  67.025  1.00  0.00    -0.086 OA 
HETATM   30  H   UNL     1     -10.021   6.635  65.621  1.00  0.00     0.000 HD 
HETATM   31  N   UNL     1      -9.013   6.609  65.778  1.00  0.00    -0.085 N  
BRANCH  31  32
HETATM   32  C   UNL     1      -8.147   5.808  64.921  1.00  0.00    -0.131 C  
BRANCH  32  33
HETATM   33  C   UNL     1      -8.787   4.487  64.476  1.00  0.00    -0.151 C  
HETATM   34  H   UNL     1      -8.234   2.601  64.351  1.00  0.00     0.000 HD 
HETATM   35  O   UNL     1      -7.838   3.420  64.627  1.00  0.00    -0.077 OA 
BRANCH  33  36
HETATM   36  C   UNL     1     -10.055   4.201  65.297  1.00  0.00    -0.202 C  
HETATM   37  O   UNL     1     -11.199   4.040  64.461  1.00  0.00    -0.743 OA 
HETATM   38  H   UNL     1     -11.983   3.863  64.969  1.00  0.00     0.000 HD 
ENDBRANCH  33  36
ENDBRANCH  32  33
ENDBRANCH  31  32
ENDBRANCH  15  28
ENDBRANCH   5   8
BRANCH   6  39
HETATM   39  C   UNL     1     -10.892   7.335  73.392  1.00  0.00    -0.324 C  
HETATM   40  O   UNL     1     -10.437   6.000  73.583  1.00  0.00    -0.233 OA 
HETATM   41  H   UNL     1     -10.746   5.613  74.395  1.00  0.00     0.000 HD 
ENDBRANCH   6  39
ENDBRANCH   4   5
ENDBRANCH   3   4
TORSDOF 12
ENDMDL
MODEL       22
REMARK 921   NORMALIZED FREE ENERGY PREDICTED BY IDOCK:   -5.16 KCAL/MOL
REMARK 922        TOTAL FREE ENERGY PREDICTED BY IDOCK:   -9.05 KCAL/MOL
REMARK 923 INTER-LIGAND FREE ENERGY PREDICTED BY IDOCK:   -8.48 KCAL/MOL
REMARK 924 INTRA-LIGAND FREE ENERGY PREDICTED BY IDOCK:   -0.57 KCAL/MOL
REMARK 927      BINDING AFFINITY PREDICTED BY RF-SCORE:    0.00 PKD
ROOT
HETATM    1  O   UNL     1      -6.703  19.005  64.922  1.00  0.00    -0.478 OA 
HETATM    2  H   UNL     1      -7.088  19.850  64.723  1.00  0.00     0.000 HD 
HETATM    3  C   UNL     1      -7.347  18.397  66.033  1.00  0.00    -0.238 C  
ENDROOT
BRANCH   3   4
HETATM    4  C   UNL     1      -6.724  17.033  66.354  1.00  0.00    -0.187 C  
BRANCH   4   5
HETATM    5  N   UNL     1      -6.834  16.602  67.767  1.00  0.00    -0.135 N  
HETATM    6  C   UNL     1      -6.189  17.223  68.840  1.00  0.00    -0.185 C  
HETATM    7  O   UNL     1      -6.445  16.946  70.023  1.00  0.00    -0.107 OA 
BRANCH   5   8
HETATM    8  C   UNL     1      -7.830  15.606  68.078  1.00  0.00    -0.129 A  
HETATM    9  C   UNL     1      -9.131  15.978  68.517  1.00  0.00    -0.203 A  
HETATM   10  C   UNL     1      -7.491  14.233  68.024  1.00  0.00    -0.142 A  
HETATM   11  I   UNL     1      -9.657  18.092  68.527  1.00  0.00    -0.324 I  
HETATM   12  C   UNL     1     -10.104  15.000  68.869  1.00  0.00    -0.234 A  
HETATM   13  I   UNL     1      -5.402  13.671  67.880  1.00  0.00     0.066 I  
HETATM   14  I   UNL     1     -11.351  12.121  68.724  1.00  0.00    -0.422 I  
HETATM   15  C   UNL     1      -8.484  13.244  68.191  1.00  0.00    -0.173 A  
HETATM   16  C   UNL     1      -9.795  13.635  68.610  1.00  0.00    -0.138 A  
BRANCH  12  17
HETATM   17  C   UNL     1     -11.308  15.445  69.666  1.00  0.00    -0.307 C  
HETATM   18  N   UNL     1     -11.216  15.526  71.036  1.00  0.00    -0.355 N  
HETATM   19  H   UNL     1     -10.374  15.183  71.499  1.00  0.00     0.000 HD 
HETATM   20  O   UNL     1     -12.343  15.744  69.081  1.00  0.00    -0.212 OA 
BRANCH  18  21
HETATM   21  C   UNL     1     -12.296  16.092  71.846  1.00  0.00    -0.450 C  
BRANCH  21  22
HETATM   22  C   UNL     1     -12.539  15.217  73.081  1.00  0.00    -0.463 C  
HETATM   23  O   UNL     1     -13.071  16.030  74.139  1.00  0.00    -0.893 OA 
HETATM   24  H   UNL     1     -13.222  15.488  74.904  1.00  0.00     0.000 HD 
BRANCH  22  25
HETATM   25  C   UNL     1     -13.476  14.037  72.791  1.00  0.00    -0.470 C  
HETATM   26  H   UNL     1     -14.421  13.278  71.232  1.00  0.00     0.000 HD 
HETATM   27  O   UNL     1     -13.841  14.009  71.411  1.00  0.00    -0.301 OA 
ENDBRANCH  22  25
ENDBRANCH  21  22
ENDBRANCH  18  21
ENDBRANCH  12  17
BRANCH  15  28
HETATM   28  C   UNL     1      -8.167  11.794  67.972  1.00  0.00    -0.152 C  
HETATM   29  O   UNL     1      -7.881  11.066  68.915  1.00  0.00    -0.129 OA 
HETATM   30  H   UNL     1      -8.472  11.930  65.899  1.00  0.00     0.000 HD 
HETATM   31  N   UNL     1      -8.221  11.313  66.672  1.00  0.00    -0.161 N  
BRANCH  31  32
HETATM   32  C   UNL     1      -7.912   9.908  66.432  1.00  0.00    -0.111 C  
BRANCH  32  33
HETATM   33  C   UNL     1      -8.831   9.253  65.394  1.00  0.00    -0.192 C  
HETATM   34  H   UNL     1     -10.771   9.115  65.087  1.00  0.00     0.000 HD 
HETATM   35  O   UNL     1     -10.202   9.520  65.730  1.00  0.00    -0.255 OA 
BRANCH  33  36
HETATM   36  C   UNL     1      -8.510   9.779  63.985  1.00  0.00    -0.182 C  
HETATM   37  O   UNL     1      -9.446   9.306  63.019  1.00  0.00    -0.470 OA 
HETATM   38  H   UNL     1      -9.248   9.630  62.149  1.00  0.00     0.000 HD 
ENDBRANCH  33  36
ENDBRANCH  32  33
ENDBRANCH  31  32
ENDBRANCH  15  28
ENDBRANCH   5   8
BRANCH   6  39
HETATM   39  C   UNL     1      -5.150  18.313  68.533  1.00  0.00    -0.165 C  
HETATM   40  O   UNL     1      -5.365  19.513  69.268  1.00  0.00    -0.183 OA 
HETATM   41  H   UNL     1      -4.723  20.187  69.078  1.00  0.00     0.000 HD 
ENDBRANCH   6  39
ENDBRANCH   4   5
ENDBRANCH   3   4
TORSDOF 12
ENDMDL
MODEL       23
REMARK 921   NORMALIZED FREE ENERGY PREDICTED BY IDOCK:   -5.14 KCAL/MOL
REMARK 922        TOTAL FREE ENERGY PREDICTED BY IDOCK:   -9.03 KCAL/MOL
REMARK 923 INTER-LIGAND FREE ENERGY PREDICTED BY IDOCK:   -8.21 KCAL/MOL
REMARK 924 INTRA-LIGAND FREE ENERGY PREDICTED BY IDOCK:   -0.82 KCAL/MOL
REMARK 927      BINDING AFFINITY PREDICTED BY RF-SCORE:    0.00 PKD
ROOT
HETATM    1  O   UNL     1     -12.810   6.920  72.157  1.00  0.00    -0.529 OA 
HETATM    2  H   UNL     1     -13.587   7.152  72.652  1.00  0.00     0.000 HD 
HETATM    3  C   UNL     1     -12.652   7.765  71.027  1.00  0.00    -0.115 C  
ENDROOT
BRANCH   3   4
HETATM    4  C   UNL     1     -11.398   7.390  70.227  1.00  0.00    -0.221 C  
BRANCH   4   5
HETATM    5  N   UNL     1     -10.362   8.445  70.136  1.00  0.00    -0.206 N  
HETATM    6  C   UNL     1      -9.469   8.773  71.160  1.00  0.00    -0.240 C  
HETATM    7  O   UNL     1      -8.504   9.534  70.985  1.00  0.00    -0.284 OA 
BRANCH   5   8
HETATM    8  C   UNL     1     -10.126   9.027  68.838  1.00  0.00    -0.196 A  
HETATM    9  C   UNL     1      -9.272   8.395  67.891  1.00  0.00    -0.135 A  
HETATM   10  C   UNL     1     -10.685  10.289  68.522  1.00  0.00    -0.227 A  
HETATM   11  I   UNL     1      -8.478   6.423  68.366  1.00  0.00    -0.112 I  
HETATM   12  C   UNL     1      -9.000   8.988  66.625  1.00  0.00    -0.163 A  
HETATM   13  I   UNL     1     -11.530  11.492  70.115  1.00  0.00     0.200 I  
HETATM   14  I   UNL     1      -9.695  10.882  64.219  1.00  0.00    -0.416 I  
HETATM   15  C   UNL     1     -10.579  10.811  67.215  1.00  0.00    -0.304 A  
HETATM   16  C   UNL     1      -9.736  10.151  66.266  1.00  0.00    -0.218 A  
BRANCH  12  17
HETATM   17  C   UNL     1      -7.821   8.470  65.834  1.00  0.00    -0.099 C  
HETATM   18  N   UNL     1      -8.031   7.545  64.839  1.00  0.00    -0.128 N  
HETATM   19  H   UNL     1      -8.961   7.143  64.722  1.00  0.00     0.000 HD 
HETATM   20  O   UNL     1      -6.697   8.895  66.078  1.00  0.00    -0.067 OA 
BRANCH  18  21
HETATM   21  C   UNL     1      -6.953   7.122  63.943  1.00  0.00    -0.057 C  
BRANCH  21  22
HETATM   22  C   UNL     1      -6.393   5.770  64.397  1.00  0.00    -0.033 C  
HETATM   23  O   UNL     1      -5.783   5.920  65.688  1.00  0.00    -0.019 OA 
HETATM   24  H   UNL     1      -5.436   5.082  65.970  1.00  0.00     0.000 HD 
BRANCH  22  25
HETATM   25  C   UNL     1      -7.465   4.672  64.436  1.00  0.00    -0.071 C  
HETATM   26  H   UNL     1      -9.122   4.221  63.461  1.00  0.00     0.000 HD 
HETATM   27  O   UNL     1      -8.459   4.900  63.436  1.00  0.00    -0.116 OA 
ENDBRANCH  22  25
ENDBRANCH  21  22
ENDBRANCH  18  21
ENDBRANCH  12  17
BRANCH  15  28
HETATM   28  C   UNL     1     -11.308  12.064  66.829  1.00  0.00    -0.339 C  
HETATM   29  O   UNL     1     -12.360  12.008  66.202  1.00  0.00    -0.449 OA 
HETATM   30  H   UNL     1      -9.884  13.305  67.747  1.00  0.00     0.000 HD 
HETATM   31  N   UNL     1     -10.755  13.276  67.216  1.00  0.00    -0.254 N  
BRANCH  31  32
HETATM   32  C   UNL     1     -11.442  14.508  66.847  1.00  0.00    -0.364 C  
BRANCH  32  33
HETATM   33  C   UNL     1     -10.703  15.318  65.775  1.00  0.00    -0.348 C  
HETATM   34  H   UNL     1      -8.975  15.208  64.838  1.00  0.00     0.000 HD 
HETATM   35  O   UNL     1      -9.433  14.706  65.502  1.00  0.00    -0.200 OA 
BRANCH  33  36
HETATM   36  C   UNL     1     -11.546  15.407  64.492  1.00  0.00    -0.296 C  
HETATM   37  O   UNL     1     -11.437  16.689  63.877  1.00  0.00    -1.604 OA 
HETATM   38  H   UNL     1     -11.958  16.743  63.084  1.00  0.00     0.000 HD 
ENDBRANCH  33  36
ENDBRANCH  32  33
ENDBRANCH  31  32
ENDBRANCH  15  28
ENDBRANCH   5   8
BRANCH   6  39
HETATM   39  C   UNL     1      -9.680   8.135  72.542  1.00  0.00    -0.287 C  
HETATM   40  O   UNL     1      -8.695   8.524  73.494  1.00  0.00    -0.314 OA 
HETATM   41  H   UNL     1      -8.826   8.129  74.348  1.00  0.00     0.000 HD 
ENDBRANCH   6  39
ENDBRANCH   4   5
ENDBRANCH   3   4
TORSDOF 12
ENDMDL
MODEL       24
REMARK 921   NORMALIZED FREE ENERGY PREDICTED BY IDOCK:   -5.12 KCAL/MOL
REMARK 922        TOTAL FREE ENERGY PREDICTED BY IDOCK:   -8.99 KCAL/MOL
REMARK 923 INTER-LIGAND FREE ENERGY PREDICTED BY IDOCK:   -8.13 KCAL/MOL
REMARK 924 INTRA-LIGAND FREE ENERGY PREDICTED BY IDOCK:   -0.85 KCAL/MOL
REMARK 927      BINDING AFFINITY PREDICTED BY RF-SCORE:    0.00 PKD
ROOT
HETATM    1  O   UNL     1      -6.156  11.751  65.848  1.00  0.00    -0.422 OA 
HETATM    2  H   UNL     1      -5.980  12.464  66.450  1.00  0.00     0.000 HD 
HETATM    3  C   UNL     1      -6.064  10.494  66.503  1.00  0.00    -0.079 C  
ENDROOT
BRANCH   3   4
HETATM    4  C   UNL     1      -6.347   9.343  65.531  1.00  0.00    -0.065 C  
BRANCH   4   5
HETATM    5  N   UNL     1      -7.640   8.647  65.728  1.00  0.00    -0.088 N  
HETATM    6  C   UNL     1      -7.942   7.374  65.234  1.00  0.00    -0.127 C  
HETATM    7  O   UNL     1      -8.963   6.754  65.570  1.00  0.00    -0.038 OA 
BRANCH   5   8
HETATM    8  C   UNL     1      -8.569   9.232  66.664  1.00  0.00    -0.127 A  
HETATM    9  C   UNL     1      -9.495  10.233  66.254  1.00  0.00    -0.177 A  
HETATM   10  C   UNL     1      -8.512   8.869  68.030  1.00  0.00    -0.126 A  
HETATM   11  I   UNL     1      -9.615  10.729  64.136  1.00  0.00    -0.396 I  
HETATM   12  C   UNL     1     -10.383  10.846  67.182  1.00  0.00    -0.262 A  
HETATM   13  I   UNL     1      -6.790   7.768  68.755  1.00  0.00    -0.062 I  
HETATM   14  I   UNL     1     -12.033  10.900  69.854  1.00  0.00    -0.421 I  
HETATM   15  C   UNL     1      -9.496   9.324  68.934  1.00  0.00    -0.154 A  
HETATM   16  C   UNL     1     -10.436  10.313  68.501  1.00  0.00    -0.192 A  
BRANCH  12  17
HETATM   17  C   UNL     1     -11.061  12.134  66.777  1.00  0.00    -0.300 C  
HETATM   18  N   UNL     1     -10.424  13.331  67.000  1.00  0.00    -0.248 N  
HETATM   19  H   UNL     1      -9.553  13.339  67.532  1.00  0.00     0.000 HD 
HETATM   20  O   UNL     1     -12.163  12.092  66.238  1.00  0.00    -0.604 OA 
BRANCH  18  21
HETATM   21  C   UNL     1     -10.962  14.595  66.494  1.00  0.00    -0.318 C  
BRANCH  21  22
HETATM   22  C   UNL     1     -10.035  15.166  65.416  1.00  0.00    -0.330 C  
HETATM   23  O   UNL     1     -10.828  15.730  64.360  1.00  0.00    -0.794 OA 
HETATM   24  H   UNL     1     -10.253  16.084  63.692  1.00  0.00     0.000 HD 
BRANCH  22  25
HETATM   25  C   UNL     1      -9.062  16.215  65.972  1.00  0.00    -0.318 C  
HETATM   26  H   UNL     1      -7.553  16.270  67.244  1.00  0.00     0.000 HD 
HETATM   27  O   UNL     1      -8.155  15.621  66.900  1.00  0.00    -0.218 OA 
ENDBRANCH  22  25
ENDBRANCH  21  22
ENDBRANCH  18  21
ENDBRANCH  12  17
BRANCH  15  28
HETATM   28  C   UNL     1      -9.540   8.812  70.343  1.00  0.00    -0.182 C  
HETATM   29  O   UNL     1      -9.000   9.432  71.251  1.00  0.00    -0.282 OA 
HETATM   30  H   UNL     1     -10.675   7.128  69.810  1.00  0.00     0.000 HD 
HETATM   31  N   UNL     1     -10.221   7.626  70.575  1.00  0.00    -0.200 N  
BRANCH  31  32
HETATM   32  C   UNL     1     -10.273   7.106  71.937  1.00  0.00    -0.190 C  
BRANCH  32  33
HETATM   33  C   UNL     1     -11.660   7.228  72.580  1.00  0.00    -0.217 C  
HETATM   34  H   UNL     1     -12.869   8.691  73.102  1.00  0.00     0.000 HD 
HETATM   35  O   UNL     1     -12.010   8.615  72.704  1.00  0.00    -0.340 OA 
BRANCH  33  36
HETATM   36  C   UNL     1     -12.709   6.479  71.742  1.00  0.00    -0.132 C  
HETATM   37  O   UNL     1     -13.551   7.379  71.025  1.00  0.00    -0.613 OA 
HETATM   38  H   UNL     1     -14.199   6.917  70.507  1.00  0.00     0.000 HD 
ENDBRANCH  33  36
ENDBRANCH  32  33
ENDBRANCH  31  32
ENDBRANCH  15  28
ENDBRANCH   5   8
BRANCH   6  39
HETATM   39  C   UNL     1      -6.948   6.716  64.265  1.00  0.00    -0.051 C  
HETATM   40  O   UNL     1      -7.067   7.197  62.930  1.00  0.00    -0.058 OA 
HETATM   41  H   UNL     1      -6.452   6.789  62.331  1.00  0.00     0.000 HD 
ENDBRANCH   6  39
ENDBRANCH   4   5
ENDBRANCH   3   4
TORSDOF 12
ENDMDL
MODEL       25
REMARK 921   NORMALIZED FREE ENERGY PREDICTED BY IDOCK:   -5.10 KCAL/MOL
REMARK 922        TOTAL FREE ENERGY PREDICTED BY IDOCK:   -8.96 KCAL/MOL
REMARK 923 INTER-LIGAND FREE ENERGY PREDICTED BY IDOCK:   -7.91 KCAL/MOL
REMARK 924 INTRA-LIGAND FREE ENERGY PREDICTED BY IDOCK:   -1.05 KCAL/MOL
REMARK 927      BINDING AFFINITY PREDICTED BY RF-SCORE:    0.00 PKD
ROOT
HETATM    1  O   UNL     1     -11.459   4.434  65.057  1.00  0.00    -1.090 OA 
HETATM    2  H   UNL     1     -12.172   3.990  65.500  1.00  0.00     0.000 HD 
HETATM    3  C   UNL     1     -10.217   4.164  65.689  1.00  0.00    -0.139 C  
ENDROOT
BRANCH   3   4
HETATM    4  C   UNL     1      -9.065   4.881  64.973  1.00  0.00    -0.131 C  
BRANCH   4   5
HETATM    5  N   UNL     1      -8.182   5.691  65.844  1.00  0.00    -0.114 N  
HETATM    6  C   UNL     1      -6.795   5.535  65.934  1.00  0.00    -0.058 C  
HETATM    7  O   UNL     1      -6.071   6.344  66.535  1.00  0.00    -0.030 OA 
BRANCH   5   8
HETATM    8  C   UNL     1      -8.762   6.847  66.482  1.00  0.00    -0.133 A  
HETATM    9  C   UNL     1      -8.904   8.080  65.785  1.00  0.00    -0.132 A  
HETATM   10  C   UNL     1      -9.126   6.787  67.848  1.00  0.00    -0.114 A  
HETATM   11  I   UNL     1      -8.404   8.135  63.665  1.00  0.00     0.317 I  
HETATM   12  C   UNL     1      -9.434   9.237  66.423  1.00  0.00    -0.277 A  
HETATM   13  I   UNL     1      -8.435   5.117  69.047  1.00  0.00    -0.104 I  
HETATM   14  I   UNL     1     -11.165  10.673  68.615  1.00  0.00    -0.310 I  
HETATM   15  C   UNL     1      -9.818   7.858  68.453  1.00  0.00    -0.185 A  
HETATM   16  C   UNL     1      -9.974   9.083  67.730  1.00  0.00    -0.187 A  
BRANCH  12  17
HETATM   17  C   UNL     1      -9.216  10.578  65.764  1.00  0.00    -0.182 C  
HETATM   18  N   UNL     1     -10.203  11.106  64.965  1.00  0.00    -0.278 N  
HETATM   19  H   UNL     1     -11.021  10.537  64.744  1.00  0.00     0.000 HD 
HETATM   20  O   UNL     1      -8.170  11.186  65.963  1.00  0.00    -0.161 OA 
BRANCH  18  21
HETATM   21  C   UNL     1     -10.111  12.463  64.424  1.00  0.00    -0.267 C  
BRANCH  21  22
HETATM   22  C   UNL     1     -11.357  12.781  63.591  1.00  0.00    -0.453 C  
HETATM   23  O   UNL     1     -11.791  11.591  62.915  1.00  0.00    -0.859 OA 
HETATM   24  H   UNL     1     -12.563  11.788  62.398  1.00  0.00     0.000 HD 
BRANCH  22  25
HETATM   25  C   UNL     1     -12.499  13.362  64.437  1.00  0.00    -0.277 C  
HETATM   26  H   UNL     1     -13.939  12.680  65.603  1.00  0.00     0.000 HD 
HETATM   27  O   UNL     1     -13.233  12.320  65.079  1.00  0.00    -0.462 OA 
ENDBRANCH  22  25
ENDBRANCH  21  22
ENDBRANCH  18  21
ENDBRANCH  12  17
BRANCH  15  28
HETATM   28  C   UNL     1     -10.352   7.735  69.849  1.00  0.00    -0.223 C  
HETATM   29  O   UNL     1      -9.752   8.232  70.795  1.00  0.00    -0.167 OA 
HETATM   30  H   UNL     1     -12.041   6.657  69.223  1.00  0.00     0.000 HD 
HETATM   31  N   UNL     1     -11.548   7.054  70.022  1.00  0.00    -0.222 N  
BRANCH  31  32
HETATM   32  C   UNL     1     -12.086   6.918  71.371  1.00  0.00    -0.364 C  
BRANCH  32  33
HETATM   33  C   UNL     1     -13.539   7.390  71.496  1.00  0.00    -0.370 C  
HETATM   34  H   UNL     1     -15.218   6.670  72.231  1.00  0.00     0.000 HD 
HETATM   35  O   UNL     1     -14.318   6.378  72.154  1.00  0.00    -0.134 OA 
BRANCH  33  36
HETATM   36  C   UNL     1     -13.609   8.714  72.274  1.00  0.00    -0.383 C  
HETATM   37  O   UNL     1     -12.476   9.539  72.014  1.00  0.00    -0.371 OA 
HETATM   38  H   UNL     1     -12.519  10.357  72.494  1.00  0.00     0.000 HD 
ENDBRANCH  33  36
ENDBRANCH  32  33
ENDBRANCH  31  32
ENDBRANCH  15  28
ENDBRANCH   5   8
BRANCH   6  39
HETATM   39  C   UNL     1      -6.151   4.330  65.232  1.00  0.00    -0.023 C  
HETATM   40  O   UNL     1      -6.055   3.181  66.067  1.00  0.00    -0.023 OA 
HETATM   41  H   UNL     1      -5.656   2.436  65.632  1.00  0.00     0.000 HD 
ENDBRANCH   6  39
ENDBRANCH   4   5
ENDBRANCH   3   4
TORSDOF 12
ENDMDL
MODEL       26
REMARK 921   NORMALIZED FREE ENERGY PREDICTED BY IDOCK:   -5.09 KCAL/MOL
REMARK 922        TOTAL FREE ENERGY PREDICTED BY IDOCK:   -8.94 KCAL/MOL
REMARK 923 INTER-LIGAND FREE ENERGY PREDICTED BY IDOCK:   -8.16 KCAL/MOL
REMARK 924 INTRA-LIGAND FREE ENERGY PREDICTED BY IDOCK:   -0.78 KCAL/MOL
REMARK 927      BINDING AFFINITY PREDICTED BY RF-SCORE:    0.00 PKD
ROOT
HETATM    1  O   UNL     1     -14.267   6.378  72.334  1.00  0.00    -0.647 OA 
HETATM    2  H   UNL     1     -15.044   6.655  72.805  1.00  0.00     0.000 HD 
HETATM    3  C   UNL     1     -13.735   7.441  71.557  1.00  0.00    -0.371 C  
ENDROOT
BRANCH   3   4
HETATM    4  C   UNL     1     -12.481   6.994  70.796  1.00  0.00    -0.203 C  
BRANCH   4   5
HETATM    5  N   UNL     1     -11.286   7.851  70.979  1.00  0.00    -0.271 N  
HETATM    6  C   UNL     1     -10.533   7.923  72.155  1.00  0.00    -0.249 C  
HETATM    7  O   UNL     1      -9.441   8.512  72.212  1.00  0.00    -0.262 OA 
BRANCH   5   8
HETATM    8  C   UNL     1     -10.748   8.493  69.806  1.00  0.00    -0.213 A  
HETATM    9  C   UNL     1     -11.062   9.846  69.496  1.00  0.00    -0.217 A  
HETATM   10  C   UNL     1      -9.956   7.749  68.899  1.00  0.00    -0.182 A  
HETATM   11  I   UNL     1     -12.223  10.996  70.938  1.00  0.00    -0.317 I  
HETATM   12  C   UNL     1     -10.570  10.472  68.316  1.00  0.00    -0.240 A  
HETATM   13  I   UNL     1      -9.911   5.588  69.071  1.00  0.00    -0.278 I  
HETATM   14  I   UNL     1      -8.509  10.774  65.965  1.00  0.00    -0.134 I  
HETATM   15  C   UNL     1      -9.309   8.390  67.820  1.00  0.00    -0.150 A  
HETATM   16  C   UNL     1      -9.617   9.758  67.536  1.00  0.00    -0.150 A  
BRANCH  12  17
HETATM   17  C   UNL     1     -11.226  11.754  67.861  1.00  0.00    -0.267 C  
HETATM   18  N   UNL     1     -10.819  12.949  68.404  1.00  0.00    -0.245 N  
HETATM   19  H   UNL     1     -10.158  12.943  69.181  1.00  0.00     0.000 HD 
HETATM   20  O   UNL     1     -12.100  11.713  67.001  1.00  0.00    -0.547 OA 
BRANCH  18  21
HETATM   21  C   UNL     1     -11.310  14.232  67.896  1.00  0.00    -0.297 C  
BRANCH  21  22
HETATM   22  C   UNL     1     -11.718  15.137  69.063  1.00  0.00    -0.335 C  
HETATM   23  O   UNL     1     -12.902  14.609  69.680  1.00  0.00    -0.564 OA 
HETATM   24  H   UNL     1     -13.156  15.170  70.404  1.00  0.00     0.000 HD 
BRANCH  22  25
HETATM   25  C   UNL     1     -10.600  15.298  70.102  1.00  0.00    -0.257 C  
HETATM   26  H   UNL     1      -8.626  15.333  70.122  1.00  0.00     0.000 HD 
HETATM   27  O   UNL     1      -9.317  15.234  69.479  1.00  0.00    -0.240 OA 
ENDBRANCH  22  25
ENDBRANCH  21  22
ENDBRANCH  18  21
ENDBRANCH  12  17
BRANCH  15  28
HETATM   28  C   UNL     1      -8.338   7.643  66.955  1.00  0.00    -0.124 C  
HETATM   29  O   UNL     1      -7.157   7.558  67.269  1.00  0.00    -0.080 OA 
HETATM   30  H   UNL     1      -9.817   7.119  65.561  1.00  0.00     0.000 HD 
HETATM   31  N   UNL     1      -8.829   7.048  65.802  1.00  0.00    -0.112 N  
BRANCH  31  32
HETATM   32  C   UNL     1      -7.903   6.321  64.942  1.00  0.00    -0.113 C  
BRANCH  32  33
HETATM   33  C   UNL     1      -8.519   5.065  64.312  1.00  0.00    -0.138 C  
HETATM   34  H   UNL     1      -7.908   3.611  63.133  1.00  0.00     0.000 HD 
HETATM   35  O   UNL     1      -7.527   4.389  63.523  1.00  0.00    -0.053 OA 
BRANCH  33  36
HETATM   36  C   UNL     1      -9.068   4.131  65.403  1.00  0.00    -0.139 C  
HETATM   37  O   UNL     1     -10.372   3.653  65.080  1.00  0.00    -0.404 OA 
HETATM   38  H   UNL     1     -10.711   3.076  65.754  1.00  0.00     0.000 HD 
ENDBRANCH  33  36
ENDBRANCH  32  33
ENDBRANCH  31  32
ENDBRANCH  15  28
ENDBRANCH   5   8
BRANCH   6  39
HETATM   39  C   UNL     1     -11.069   7.214  73.408  1.00  0.00    -0.124 C  
HETATM   40  O   UNL     1     -10.587   5.882  73.546  1.00  0.00    -0.239 OA 
HETATM   41  H   UNL     1     -10.919   5.443  74.322  1.00  0.00     0.000 HD 
ENDBRANCH   6  39
ENDBRANCH   4   5
ENDBRANCH   3   4
TORSDOF 12
ENDMDL
MODEL       27
REMARK 921   NORMALIZED FREE ENERGY PREDICTED BY IDOCK:   -5.07 KCAL/MOL
REMARK 922        TOTAL FREE ENERGY PREDICTED BY IDOCK:   -8.91 KCAL/MOL
REMARK 923 INTER-LIGAND FREE ENERGY PREDICTED BY IDOCK:   -8.21 KCAL/MOL
REMARK 924 INTRA-LIGAND FREE ENERGY PREDICTED BY IDOCK:   -0.70 KCAL/MOL
REMARK 927      BINDING AFFINITY PREDICTED BY RF-SCORE:    0.00 PKD
ROOT
HETATM    1  O   UNL     1      -8.231  17.339  65.698  1.00  0.00    -0.467 OA 
HETATM    2  H   UNL     1      -8.349  17.031  64.807  1.00  0.00     0.000 HD 
HETATM    3  C   UNL     1      -7.167  16.651  66.340  1.00  0.00    -0.133 C  
ENDROOT
BRANCH   3   4
HETATM    4  C   UNL     1      -6.977  17.147  67.779  1.00  0.00    -0.149 C  
BRANCH   4   5
HETATM    5  N   UNL     1      -6.952  16.092  68.817  1.00  0.00    -0.131 N  
HETATM    6  C   UNL     1      -6.258  16.184  70.028  1.00  0.00    -0.120 C  
HETATM    7  O   UNL     1      -6.406  15.360  70.945  1.00  0.00     0.211 OA 
BRANCH   5   8
HETATM    8  C   UNL     1      -7.867  14.988  68.660  1.00  0.00    -0.138 A  
HETATM    9  C   UNL     1      -7.410  13.706  68.244  1.00  0.00    -0.119 A  
HETATM   10  C   UNL     1      -9.255  15.195  68.842  1.00  0.00    -0.209 A  
HETATM   11  I   UNL     1      -5.265  13.387  68.036  1.00  0.00    -0.037 I  
HETATM   12  C   UNL     1      -8.314  12.624  68.044  1.00  0.00    -0.175 A  
HETATM   13  I   UNL     1     -10.010  17.225  68.948  1.00  0.00    -0.182 I  
HETATM   14  I   UNL     1     -11.022  11.115  68.550  1.00  0.00    -0.378 I  
HETATM   15  C   UNL     1     -10.150  14.103  68.827  1.00  0.00    -0.199 A  
HETATM   16  C   UNL     1      -9.670  12.815  68.431  1.00  0.00    -0.186 A  
BRANCH  12  17
HETATM   17  C   UNL     1      -7.831  11.427  67.260  1.00  0.00    -0.149 C  
HETATM   18  N   UNL     1      -7.944  11.428  65.890  1.00  0.00    -0.370 N  
HETATM   19  H   UNL     1      -8.448  12.188  65.433  1.00  0.00     0.000 HD 
HETATM   20  O   UNL     1      -7.330  10.478  67.854  1.00  0.00    -0.087 OA 
BRANCH  18  21
HETATM   21  C   UNL     1      -7.359  10.365  65.070  1.00  0.00    -0.070 C  
BRANCH  21  22
HETATM   22  C   UNL     1      -8.408   9.815  64.098  1.00  0.00    -0.168 C  
HETATM   23  O   UNL     1      -8.938   8.587  64.620  1.00  0.00    -0.420 OA 
HETATM   24  H   UNL     1      -9.589   8.245  64.018  1.00  0.00     0.000 HD 
BRANCH  22  25
HETATM   25  C   UNL     1      -9.541  10.814  63.827  1.00  0.00    -0.295 C  
HETATM   26  H   UNL     1     -11.410  11.087  64.405  1.00  0.00     0.000 HD 
HETATM   27  O   UNL     1     -10.709  10.469  64.573  1.00  0.00    -0.139 OA 
ENDBRANCH  22  25
ENDBRANCH  21  22
ENDBRANCH  18  21
ENDBRANCH  12  17
BRANCH  15  28
HETATM   28  C   UNL     1     -11.594  14.290  69.184  1.00  0.00    -0.305 C  
HETATM   29  O   UNL     1     -12.444  14.415  68.310  1.00  0.00    -0.085 OA 
HETATM   30  H   UNL     1     -11.210  14.189  71.245  1.00  0.00     0.000 HD 
HETATM   31  N   UNL     1     -11.928  14.305  70.530  1.00  0.00    -0.318 N  
BRANCH  31  32
HETATM   32  C   UNL     1     -13.326  14.491  70.902  1.00  0.00    -0.265 C  
BRANCH  32  33
HETATM   33  C   UNL     1     -13.583  14.315  72.404  1.00  0.00    -0.500 C  
HETATM   34  H   UNL     1     -13.672  12.811  73.673  1.00  0.00     0.000 HD 
HETATM   35  O   UNL     1     -13.513  12.921  72.742  1.00  0.00    -0.474 OA 
BRANCH  33  36
HETATM   36  C   UNL     1     -12.559  15.119  73.222  1.00  0.00    -0.499 C  
HETATM   37  O   UNL     1     -13.170  16.213  73.903  1.00  0.00    -0.894 OA 
HETATM   38  H   UNL     1     -12.538  16.710  74.408  1.00  0.00     0.000 HD 
ENDBRANCH  33  36
ENDBRANCH  32  33
ENDBRANCH  31  32
ENDBRANCH  15  28
ENDBRANCH   5   8
BRANCH   6  39
HETATM   39  C   UNL     1      -5.306  17.372  70.232  1.00  0.00    -0.244 C  
HETATM   40  O   UNL     1      -5.160  17.743  71.599  1.00  0.00    -0.519 OA 
HETATM   41  H   UNL     1      -4.571  18.478  71.726  1.00  0.00     0.000 HD 
ENDBRANCH   6  39
ENDBRANCH   4   5
ENDBRANCH   3   4
TORSDOF 12
ENDMDL
MODEL       28
REMARK 921   NORMALIZED FREE ENERGY PREDICTED BY IDOCK:   -5.05 KCAL/MOL
REMARK 922        TOTAL FREE ENERGY PREDICTED BY IDOCK:   -8.87 KCAL/MOL
REMARK 923 INTER-LIGAND FREE ENERGY PREDICTED BY IDOCK:   -8.33 KCAL/MOL
REMARK 924 INTRA-LIGAND FREE ENERGY PREDICTED BY IDOCK:   -0.54 KCAL/MOL
REMARK 927      BINDING AFFINITY PREDICTED BY RF-SCORE:    0.00 PKD
ROOT
HETATM    1  O   UNL     1     -12.394  13.503  63.111  1.00  0.00    -0.968 OA 
HETATM    2  H   UNL     1     -12.361  13.661  62.175  1.00  0.00     0.000 HD 
HETATM    3  C   UNL     1     -11.811  12.251  63.439  1.00  0.00    -0.473 C  
ENDROOT
BRANCH   3   4
HETATM    4  C   UNL     1     -11.864  11.995  64.950  1.00  0.00    -0.238 C  
BRANCH   4   5
HETATM    5  N   UNL     1     -10.565  12.081  65.656  1.00  0.00    -0.255 N  
HETATM    6  C   UNL     1      -9.866  13.268  65.894  1.00  0.00    -0.231 C  
HETATM    7  O   UNL     1      -8.876  13.321  66.641  1.00  0.00    -0.173 OA 
BRANCH   5   8
HETATM    8  C   UNL     1     -10.093  10.890  66.319  1.00  0.00    -0.233 A  
HETATM    9  C   UNL     1     -10.354  10.662  67.699  1.00  0.00    -0.209 A  
HETATM   10  C   UNL     1      -9.289   9.964  65.612  1.00  0.00    -0.214 A  
HETATM   11  I   UNL     1     -11.651  12.060  68.753  1.00  0.00    -0.386 I  
HETATM   12  C   UNL     1      -9.853   9.510  68.369  1.00  0.00    -0.175 A  
HETATM   13  I   UNL     1      -8.450  10.548  63.699  1.00  0.00     0.020 I  
HETATM   14  I   UNL     1      -8.800   6.552  68.434  1.00  0.00    -0.119 I  
HETATM   15  C   UNL     1      -8.933   8.731  66.198  1.00  0.00    -0.225 A  
HETATM   16  C   UNL     1      -9.223   8.507  67.581  1.00  0.00    -0.134 A  
BRANCH  12  17
HETATM   17  C   UNL     1      -9.842   9.512  69.880  1.00  0.00    -0.226 C  
HETATM   18  N   UNL     1     -10.914   8.987  70.562  1.00  0.00    -0.242 N  
HETATM   19  H   UNL     1     -11.745   8.704  70.042  1.00  0.00     0.000 HD 
HETATM   20  O   UNL     1      -8.871   9.964  70.476  1.00  0.00    -0.089 OA 
BRANCH  18  21
HETATM   21  C   UNL     1     -10.895   8.824  72.017  1.00  0.00    -0.358 C  
BRANCH  21  22
HETATM   22  C   UNL     1     -11.609   7.526  72.410  1.00  0.00    -0.309 C  
HETATM   23  O   UNL     1     -13.027   7.749  72.411  1.00  0.00    -0.512 OA 
HETATM   24  H   UNL     1     -13.470   6.944  72.655  1.00  0.00     0.000 HD 
BRANCH  22  25
HETATM   25  C   UNL     1     -11.252   6.356  71.483  1.00  0.00    -0.284 C  
HETATM   26  H   UNL     1     -11.851   5.643  69.741  1.00  0.00     0.000 HD 
HETATM   27  O   UNL     1     -12.072   6.368  70.314  1.00  0.00    -0.294 OA 
ENDBRANCH  22  25
ENDBRANCH  21  22
ENDBRANCH  18  21
ENDBRANCH  12  17
BRANCH  15  28
HETATM   28  C   UNL     1      -8.224   7.678  65.399  1.00  0.00    -0.136 C  
HETATM   29  O   UNL     1      -7.007   7.711  65.258  1.00  0.00    -0.056 OA 
HETATM   30  H   UNL     1     -10.004   6.648  64.976  1.00  0.00     0.000 HD 
HETATM   31  N   UNL     1      -8.993   6.668  64.840  1.00  0.00     0.378 N  
BRANCH  31  32
HETATM   32  C   UNL     1      -8.328   5.635  64.054  1.00  0.00    -0.065 C  
BRANCH  32  33
HETATM   33  C   UNL     1      -9.159   4.355  63.906  1.00  0.00    -0.138 C  
HETATM   34  H   UNL     1      -8.796   2.430  63.705  1.00  0.00     0.000 HD 
HETATM   35  O   UNL     1      -8.281   3.224  63.797  1.00  0.00    -0.088 OA 
BRANCH  33  36
HETATM   36  C   UNL     1     -10.108   4.188  65.105  1.00  0.00    -0.209 C  
HETATM   37  O   UNL     1     -11.473   4.338  64.722  1.00  0.00    -0.995 OA 
HETATM   38  H   UNL     1     -12.059   4.235  65.463  1.00  0.00     0.000 HD 
ENDBRANCH  33  36
ENDBRANCH  32  33
ENDBRANCH  31  32
ENDBRANCH  15  28
ENDBRANCH   5   8
BRANCH   6  39
HETATM   39  C   UNL     1     -10.372  14.557  65.228  1.00  0.00    -0.410 C  
HETATM   40  O   UNL     1     -11.305  15.272  66.031  1.00  0.00    -0.286 OA 
HETATM   41  H   UNL     1     -11.618  16.069  65.618  1.00  0.00     0.000 HD 
ENDBRANCH   6  39
ENDBRANCH   4   5
ENDBRANCH   3   4
TORSDOF 12
ENDMDL
MODEL       29
REMARK 921   NORMALIZED FREE ENERGY PREDICTED BY IDOCK:   -5.04 KCAL/MOL
REMARK 922        TOTAL FREE ENERGY PREDICTED BY IDOCK:   -8.85 KCAL/MOL
REMARK 923 INTER-LIGAND FREE ENERGY PREDICTED BY IDOCK:   -8.03 KCAL/MOL
REMARK 924 INTRA-LIGAND FREE ENERGY PREDICTED BY IDOCK:   -0.82 KCAL/MOL
REMARK 927      BINDING AFFINITY PREDICTED BY RF-SCORE:    0.00 PKD
ROOT
HETATM    1  O   UNL     1     -10.043   8.632  65.721  1.00  0.00    -0.406 OA 
HETATM    2  H   UNL     1      -9.941   7.802  65.271  1.00  0.00     0.000 HD 
HETATM    3  C   UNL     1      -8.956   9.503  65.444  1.00  0.00    -0.201 C  
ENDROOT
BRANCH   3   4
HETATM    4  C   UNL     1      -9.122  10.843  66.171  1.00  0.00    -0.183 C  
BRANCH   4   5
HETATM    5  N   UNL     1      -8.623  10.876  67.565  1.00  0.00    -0.126 N  
HETATM    6  C   UNL     1      -7.608  11.720  68.026  1.00  0.00    -0.116 C  
HETATM    7  O   UNL     1      -7.342  11.846  69.232  1.00  0.00    -0.036 OA 
BRANCH   5   8
HETATM    8  C   UNL     1      -9.372  10.139  68.553  1.00  0.00    -0.151 A  
HETATM    9  C   UNL     1      -8.937   8.861  69.004  1.00  0.00    -0.137 A  
HETATM   10  C   UNL     1     -10.602  10.652  69.028  1.00  0.00    -0.219 A  
HETATM   11  I   UNL     1      -7.008   8.119  68.315  1.00  0.00    -0.080 I  
HETATM   12  C   UNL     1      -9.696   8.109  69.946  1.00  0.00    -0.176 A  
HETATM   13  I   UNL     1     -11.527  12.307  67.976  1.00  0.00    -0.403 I  
HETATM   14  I   UNL     1     -11.782   7.843  72.279  1.00  0.00    -0.404 I  
HETATM   15  C   UNL     1     -11.280  10.016  70.090  1.00  0.00    -0.367 A  
HETATM   16  C   UNL     1     -10.817   8.743  70.550  1.00  0.00    -0.233 A  
BRANCH  12  17
HETATM   17  C   UNL     1      -9.389   6.638  70.097  1.00  0.00    -0.158 C  
HETATM   18  N   UNL     1      -9.822   5.756  69.136  1.00  0.00    -0.152 N  
HETATM   19  H   UNL     1     -10.435   6.092  68.393  1.00  0.00     0.000 HD 
HETATM   20  O   UNL     1      -8.742   6.252  71.066  1.00  0.00    -0.134 OA 
BRANCH  18  21
HETATM   21  C   UNL     1      -9.427   4.346  69.151  1.00  0.00    -0.170 C  
BRANCH  21  22
HETATM   22  C   UNL     1      -9.073   3.885  67.733  1.00  0.00    -0.150 C  
HETATM   23  O   UNL     1      -9.742   2.644  67.458  1.00  0.00    -0.381 OA 
HETATM   24  H   UNL     1      -9.523   2.358  66.580  1.00  0.00     0.000 HD 
BRANCH  22  25
HETATM   25  C   UNL     1      -9.429   4.931  66.668  1.00  0.00    -0.150 C  
HETATM   26  H   UNL     1     -11.061   5.784  65.954  1.00  0.00     0.000 HD 
HETATM   27  O   UNL     1     -10.841   5.137  66.613  1.00  0.00    -0.230 OA 
ENDBRANCH  22  25
ENDBRANCH  21  22
ENDBRANCH  18  21
ENDBRANCH  12  17
BRANCH  15  28
HETATM   28  C   UNL     1     -12.494  10.643  70.710  1.00  0.00    -0.385 C  
HETATM   29  O   UNL     1     -13.615  10.218  70.458  1.00  0.00    -0.069 OA 
HETATM   30  H   UNL     1     -11.356  12.040  71.787  1.00  0.00     0.000 HD 
HETATM   31  N   UNL     1     -12.297  11.706  71.579  1.00  0.00    -0.102 N  
BRANCH  31  32
HETATM   32  C   UNL     1     -13.462  12.335  72.190  1.00  0.00    -0.327 C  
BRANCH  32  33
HETATM   33  C   UNL     1     -13.412  13.867  72.157  1.00  0.00    -0.485 C  
HETATM   34  H   UNL     1     -12.576  15.294  73.226  1.00  0.00     0.000 HD 
HETATM   35  O   UNL     1     -12.608  14.345  73.247  1.00  0.00    -0.375 OA 
BRANCH  33  36
HETATM   36  C   UNL     1     -12.844  14.357  70.814  1.00  0.00    -0.353 C  
HETATM   37  O   UNL     1     -13.430  15.593  70.413  1.00  0.00    -0.804 OA 
HETATM   38  H   UNL     1     -13.080  15.896  69.584  1.00  0.00     0.000 HD 
ENDBRANCH  33  36
ENDBRANCH  32  33
ENDBRANCH  31  32
ENDBRANCH  15  28
ENDBRANCH   5   8
BRANCH   6  39
HETATM   39  C   UNL     1      -6.821  12.543  66.994  1.00  0.00     0.054 C  
HETATM   40  O   UNL     1      -5.788  11.800  66.355  1.00  0.00    -0.419 OA 
HETATM   41  H   UNL     1      -5.302  12.309  65.717  1.00  0.00     0.000 HD 
ENDBRANCH   6  39
ENDBRANCH   4   5
ENDBRANCH   3   4
TORSDOF 12
ENDMDL
MODEL       30
REMARK 921   NORMALIZED FREE ENERGY PREDICTED BY IDOCK:   -5.03 KCAL/MOL
REMARK 922        TOTAL FREE ENERGY PREDICTED BY IDOCK:   -8.83 KCAL/MOL
REMARK 923 INTER-LIGAND FREE ENERGY PREDICTED BY IDOCK:   -9.40 KCAL/MOL
REMARK 924 INTRA-LIGAND FREE ENERGY PREDICTED BY IDOCK:    0.57 KCAL/MOL
REMARK 927      BINDING AFFINITY PREDICTED BY RF-SCORE:    0.00 PKD
ROOT
HETATM    1  O   UNL     1      -7.043  11.774  66.168  1.00  0.00    -0.351 OA 
HETATM    2  H   UNL     1      -6.363  12.218  66.661  1.00  0.00     0.000 HD 
HETATM    3  C   UNL     1      -8.334  12.157  66.619  1.00  0.00    -0.051 C  
ENDROOT
BRANCH   3   4
HETATM    4  C   UNL     1      -9.432  11.440  65.823  1.00  0.00    -0.233 C  
BRANCH   4   5
HETATM    5  N   UNL     1     -10.797  11.993  65.983  1.00  0.00    -0.278 N  
HETATM    6  C   UNL     1     -11.759  12.040  64.970  1.00  0.00    -0.255 C  
HETATM    7  O   UNL     1     -12.943  12.343  65.189  1.00  0.00    -0.607 OA 
BRANCH   5   8
HETATM    8  C   UNL     1     -11.227  12.313  67.322  1.00  0.00    -0.300 A  
HETATM    9  C   UNL     1     -11.405  13.663  67.736  1.00  0.00    -0.306 A  
HETATM   10  C   UNL     1     -11.401  11.276  68.270  1.00  0.00    -0.289 A  
HETATM   11  I   UNL     1     -11.201  15.239  66.246  1.00  0.00     0.032 I  
HETATM   12  C   UNL     1     -11.786  13.986  69.069  1.00  0.00    -0.391 A  
HETATM   13  I   UNL     1     -10.632   9.300  67.820  1.00  0.00    -0.112 I  
HETATM   14  I   UNL     1     -13.126  13.323  71.831  1.00  0.00    -0.321 I  
HETATM   15  C   UNL     1     -11.951  11.553  69.540  1.00  0.00    -0.402 A  
HETATM   16  C   UNL     1     -12.147  12.915  69.934  1.00  0.00    -0.265 A  
BRANCH  12  17
HETATM   17  C   UNL     1     -11.597  15.409  69.540  1.00  0.00    -0.332 C  
HETATM   18  N   UNL     1     -10.356  15.992  69.443  1.00  0.00    -0.252 N  
HETATM   19  H   UNL     1      -9.560  15.422  69.156  1.00  0.00     0.000 HD 
HETATM   20  O   UNL     1     -12.556  16.030  69.985  1.00  0.00    -0.226 OA 
BRANCH  18  21
HETATM   21  C   UNL     1     -10.147  17.410  69.742  1.00  0.00     0.312 C  
BRANCH  21  22
HETATM   22  C   UNL     1      -9.070  17.987  68.817  1.00  0.00    -0.214 C  
HETATM   23  O   UNL     1      -8.501  16.927  68.034  1.00  0.00    -0.202 OA 
HETATM   24  H   UNL     1      -7.833  17.285  67.461  1.00  0.00     0.000 HD 
BRANCH  22  25
HETATM   25  C   UNL     1      -9.611  19.096  67.904  1.00  0.00    -0.325 C  
HETATM   26  H   UNL     1     -10.011  19.334  65.984  1.00  0.00     0.000 HD 
HETATM   27  O   UNL     1      -9.675  18.648  66.549  1.00  0.00    -0.322 OA 
ENDBRANCH  22  25
ENDBRANCH  21  22
ENDBRANCH  18  21
ENDBRANCH  12  17
BRANCH  15  28
HETATM   28  C   UNL     1     -12.292  10.441  70.487  1.00  0.00    -0.322 C  
HETATM   29  O   UNL     1     -13.448  10.049  70.601  1.00  0.00    -0.260 OA 
HETATM   30  H   UNL     1     -10.298  10.202  71.098  1.00  0.00     0.000 HD 
HETATM   31  N   UNL     1     -11.256   9.872  71.213  1.00  0.00    -0.344 N  
BRANCH  31  32
HETATM   32  C   UNL     1     -11.565   8.793  72.143  1.00  0.00    -0.364 C  
BRANCH  32  33
HETATM   33  C   UNL     1     -10.792   7.500  71.852  1.00  0.00    -0.227 C  
HETATM   34  H   UNL     1      -9.010   7.025  71.163  1.00  0.00     0.000 HD 
HETATM   35  O   UNL     1      -9.489   7.825  71.344  1.00  0.00    -0.147 OA 
BRANCH  33  36
HETATM   36  C   UNL     1     -10.676   6.645  73.124  1.00  0.00    -0.278 C  
HETATM   37  O   UNL     1     -11.660   5.613  73.157  1.00  0.00    -0.508 OA 
HETATM   38  H   UNL     1     -11.589   5.084  73.943  1.00  0.00     0.000 HD 
ENDBRANCH  33  36
ENDBRANCH  32  33
ENDBRANCH  31  32
ENDBRANCH  15  28
ENDBRANCH   5   8
BRANCH   6  39
HETATM   39  C   UNL     1     -11.332  11.667  63.542  1.00  0.00    -0.354 C  
HETATM   40  O   UNL     1     -12.420  11.253  62.723  1.00  0.00    -0.905 OA 
HETATM   41  H   UNL     1     -12.155  11.023  61.839  1.00  0.00     0.000 HD 
ENDBRANCH   6  39
ENDBRANCH   4   5
ENDBRANCH   3   4
TORSDOF 12
ENDMDL
MODEL       31
REMARK 921   NORMALIZED FREE ENERGY PREDICTED BY IDOCK:   -5.02 KCAL/MOL
REMARK 922        TOTAL FREE ENERGY PREDICTED BY IDOCK:   -8.82 KCAL/MOL
REMARK 923 INTER-LIGAND FREE ENERGY PREDICTED BY IDOCK:   -7.72 KCAL/MOL
REMARK 924 INTRA-LIGAND FREE ENERGY PREDICTED BY IDOCK:   -1.11 KCAL/MOL
REMARK 927      BINDING AFFINITY PREDICTED BY RF-SCORE:    0.00 PKD
ROOT
HETATM    1  O   UNL     1      -5.906  11.158  65.322  1.00  0.00    -0.420 OA 
HETATM    2  H   UNL     1      -5.711  11.596  64.501  1.00  0.00     0.000 HD 
HETATM    3  C   UNL     1      -6.457   9.869  65.095  1.00  0.00    -0.103 C  
ENDROOT
BRANCH   3   4
HETATM    4  C   UNL     1      -6.771   9.162  66.420  1.00  0.00    -0.071 C  
BRANCH   4   5
HETATM    5  N   UNL     1      -8.131   8.585  66.525  1.00  0.00    -0.102 N  
HETATM    6  C   UNL     1      -8.524   7.368  65.959  1.00  0.00    -0.148 C  
HETATM    7  O   UNL     1      -9.614   6.833  66.218  1.00  0.00    -0.134 OA 
BRANCH   5   8
HETATM    8  C   UNL     1      -9.048   9.217  67.441  1.00  0.00    -0.127 A  
HETATM    9  C   UNL     1      -9.878  10.296  67.026  1.00  0.00    -0.193 A  
HETATM   10  C   UNL     1      -9.073   8.815  68.798  1.00  0.00    -0.138 A  
HETATM   11  I   UNL     1      -9.877  10.854  64.920  1.00  0.00    -0.419 I  
HETATM   12  C   UNL     1     -10.752  10.953  67.938  1.00  0.00    -0.274 A  
HETATM   13  I   UNL     1      -7.470   7.566  69.554  1.00  0.00    -0.097 I  
HETATM   14  I   UNL     1     -12.497  11.066  70.547  1.00  0.00    -0.352 I  
HETATM   15  C   UNL     1     -10.054   9.322  69.677  1.00  0.00    -0.208 A  
HETATM   16  C   UNL     1     -10.897  10.392  69.238  1.00  0.00    -0.241 A  
BRANCH  12  17
HETATM   17  C   UNL     1     -11.314  12.299  67.544  1.00  0.00    -0.325 C  
HETATM   18  N   UNL     1     -10.594  13.437  67.822  1.00  0.00    -0.242 N  
HETATM   19  H   UNL     1      -9.746  13.364  68.384  1.00  0.00     0.000 HD 
HETATM   20  O   UNL     1     -12.394  12.357  66.966  1.00  0.00    -0.399 OA 
BRANCH  18  21
HETATM   21  C   UNL     1     -11.014  14.751  67.332  1.00  0.00    -0.313 C  
BRANCH  21  22
HETATM   22  C   UNL     1     -10.486  15.850  68.260  1.00  0.00    -0.257 C  
HETATM   23  O   UNL     1     -10.405  17.085  67.532  1.00  0.00    -0.310 OA 
HETATM   24  H   UNL     1     -10.077  17.767  68.107  1.00  0.00     0.000 HD 
BRANCH  22  25
HETATM   25  C   UNL     1     -11.350  16.026  69.516  1.00  0.00    -0.344 C  
HETATM   26  H   UNL     1     -12.668  14.965  70.536  1.00  0.00     0.000 HD 
HETATM   27  O   UNL     1     -12.133  14.857  69.758  1.00  0.00    -0.302 OA 
ENDBRANCH  22  25
ENDBRANCH  21  22
ENDBRANCH  18  21
ENDBRANCH  12  17
BRANCH  15  28
HETATM   28  C   UNL     1     -10.192   8.780  71.068  1.00  0.00    -0.237 C  
HETATM   29  O   UNL     1      -9.489   9.203  71.978  1.00  0.00    -0.323 OA 
HETATM   30  H   UNL     1     -11.732   7.463  70.518  1.00  0.00     0.000 HD 
HETATM   31  N   UNL     1     -11.147   7.796  71.283  1.00  0.00    -0.243 N  
BRANCH  31  32
HETATM   32  C   UNL     1     -11.297   7.249  72.627  1.00  0.00    -0.291 C  
BRANCH  32  33
HETATM   33  C   UNL     1     -10.641   5.874  72.799  1.00  0.00    -0.225 C  
HETATM   34  H   UNL     1      -9.713   4.578  71.642  1.00  0.00     0.000 HD 
HETATM   35  O   UNL     1     -10.120   5.430  71.536  1.00  0.00    -0.181 OA 
BRANCH  33  36
HETATM   36  C   UNL     1      -9.520   5.940  73.850  1.00  0.00    -0.140 C  
HETATM   37  O   UNL     1      -9.317   7.271  74.320  1.00  0.00    -0.337 OA 
HETATM   38  H   UNL     1      -8.625   7.312  74.970  1.00  0.00     0.000 HD 
ENDBRANCH  33  36
ENDBRANCH  32  33
ENDBRANCH  31  32
ENDBRANCH  15  28
ENDBRANCH   5   8
BRANCH   6  39
HETATM   39  C   UNL     1      -7.547   6.658  65.008  1.00  0.00    -0.099 C  
HETATM   40  O   UNL     1      -7.841   6.885  63.634  1.00  0.00    -0.120 OA 
HETATM   41  H   UNL     1      -7.237   6.446  63.046  1.00  0.00     0.000 HD 
ENDBRANCH   6  39
ENDBRANCH   4   5
ENDBRANCH   3   4
TORSDOF 12
ENDMDL
MODEL       32
REMARK 921   NORMALIZED FREE ENERGY PREDICTED BY IDOCK:   -5.00 KCAL/MOL
REMARK 922        TOTAL FREE ENERGY PREDICTED BY IDOCK:   -8.78 KCAL/MOL
REMARK 923 INTER-LIGAND FREE ENERGY PREDICTED BY IDOCK:   -7.67 KCAL/MOL
REMARK 924 INTRA-LIGAND FREE ENERGY PREDICTED BY IDOCK:   -1.11 KCAL/MOL
REMARK 927      BINDING AFFINITY PREDICTED BY RF-SCORE:    0.00 PKD
ROOT
HETATM    1  O   UNL     1      -7.797  13.179  69.084  1.00  0.00    -0.324 OA 
HETATM    2  H   UNL     1      -7.795  13.718  69.866  1.00  0.00     0.000 HD 
HETATM    3  C   UNL     1      -8.732  13.663  68.131  1.00  0.00    -0.177 C  
ENDROOT
BRANCH   3   4
HETATM    4  C   UNL     1      -8.735  12.792  66.868  1.00  0.00    -0.168 C  
BRANCH   4   5
HETATM    5  N   UNL     1      -9.814  11.780  66.796  1.00  0.00    -0.196 N  
HETATM    6  C   UNL     1     -10.979  11.913  66.034  1.00  0.00    -0.309 C  
HETATM    7  O   UNL     1     -11.771  10.974  65.859  1.00  0.00     0.153 OA 
BRANCH   5   8
HETATM    8  C   UNL     1      -9.552  10.491  67.386  1.00  0.00    -0.158 A  
HETATM    9  C   UNL     1      -8.917   9.456  66.644  1.00  0.00    -0.146 A  
HETATM   10  C   UNL     1     -10.000  10.215  68.700  1.00  0.00    -0.170 A  
HETATM   11  I   UNL     1      -8.171   9.919  64.650  1.00  0.00    -0.192 I  
HETATM   12  C   UNL     1      -8.695   8.167  67.206  1.00  0.00    -0.125 A  
HETATM   13  I   UNL     1     -11.413  11.570  69.634  1.00  0.00    -0.308 I  
HETATM   14  I   UNL     1      -8.293   6.206  69.626  1.00  0.00    -0.125 I  
HETATM   15  C   UNL     1      -9.636   9.013  69.344  1.00  0.00    -0.160 A  
HETATM   16  C   UNL     1      -8.976   7.991  68.590  1.00  0.00    -0.134 A  
BRANCH  12  17
HETATM   17  C   UNL     1      -8.369   7.027  66.271  1.00  0.00    -0.129 C  
HETATM   18  N   UNL     1      -9.390   6.257  65.764  1.00  0.00    -0.374 N  
HETATM   19  H   UNL     1     -10.339   6.399  66.111  1.00  0.00     0.000 HD 
HETATM   20  O   UNL     1      -7.201   6.814  65.962  1.00  0.00    -0.064 OA 
BRANCH  18  21
HETATM   21  C   UNL     1      -9.149   5.239  64.740  1.00  0.00     0.055 C  
BRANCH  21  22
HETATM   22  C   UNL     1     -10.226   4.151  64.819  1.00  0.00    -0.195 C  
HETATM   23  O   UNL     1     -11.417   4.705  65.399  1.00  0.00    -1.018 OA 
HETATM   24  H   UNL     1     -12.084   4.031  65.448  1.00  0.00     0.000 HD 
BRANCH  22  25
HETATM   25  C   UNL     1     -10.536   3.530  63.450  1.00  0.00    -0.255 C  
HETATM   26  H   UNL     1     -10.788   1.723  62.695  1.00  0.00     0.000 HD 
HETATM   27  O   UNL     1     -10.595   2.107  63.542  1.00  0.00    -0.170 OA 
ENDBRANCH  22  25
ENDBRANCH  21  22
ENDBRANCH  18  21
ENDBRANCH  12  17
BRANCH  15  28
HETATM   28  C   UNL     1      -9.966   8.786  70.789  1.00  0.00    -0.213 C  
HETATM   29  O   UNL     1      -9.147   9.039  71.665  1.00  0.00    -0.300 OA 
HETATM   30  H   UNL     1     -11.901   8.100  70.352  1.00  0.00     0.000 HD 
HETATM   31  N   UNL     1     -11.227   8.294  71.092  1.00  0.00    -0.252 N  
BRANCH  31  32
HETATM   32  C   UNL     1     -11.569   8.060  72.490  1.00  0.00    -0.403 C  
BRANCH  32  33
HETATM   33  C   UNL     1     -11.519   6.580  72.888  1.00  0.00    -0.064 C  
HETATM   34  H   UNL     1     -11.417   4.851  71.952  1.00  0.00     0.000 HD 
HETATM   35  O   UNL     1     -11.448   5.768  71.706  1.00  0.00    -0.236 OA 
BRANCH  33  36
HETATM   36  C   UNL     1     -10.312   6.309  73.802  1.00  0.00    -0.290 C  
HETATM   37  O   UNL     1      -9.705   7.520  74.247  1.00  0.00    -0.397 OA 
HETATM   38  H   UNL     1      -8.960   7.353  74.811  1.00  0.00     0.000 HD 
ENDBRANCH  33  36
ENDBRANCH  32  33
ENDBRANCH  31  32
ENDBRANCH  15  28
ENDBRANCH   5   8
BRANCH   6  39
HETATM   39  C   UNL     1     -11.261  13.268  65.366  1.00  0.00    -0.287 C  
HETATM   40  O   UNL     1     -12.634  13.455  65.039  1.00  0.00    -0.539 OA 
HETATM   41  H   UNL     1     -12.808  14.293  64.625  1.00  0.00     0.000 HD 
ENDBRANCH   6  39
ENDBRANCH   4   5
ENDBRANCH   3   4
TORSDOF 12
ENDMDL
MODEL       33
REMARK 921   NORMALIZED FREE ENERGY PREDICTED BY IDOCK:   -4.95 KCAL/MOL
REMARK 922        TOTAL FREE ENERGY PREDICTED BY IDOCK:   -8.70 KCAL/MOL
REMARK 923 INTER-LIGAND FREE ENERGY PREDICTED BY IDOCK:   -8.05 KCAL/MOL
REMARK 924 INTRA-LIGAND FREE ENERGY PREDICTED BY IDOCK:   -0.64 KCAL/MOL
REMARK 927      BINDING AFFINITY PREDICTED BY RF-SCORE:    0.00 PKD
ROOT
HETATM    1  O   UNL     1      -9.865   4.742  63.860  1.00  0.00    -0.359 OA 
HETATM    2  H   UNL     1     -10.051   3.821  64.002  1.00  0.00     0.000 HD 
HETATM    3  C   UNL     1      -8.511   5.044  64.163  1.00  0.00    -0.136 C  
ENDROOT
BRANCH   3   4
HETATM    4  C   UNL     1      -8.213   6.531  63.934  1.00  0.00     0.051 C  
BRANCH   4   5
HETATM    5  N   UNL     1      -7.491   7.211  65.035  1.00  0.00    -0.086 N  
HETATM    6  C   UNL     1      -6.127   7.515  65.022  1.00  0.00    -0.038 C  
HETATM    7  O   UNL     1      -5.597   8.241  65.879  1.00  0.00    -0.038 OA 
BRANCH   5   8
HETATM    8  C   UNL     1      -8.287   7.780  66.095  1.00  0.00    -0.129 A  
HETATM    9  C   UNL     1      -8.593   7.034  67.267  1.00  0.00    -0.121 A  
HETATM   10  C   UNL     1      -8.844   9.071  65.939  1.00  0.00    -0.175 A  
HETATM   11  I   UNL     1      -7.671   5.076  67.520  1.00  0.00    -0.091 I  
HETATM   12  C   UNL     1      -9.416   7.573  68.297  1.00  0.00    -0.146 A  
HETATM   13  I   UNL     1      -8.835   9.991  63.976  1.00  0.00    -0.304 I  
HETATM   14  I   UNL     1     -10.683   9.958  69.899  1.00  0.00    -0.387 I  
HETATM   15  C   UNL     1      -9.509   9.698  67.015  1.00  0.00    -0.195 A  
HETATM   16  C   UNL     1      -9.788   8.943  68.197  1.00  0.00    -0.167 A  
BRANCH  12  17
HETATM   17  C   UNL     1     -10.000   6.622  69.315  1.00  0.00    -0.158 C  
HETATM   18  N   UNL     1      -9.426   6.533  70.561  1.00  0.00    -0.165 N  
HETATM   19  H   UNL     1      -8.554   7.029  70.743  1.00  0.00     0.000 HD 
HETATM   20  O   UNL     1     -10.988   5.956  69.022  1.00  0.00    -0.324 OA 
BRANCH  18  21
HETATM   21  C   UNL     1     -10.036   5.745  71.634  1.00  0.00    -0.194 C  
BRANCH  21  22
HETATM   22  C   UNL     1     -11.146   6.554  72.313  1.00  0.00    -0.263 C  
HETATM   23  O   UNL     1     -12.201   5.667  72.714  1.00  0.00    -0.531 OA 
HETATM   24  H   UNL     1     -12.889   6.168  73.135  1.00  0.00     0.000 HD 
BRANCH  22  25
HETATM   25  C   UNL     1     -10.636   7.357  73.518  1.00  0.00    -0.338 C  
HETATM   26  H   UNL     1      -8.945   8.198  74.096  1.00  0.00     0.000 HD 
HETATM   27  O   UNL     1      -9.261   7.702  73.350  1.00  0.00    -0.204 OA 
ENDBRANCH  22  25
ENDBRANCH  21  22
ENDBRANCH  18  21
ENDBRANCH  12  17
BRANCH  15  28
HETATM   28  C   UNL     1      -9.955  11.127  66.913  1.00  0.00    -0.198 C  
HETATM   29  O   UNL     1      -9.174  12.044  67.139  1.00  0.00    -0.180 OA 
HETATM   30  H   UNL     1     -11.905  10.592  66.351  1.00  0.00     0.000 HD 
HETATM   31  N   UNL     1     -11.271  11.366  66.547  1.00  0.00    -0.268 N  
BRANCH  31  32
HETATM   32  C   UNL     1     -11.729  12.747  66.446  1.00  0.00    -0.403 C  
BRANCH  32  33
HETATM   33  C   UNL     1     -12.537  13.027  65.174  1.00  0.00    -0.469 C  
HETATM   34  H   UNL     1     -13.664  14.490  64.489  1.00  0.00     0.000 HD 
HETATM   35  O   UNL     1     -13.163  14.316  65.277  1.00  0.00    -0.704 OA 
BRANCH  33  36
HETATM   36  C   UNL     1     -11.627  12.968  63.935  1.00  0.00    -0.449 C  
HETATM   37  O   UNL     1     -12.294  13.442  62.768  1.00  0.00    -0.812 OA 
HETATM   38  H   UNL     1     -11.732  13.405  62.003  1.00  0.00     0.000 HD 
ENDBRANCH  33  36
ENDBRANCH  32  33
ENDBRANCH  31  32
ENDBRANCH  15  28
ENDBRANCH   5   8
BRANCH   6  39
HETATM   39  C   UNL     1      -5.266   6.951  63.881  1.00  0.00    -0.028 C  
HETATM   40  O   UNL     1      -5.555   7.541  62.618  1.00  0.00    -0.045 OA 
HETATM   41  H   UNL     1      -5.022   7.192  61.912  1.00  0.00     0.000 HD 
ENDBRANCH   6  39
ENDBRANCH   4   5
ENDBRANCH   3   4
TORSDOF 12
ENDMDL
MODEL       34
REMARK 921   NORMALIZED FREE ENERGY PREDICTED BY IDOCK:   -4.93 KCAL/MOL
REMARK 922        TOTAL FREE ENERGY PREDICTED BY IDOCK:   -8.67 KCAL/MOL
REMARK 923 INTER-LIGAND FREE ENERGY PREDICTED BY IDOCK:   -7.99 KCAL/MOL
REMARK 924 INTRA-LIGAND FREE ENERGY PREDICTED BY IDOCK:   -0.69 KCAL/MOL
REMARK 927      BINDING AFFINITY PREDICTED BY RF-SCORE:    0.00 PKD
ROOT
HETATM    1  O   UNL     1     -11.334   4.255  64.882  1.00  0.00    -0.996 OA 
HETATM    2  H   UNL     1     -12.179   4.004  65.237  1.00  0.00     0.000 HD 
HETATM    3  C   UNL     1     -10.387   4.473  65.917  1.00  0.00    -0.258 C  
ENDROOT
BRANCH   3   4
HETATM    4  C   UNL     1      -9.025   4.879  65.343  1.00  0.00    -0.151 C  
BRANCH   4   5
HETATM    5  N   UNL     1      -8.139   5.620  66.270  1.00  0.00    -0.105 N  
HETATM    6  C   UNL     1      -6.753   5.452  66.351  1.00  0.00    -0.057 C  
HETATM    7  O   UNL     1      -6.027   6.213  67.009  1.00  0.00    -0.016 OA 
BRANCH   5   8
HETATM    8  C   UNL     1      -8.715   6.730  66.988  1.00  0.00    -0.114 A  
HETATM    9  C   UNL     1      -9.224   6.570  68.308  1.00  0.00    -0.116 A  
HETATM   10  C   UNL     1      -8.853   7.985  66.348  1.00  0.00    -0.157 A  
HETATM   11  I   UNL     1      -8.940   4.653  69.303  1.00  0.00    -0.190 I  
HETATM   12  C   UNL     1      -9.834   7.652  69.004  1.00  0.00    -0.168 A  
HETATM   13  I   UNL     1      -8.581   8.104  64.200  1.00  0.00     0.645 I  
HETATM   14  I   UNL     1     -10.301  10.707  69.564  1.00  0.00    -0.022 I  
HETATM   15  C   UNL     1      -9.287   9.115  67.073  1.00  0.00    -0.188 A  
HETATM   16  C   UNL     1      -9.773   8.942  68.408  1.00  0.00    -0.161 A  
BRANCH  12  17
HETATM   17  C   UNL     1     -10.672   7.335  70.221  1.00  0.00    -0.236 C  
HETATM   18  N   UNL     1     -12.042   7.314  70.109  1.00  0.00    -0.519 N  
HETATM   19  H   UNL     1     -12.474   7.617  69.236  1.00  0.00     0.000 HD 
HETATM   20  O   UNL     1     -10.118   7.084  71.286  1.00  0.00    -0.191 OA 
BRANCH  18  21
HETATM   21  C   UNL     1     -12.896   6.868  71.211  1.00  0.00    -0.278 C  
BRANCH  21  22
HETATM   22  C   UNL     1     -13.274   8.059  72.098  1.00  0.00    -0.185 C  
HETATM   23  O   UNL     1     -12.232   8.280  73.062  1.00  0.00    -0.630 OA 
HETATM   24  H   UNL     1     -12.466   9.018  73.612  1.00  0.00     0.000 HD 
BRANCH  22  25
HETATM   25  C   UNL     1     -13.532   9.337  71.288  1.00  0.00    -0.249 C  
HETATM   26  H   UNL     1     -13.487  11.288  71.594  1.00  0.00     0.000 HD 
HETATM   27  O   UNL     1     -13.327  10.497  72.095  1.00  0.00    -0.437 OA 
ENDBRANCH  22  25
ENDBRANCH  21  22
ENDBRANCH  18  21
ENDBRANCH  12  17
BRANCH  15  28
HETATM   28  C   UNL     1      -9.277  10.478  66.448  1.00  0.00    -0.166 C  
HETATM   29  O   UNL     1      -8.274  11.181  66.494  1.00  0.00    -0.158 OA 
HETATM   30  H   UNL     1     -11.256  10.301  65.771  1.00  0.00     0.000 HD 
HETATM   31  N   UNL     1     -10.434  10.903  65.811  1.00  0.00    -0.236 N  
BRANCH  31  32
HETATM   32  C   UNL     1     -10.450  12.227  65.200  1.00  0.00    -0.288 C  
BRANCH  32  33
HETATM   33  C   UNL     1     -11.800  12.941  65.335  1.00  0.00    -0.403 C  
HETATM   34  H   UNL     1     -12.980  13.500  66.809  1.00  0.00     0.000 HD 
HETATM   35  O   UNL     1     -12.144  13.057  66.725  1.00  0.00    -0.380 OA 
BRANCH  33  36
HETATM   36  C   UNL     1     -11.742  14.329  64.676  1.00  0.00    -0.430 C  
HETATM   37  O   UNL     1     -12.433  14.351  63.430  1.00  0.00    -1.109 OA 
HETATM   38  H   UNL     1     -12.397  15.208  63.023  1.00  0.00     0.000 HD 
ENDBRANCH  33  36
ENDBRANCH  32  33
ENDBRANCH  31  32
ENDBRANCH  15  28
ENDBRANCH   5   8
BRANCH   6  39
HETATM   39  C   UNL     1      -6.113   4.298  65.565  1.00  0.00    -0.024 C  
HETATM   40  O   UNL     1      -5.611   4.698  64.293  1.00  0.00    -0.013 OA 
HETATM   41  H   UNL     1      -5.215   3.983  63.807  1.00  0.00     0.000 HD 
ENDBRANCH   6  39
ENDBRANCH   4   5
ENDBRANCH   3   4
TORSDOF 12
ENDMDL
MODEL       35
REMARK 921   NORMALIZED FREE ENERGY PREDICTED BY IDOCK:   -4.91 KCAL/MOL
REMARK 922        TOTAL FREE ENERGY PREDICTED BY IDOCK:   -8.63 KCAL/MOL
REMARK 923 INTER-LIGAND FREE ENERGY PREDICTED BY IDOCK:   -7.59 KCAL/MOL
REMARK 924 INTRA-LIGAND FREE ENERGY PREDICTED BY IDOCK:   -1.04 KCAL/MOL
REMARK 927      BINDING AFFINITY PREDICTED BY RF-SCORE:    0.00 PKD
ROOT
HETATM    1  O   UNL     1     -12.788  10.114  70.237  1.00  0.00    -0.559 OA 
HETATM    2  H   UNL     1     -13.080  10.993  70.449  1.00  0.00     0.000 HD 
HETATM    3  C   UNL     1     -11.376  10.064  70.091  1.00  0.00    -0.291 C  
ENDROOT
BRANCH   3   4
HETATM    4  C   UNL     1     -10.906   8.646  69.748  1.00  0.00    -0.183 C  
BRANCH   4   5
HETATM    5  N   UNL     1      -9.484   8.526  69.351  1.00  0.00    -0.161 N  
HETATM    6  C   UNL     1      -8.412   8.450  70.245  1.00  0.00    -0.126 C  
HETATM    7  O   UNL     1      -7.258   8.172  69.881  1.00  0.00    -0.058 OA 
BRANCH   5   8
HETATM    8  C   UNL     1      -9.206   8.264  67.959  1.00  0.00    -0.136 A  
HETATM    9  C   UNL     1      -8.960   9.325  67.044  1.00  0.00    -0.126 A  
HETATM   10  C   UNL     1      -9.256   6.936  67.472  1.00  0.00    -0.123 A  
HETATM   11  I   UNL     1      -8.819  11.355  67.824  1.00  0.00    -0.161 I  
HETATM   12  C   UNL     1      -8.730   9.075  65.662  1.00  0.00    -0.205 A  
HETATM   13  I   UNL     1     -10.138   5.393  68.713  1.00  0.00    -0.195 I  
HETATM   14  I   UNL     1      -7.834   7.258  63.262  1.00  0.00     0.029 I  
HETATM   15  C   UNL     1      -8.856   6.643  66.151  1.00  0.00    -0.160 A  
HETATM   16  C   UNL     1      -8.588   7.721  65.248  1.00  0.00    -0.042 A  
BRANCH  12  17
HETATM   17  C   UNL     1      -8.847  10.233  64.698  1.00  0.00    -0.199 C  
HETATM   18  N   UNL     1     -10.094  10.678  64.328  1.00  0.00    -0.346 N  
HETATM   19  H   UNL     1     -10.918  10.154  64.624  1.00  0.00     0.000 HD 
HETATM   20  O   UNL     1      -7.830  10.770  64.273  1.00  0.00     0.055 OA 
BRANCH  18  21
HETATM   21  C   UNL     1     -10.271  11.886  63.519  1.00  0.00    -0.457 C  
BRANCH  21  22
HETATM   22  C   UNL     1     -11.741  12.317  63.534  1.00  0.00    -0.499 C  
HETATM   23  O   UNL     1     -12.545  11.278  62.954  1.00  0.00    -0.917 OA 
HETATM   24  H   UNL     1     -13.456  11.546  62.963  1.00  0.00     0.000 HD 
BRANCH  22  25
HETATM   25  C   UNL     1     -12.241  12.655  64.946  1.00  0.00    -0.471 C  
HETATM   26  H   UNL     1     -13.328  14.061  65.807  1.00  0.00     0.000 HD 
HETATM   27  O   UNL     1     -13.018  13.852  64.934  1.00  0.00    -0.711 OA 
ENDBRANCH  22  25
ENDBRANCH  21  22
ENDBRANCH  18  21
ENDBRANCH  12  17
BRANCH  15  28
HETATM   28  C   UNL     1      -8.746   5.224  65.679  1.00  0.00    -0.146 C  
HETATM   29  O   UNL     1      -9.674   4.688  65.085  1.00  0.00    -0.162 OA 
HETATM   30  H   UNL     1      -6.791   5.016  66.415  1.00  0.00     0.000 HD 
HETATM   31  N   UNL     1      -7.559   4.552  65.930  1.00  0.00    -0.085 N  
BRANCH  31  32
HETATM   32  C   UNL     1      -7.430   3.169  65.485  1.00  0.00    -0.076 C  
BRANCH  32  33
HETATM   33  C   UNL     1      -7.437   2.158  66.638  1.00  0.00    -0.065 C  
HETATM   34  H   UNL     1      -6.881   2.140  68.527  1.00  0.00     0.000 HD 
HETATM   35  O   UNL     1      -6.877   2.766  67.813  1.00  0.00    -0.046 OA 
BRANCH  33  36
HETATM   36  C   UNL     1      -8.868   1.668  66.915  1.00  0.00    -0.118 C  
HETATM   37  O   UNL     1      -9.735   1.920  65.811  1.00  0.00    -0.321 OA 
HETATM   38  H   UNL     1     -10.619   1.618  65.982  1.00  0.00     0.000 HD 
ENDBRANCH  33  36
ENDBRANCH  32  33
ENDBRANCH  31  32
ENDBRANCH  15  28
ENDBRANCH   5   8
BRANCH   6  39
HETATM   39  C   UNL     1      -8.691   8.690  71.737  1.00  0.00    -0.197 C  
HETATM   40  O   UNL     1      -7.504   8.810  72.515  1.00  0.00    -0.335 OA 
HETATM   41  H   UNL     1      -7.677   8.958  73.438  1.00  0.00     0.000 HD 
ENDBRANCH   6  39
ENDBRANCH   4   5
ENDBRANCH   3   4
TORSDOF 12
ENDMDL
MODEL       36
REMARK 921   NORMALIZED FREE ENERGY PREDICTED BY IDOCK:   -4.91 KCAL/MOL
REMARK 922        TOTAL FREE ENERGY PREDICTED BY IDOCK:   -8.63 KCAL/MOL
REMARK 923 INTER-LIGAND FREE ENERGY PREDICTED BY IDOCK:   -7.71 KCAL/MOL
REMARK 924 INTRA-LIGAND FREE ENERGY PREDICTED BY IDOCK:   -0.92 KCAL/MOL
REMARK 927      BINDING AFFINITY PREDICTED BY RF-SCORE:    0.00 PKD
ROOT
HETATM    1  O   UNL     1     -14.341   6.940  72.173  1.00  0.00    -0.624 OA 
HETATM    2  H   UNL     1     -15.128   7.303  72.563  1.00  0.00     0.000 HD 
HETATM    3  C   UNL     1     -13.804   7.816  71.193  1.00  0.00    -0.111 C  
ENDROOT
BRANCH   3   4
HETATM    4  C   UNL     1     -12.535   7.231  70.564  1.00  0.00     0.050 C  
BRANCH   4   5
HETATM    5  N   UNL     1     -11.342   8.108  70.604  1.00  0.00    -0.267 N  
HETATM    6  C   UNL     1     -10.530   8.294  71.727  1.00  0.00    -0.259 C  
HETATM    7  O   UNL     1      -9.443   8.892  71.673  1.00  0.00    -0.273 OA 
BRANCH   5   8
HETATM    8  C   UNL     1     -10.870   8.641  69.350  1.00  0.00    -0.095 A  
HETATM    9  C   UNL     1     -10.051   7.867  68.481  1.00  0.00    -0.197 A  
HETATM   10  C   UNL     1     -11.158   9.983  69.006  1.00  0.00    -0.180 A  
HETATM   11  I   UNL     1      -9.678   5.782  68.993  1.00  0.00    -0.236 I  
HETATM   12  C   UNL     1      -9.546   8.403  67.263  1.00  0.00    -0.215 A  
HETATM   13  I   UNL     1     -11.933  11.317  70.530  1.00  0.00    -0.218 I  
HETATM   14  I   UNL     1      -9.636  10.399  64.839  1.00  0.00    -0.413 I  
HETATM   15  C   UNL     1     -10.825  10.482  67.728  1.00  0.00    -0.347 A  
HETATM   16  C   UNL     1     -10.020   9.682  66.855  1.00  0.00    -0.212 A  
BRANCH  12  17
HETATM   17  C   UNL     1      -8.404   7.683  66.585  1.00  0.00    -0.127 C  
HETATM   18  N   UNL     1      -8.671   6.828  65.542  1.00  0.00    -0.323 N  
HETATM   19  H   UNL     1      -9.641   6.611  65.313  1.00  0.00     0.000 HD 
HETATM   20  O   UNL     1      -7.255   7.884  66.962  1.00  0.00    -0.085 OA 
BRANCH  18  21
HETATM   21  C   UNL     1      -7.598   6.221  64.752  1.00  0.00    -0.093 C  
BRANCH  21  22
HETATM   22  C   UNL     1      -7.673   4.694  64.851  1.00  0.00    -0.078 C  
HETATM   23  O   UNL     1      -6.941   4.258  66.008  1.00  0.00    -0.063 OA 
HETATM   24  H   UNL     1      -6.988   3.311  66.069  1.00  0.00     0.000 HD 
BRANCH  22  25
HETATM   25  C   UNL     1      -9.118   4.178  64.907  1.00  0.00    -0.144 C  
HETATM   26  H   UNL     1     -10.674   4.074  63.696  1.00  0.00     0.000 HD 
HETATM   27  O   UNL     1      -9.780   4.393  63.661  1.00  0.00    -0.106 OA 
ENDBRANCH  22  25
ENDBRANCH  21  22
ENDBRANCH  18  21
ENDBRANCH  12  17
BRANCH  15  28
HETATM   28  C   UNL     1     -11.272  11.847  67.296  1.00  0.00    -0.317 C  
HETATM   29  O   UNL     1     -12.351  12.004  66.737  1.00  0.00    -0.340 OA 
HETATM   30  H   UNL     1      -9.538  12.769  68.039  1.00  0.00     0.000 HD 
HETATM   31  N   UNL     1     -10.428  12.915  67.562  1.00  0.00    -0.222 N  
BRANCH  31  32
HETATM   32  C   UNL     1     -10.839  14.251  67.147  1.00  0.00    -0.296 C  
BRANCH  32  33
HETATM   33  C   UNL     1     -10.559  15.328  68.203  1.00  0.00    -0.254 C  
HETATM   34  H   UNL     1     -11.627  16.460  69.408  1.00  0.00     0.000 HD 
HETATM   35  O   UNL     1     -11.800  15.794  68.754  1.00  0.00    -0.387 OA 
BRANCH  33  36
HETATM   36  C   UNL     1      -9.652  14.769  69.313  1.00  0.00    -0.076 C  
HETATM   37  O   UNL     1     -10.235  14.936  70.603  1.00  0.00    -0.415 OA 
HETATM   38  H   UNL     1      -9.675  14.591  71.289  1.00  0.00     0.000 HD 
ENDBRANCH  33  36
ENDBRANCH  32  33
ENDBRANCH  31  32
ENDBRANCH  15  28
ENDBRANCH   5   8
BRANCH   6  39
HETATM   39  C   UNL     1     -10.994   7.702  73.067  1.00  0.00    -0.400 C  
HETATM   40  O   UNL     1      -9.919   7.423  73.958  1.00  0.00    -0.394 OA 
HETATM   41  H   UNL     1     -10.206   7.057  74.787  1.00  0.00     0.000 HD 
ENDBRANCH   6  39
ENDBRANCH   4   5
ENDBRANCH   3   4
TORSDOF 12
ENDMDL
MODEL       37
REMARK 921   NORMALIZED FREE ENERGY PREDICTED BY IDOCK:   -4.91 KCAL/MOL
REMARK 922        TOTAL FREE ENERGY PREDICTED BY IDOCK:   -8.63 KCAL/MOL
REMARK 923 INTER-LIGAND FREE ENERGY PREDICTED BY IDOCK:   -7.97 KCAL/MOL
REMARK 924 INTRA-LIGAND FREE ENERGY PREDICTED BY IDOCK:   -0.66 KCAL/MOL
REMARK 927      BINDING AFFINITY PREDICTED BY RF-SCORE:    0.00 PKD
ROOT
HETATM    1  O   UNL     1      -8.251   6.378  65.272  1.00  0.00    -0.132 OA 
HETATM    2  H   UNL     1      -8.444   5.469  65.469  1.00  0.00     0.000 HD 
HETATM    3  C   UNL     1      -7.803   7.068  66.429  1.00  0.00    -0.106 C  
ENDROOT
BRANCH   3   4
HETATM    4  C   UNL     1      -7.493   8.536  66.112  1.00  0.00    -0.089 C  
BRANCH   4   5
HETATM    5  N   UNL     1      -7.278   9.410  67.288  1.00  0.00    -0.086 N  
HETATM    6  C   UNL     1      -6.284  10.389  67.381  1.00  0.00    -0.057 C  
HETATM    7  O   UNL     1      -6.249  11.218  68.304  1.00  0.00    -0.046 OA 
BRANCH   5   8
HETATM    8  C   UNL     1      -8.286   9.389  68.319  1.00  0.00    -0.119 A  
HETATM    9  C   UNL     1      -9.464  10.181  68.214  1.00  0.00    -0.140 A  
HETATM   10  C   UNL     1      -8.072   8.632  69.496  1.00  0.00    -0.110 A  
HETATM   11  I   UNL     1      -9.810  11.284  66.368  1.00  0.00    -0.285 I  
HETATM   12  C   UNL     1     -10.442  10.199  69.249  1.00  0.00    -0.246 A  
HETATM   13  I   UNL     1      -6.087   7.861  69.903  1.00  0.00    -0.025 I  
HETATM   14  I   UNL     1     -11.922   8.940  71.717  1.00  0.00    -0.461 I  
HETATM   15  C   UNL     1      -9.100   8.489  70.452  1.00  0.00    -0.164 A  
HETATM   16  C   UNL     1     -10.289   9.274  70.320  1.00  0.00    -0.229 A  
BRANCH  12  17
HETATM   17  C   UNL     1     -11.458  11.316  69.251  1.00  0.00    -0.301 C  
HETATM   18  N   UNL     1     -11.189  12.471  69.946  1.00  0.00    -0.480 N  
HETATM   19  H   UNL     1     -10.357  12.515  70.535  1.00  0.00     0.000 HD 
HETATM   20  O   UNL     1     -12.502  11.184  68.620  1.00  0.00    -0.463 OA 
BRANCH  18  21
HETATM   21  C   UNL     1     -12.065  13.641  69.861  1.00  0.00    -0.341 C  
BRANCH  21  22
HETATM   22  C   UNL     1     -12.183  14.309  71.236  1.00  0.00    -0.350 C  
HETATM   23  O   UNL     1     -10.960  15.001  71.532  1.00  0.00    -0.571 OA 
HETATM   24  H   UNL     1     -11.033  15.414  72.384  1.00  0.00     0.000 HD 
BRANCH  22  25
HETATM   25  C   UNL     1     -13.376  15.271  71.322  1.00  0.00    -0.510 C  
HETATM   26  H   UNL     1     -14.573  15.983  72.722  1.00  0.00     0.000 HD 
HETATM   27  O   UNL     1     -13.835  15.388  72.669  1.00  0.00    -0.508 OA 
ENDBRANCH  22  25
ENDBRANCH  21  22
ENDBRANCH  18  21
ENDBRANCH  12  17
BRANCH  15  28
HETATM   28  C   UNL     1      -8.941   7.557  71.616  1.00  0.00    -0.123 C  
HETATM   29  O   UNL     1      -8.574   7.975  72.708  1.00  0.00    -0.155 OA 
HETATM   30  H   UNL     1      -9.548   5.886  70.500  1.00  0.00     0.000 HD 
HETATM   31  N   UNL     1      -9.233   6.216  71.412  1.00  0.00    -0.143 N  
BRANCH  31  32
HETATM   32  C   UNL     1      -9.081   5.289  72.527  1.00  0.00    -0.136 C  
BRANCH  32  33
HETATM   33  C   UNL     1     -10.013   4.075  72.438  1.00  0.00    -0.164 C  
HETATM   34  H   UNL     1      -9.858   2.131  72.715  1.00  0.00     0.000 HD 
HETATM   35  O   UNL     1      -9.281   2.884  72.769  1.00  0.00    -0.085 OA 
BRANCH  33  36
HETATM   36  C   UNL     1     -11.214   4.249  73.382  1.00  0.00    -0.268 C  
HETATM   37  O   UNL     1     -12.062   5.316  72.965  1.00  0.00    -0.528 OA 
HETATM   38  H   UNL     1     -12.804   5.424  73.548  1.00  0.00     0.000 HD 
ENDBRANCH  33  36
ENDBRANCH  32  33
ENDBRANCH  31  32
ENDBRANCH  15  28
ENDBRANCH   5   8
BRANCH   6  39
HETATM   39  C   UNL     1      -5.221  10.454  66.274  1.00  0.00    -0.054 C  
HETATM   40  O   UNL     1      -5.569  11.339  65.214  1.00  0.00    -0.493 OA 
HETATM   41  H   UNL     1      -4.911  11.378  64.530  1.00  0.00     0.000 HD 
ENDBRANCH   6  39
ENDBRANCH   4   5
ENDBRANCH   3   4
TORSDOF 12
ENDMDL
MODEL       38
REMARK 921   NORMALIZED FREE ENERGY PREDICTED BY IDOCK:   -4.90 KCAL/MOL
REMARK 922        TOTAL FREE ENERGY PREDICTED BY IDOCK:   -8.61 KCAL/MOL
REMARK 923 INTER-LIGAND FREE ENERGY PREDICTED BY IDOCK:   -7.81 KCAL/MOL
REMARK 924 INTRA-LIGAND FREE ENERGY PREDICTED BY IDOCK:   -0.80 KCAL/MOL
REMARK 927      BINDING AFFINITY PREDICTED BY RF-SCORE:    0.00 PKD
ROOT
HETATM    1  O   UNL     1      -7.138  13.809  69.413  1.00  0.00    -0.269 OA 
HETATM    2  H   UNL     1      -7.333  14.732  69.299  1.00  0.00     0.000 HD 
HETATM    3  C   UNL     1      -6.387  13.305  68.317  1.00  0.00    -0.099 C  
ENDROOT
BRANCH   3   4
HETATM    4  C   UNL     1      -6.073  11.816  68.501  1.00  0.00    -0.050 C  
BRANCH   4   5
HETATM    5  N   UNL     1      -7.082  10.880  67.954  1.00  0.00    -0.080 N  
HETATM    6  C   UNL     1      -6.926  10.142  66.777  1.00  0.00    -0.091 C  
HETATM    7  O   UNL     1      -7.712   9.240  66.447  1.00  0.00    -0.092 OA 
BRANCH   5   8
HETATM    8  C   UNL     1      -8.208  10.556  68.796  1.00  0.00    -0.134 A  
HETATM    9  C   UNL     1      -9.469  11.190  68.617  1.00  0.00    -0.193 A  
HETATM   10  C   UNL     1      -8.042   9.652  69.872  1.00  0.00    -0.171 A  
HETATM   11  I   UNL     1      -9.725  12.525  66.914  1.00  0.00    -0.256 I  
HETATM   12  C   UNL     1     -10.571  10.907  69.473  1.00  0.00    -0.217 A  
HETATM   13  I   UNL     1      -6.035   9.097  70.479  1.00  0.00    -0.059 I  
HETATM   14  I   UNL     1     -12.161   9.074  71.466  1.00  0.00    -0.456 I  
HETATM   15  C   UNL     1      -9.156   9.218  70.621  1.00  0.00    -0.309 A  
HETATM   16  C   UNL     1     -10.424   9.847  70.412  1.00  0.00    -0.285 A  
BRANCH  12  17
HETATM   17  C   UNL     1     -11.740  11.863  69.471  1.00  0.00    -0.345 C  
HETATM   18  N   UNL     1     -11.731  12.942  70.322  1.00  0.00    -0.544 N  
HETATM   19  H   UNL     1     -10.987  13.021  71.016  1.00  0.00     0.000 HD 
HETATM   20  O   UNL     1     -12.674  11.673  68.698  1.00  0.00     0.140 OA 
BRANCH  18  21
HETATM   21  C   UNL     1     -12.761  13.980  70.259  1.00  0.00    -0.210 C  
BRANCH  21  22
HETATM   22  C   UNL     1     -13.064  14.505  71.666  1.00  0.00    -0.343 C  
HETATM   23  O   UNL     1     -13.462  13.409  72.504  1.00  0.00    -0.558 OA 
HETATM   24  H   UNL     1     -13.651  13.734  73.376  1.00  0.00     0.000 HD 
BRANCH  22  25
HETATM   25  C   UNL     1     -11.873  15.248  72.287  1.00  0.00    -0.437 C  
HETATM   26  H   UNL     1     -10.989  17.003  72.090  1.00  0.00     0.000 HD 
HETATM   27  O   UNL     1     -11.726  16.543  71.705  1.00  0.00    -0.435 OA 
ENDBRANCH  22  25
ENDBRANCH  21  22
ENDBRANCH  18  21
ENDBRANCH  12  17
BRANCH  15  28
HETATM   28  C   UNL     1      -9.015   8.136  71.651  1.00  0.00    -0.163 C  
HETATM   29  O   UNL     1      -8.849   8.415  72.832  1.00  0.00    -0.235 OA 
HETATM   30  H   UNL     1      -9.241   6.606  70.232  1.00  0.00     0.000 HD 
HETATM   31  N   UNL     1      -9.091   6.821  71.217  1.00  0.00    -0.150 N  
BRANCH  31  32
HETATM   32  C   UNL     1      -8.951   5.752  72.199  1.00  0.00    -0.136 C  
BRANCH  32  33
HETATM   33  C   UNL     1     -10.068   4.704  72.119  1.00  0.00    -0.193 C  
HETATM   34  H   UNL     1     -10.186   2.738  72.111  1.00  0.00     0.000 HD 
HETATM   35  O   UNL     1      -9.494   3.388  72.161  1.00  0.00    -0.112 OA 
BRANCH  33  36
HETATM   36  C   UNL     1     -11.067   4.893  73.272  1.00  0.00    -0.337 C  
HETATM   37  O   UNL     1     -12.222   5.619  72.855  1.00  0.00    -0.548 OA 
HETATM   38  H   UNL     1     -12.839   5.737  73.568  1.00  0.00     0.000 HD 
ENDBRANCH  33  36
ENDBRANCH  32  33
ENDBRANCH  31  32
ENDBRANCH  15  28
ENDBRANCH   5   8
BRANCH   6  39
HETATM   39  C   UNL     1      -5.714  10.445  65.883  1.00  0.00    -0.097 C  
HETATM   40  O   UNL     1      -6.073  11.024  64.632  1.00  0.00    -0.348 OA 
HETATM   41  H   UNL     1      -5.323  11.211  64.079  1.00  0.00     0.000 HD 
ENDBRANCH   6  39
ENDBRANCH   4   5
ENDBRANCH   3   4
TORSDOF 12
ENDMDL
MODEL       39
REMARK 921   NORMALIZED FREE ENERGY PREDICTED BY IDOCK:   -4.90 KCAL/MOL
REMARK 922        TOTAL FREE ENERGY PREDICTED BY IDOCK:   -8.61 KCAL/MOL
REMARK 923 INTER-LIGAND FREE ENERGY PREDICTED BY IDOCK:   -8.16 KCAL/MOL
REMARK 924 INTRA-LIGAND FREE ENERGY PREDICTED BY IDOCK:   -0.44 KCAL/MOL
REMARK 927      BINDING AFFINITY PREDICTED BY RF-SCORE:    0.00 PKD
ROOT
HETATM    1  O   UNL     1     -11.365  11.729  62.925  1.00  0.00    -0.639 OA 
HETATM    2  H   UNL     1     -11.240  10.859  62.567  1.00  0.00     0.000 HD 
HETATM    3  C   UNL     1     -10.210  12.165  63.627  1.00  0.00    -0.433 C  
ENDROOT
BRANCH   3   4
HETATM    4  C   UNL     1     -10.413  13.571  64.205  1.00  0.00    -0.237 C  
BRANCH   4   5
HETATM    5  N   UNL     1     -10.707  13.625  65.656  1.00  0.00    -0.278 N  
HETATM    6  C   UNL     1     -11.984  13.508  66.213  1.00  0.00    -0.413 C  
HETATM    7  O   UNL     1     -12.170  13.379  67.433  1.00  0.00    -0.326 OA 
BRANCH   5   8
HETATM    8  C   UNL     1      -9.584  13.589  66.560  1.00  0.00    -0.277 A  
HETATM    9  C   UNL     1      -8.862  14.771  66.886  1.00  0.00    -0.248 A  
HETATM   10  C   UNL     1      -9.136  12.349  67.074  1.00  0.00    -0.207 A  
HETATM   11  I   UNL     1      -9.606  16.679  66.142  1.00  0.00    -0.215 I  
HETATM   12  C   UNL     1      -7.725  14.734  67.742  1.00  0.00    -0.170 A  
HETATM   13  I   UNL     1      -9.874  10.514  66.185  1.00  0.00    -0.307 I  
HETATM   14  I   UNL     1      -5.983  13.455  70.021  1.00  0.00    -0.044 I  
HETATM   15  C   UNL     1      -8.130  12.305  68.063  1.00  0.00    -0.156 A  
HETATM   16  C   UNL     1      -7.429  13.506  68.398  1.00  0.00    -0.124 A  
BRANCH  12  17
HETATM   17  C   UNL     1      -6.798  15.927  67.749  1.00  0.00    -0.153 C  
HETATM   18  N   UNL     1      -6.914  16.865  68.748  1.00  0.00    -0.192 N  
HETATM   19  H   UNL     1      -7.691  16.797  69.406  1.00  0.00     0.000 HD 
HETATM   20  O   UNL     1      -5.945  16.034  66.875  1.00  0.00    -0.323 OA 
BRANCH  18  21
HETATM   21  C   UNL     1      -5.950  17.957  68.893  1.00  0.00    -0.202 C  
BRANCH  21  22
HETATM   22  C   UNL     1      -6.666  19.230  69.357  1.00  0.00    -0.304 C  
HETATM   23  O   UNL     1      -5.725  20.314  69.398  1.00  0.00    -0.262 OA 
HETATM   24  H   UNL     1      -6.168  21.103  69.686  1.00  0.00     0.000 HD 
BRANCH  22  25
HETATM   25  C   UNL     1      -7.860  19.593  68.463  1.00  0.00    -0.323 C  
HETATM   26  H   UNL     1      -9.826  19.418  68.519  1.00  0.00     0.000 HD 
HETATM   27  O   UNL     1      -9.088  19.193  69.072  1.00  0.00    -0.326 OA 
ENDBRANCH  22  25
ENDBRANCH  21  22
ENDBRANCH  18  21
ENDBRANCH  12  17
BRANCH  15  28
HETATM   28  C   UNL     1      -7.768  11.012  68.732  1.00  0.00    -0.135 C  
HETATM   29  O   UNL     1      -6.781  10.378  68.376  1.00  0.00    -0.059 OA 
HETATM   30  H   UNL     1      -9.391  11.119  70.059  1.00  0.00     0.000 HD 
HETATM   31  N   UNL     1      -8.580  10.574  69.767  1.00  0.00     0.025 N  
BRANCH  31  32
HETATM   32  C   UNL     1      -8.251   9.317  70.430  1.00  0.00    -0.178 C  
BRANCH  32  33
HETATM   33  C   UNL     1      -9.443   8.684  71.158  1.00  0.00    -0.215 C  
HETATM   34  H   UNL     1      -9.950   8.324  73.026  1.00  0.00     0.000 HD 
HETATM   35  O   UNL     1      -9.212   8.716  72.575  1.00  0.00    -0.293 OA 
BRANCH  33  36
HETATM   36  C   UNL     1     -10.743   9.428  70.807  1.00  0.00    -0.305 C  
HETATM   37  O   UNL     1     -11.683   9.380  71.878  1.00  0.00    -0.374 OA 
HETATM   38  H   UNL     1     -12.486   9.839  71.661  1.00  0.00     0.000 HD 
ENDBRANCH  33  36
ENDBRANCH  32  33
ENDBRANCH  31  32
ENDBRANCH  15  28
ENDBRANCH   5   8
BRANCH   6  39
HETATM   39  C   UNL     1     -13.194  13.508  65.266  1.00  0.00     0.149 C  
HETATM   40  O   UNL     1     -13.459  12.229  64.698  1.00  0.00    -0.620 OA 
HETATM   41  H   UNL     1     -14.207  12.229  64.112  1.00  0.00     0.000 HD 
ENDBRANCH   6  39
ENDBRANCH   4   5
ENDBRANCH   3   4
TORSDOF 12
ENDMDL
MODEL       40
REMARK 921   NORMALIZED FREE ENERGY PREDICTED BY IDOCK:   -4.84 KCAL/MOL
REMARK 922        TOTAL FREE ENERGY PREDICTED BY IDOCK:   -8.51 KCAL/MOL
REMARK 923 INTER-LIGAND FREE ENERGY PREDICTED BY IDOCK:   -7.48 KCAL/MOL
REMARK 924 INTRA-LIGAND FREE ENERGY PREDICTED BY IDOCK:   -1.02 KCAL/MOL
REMARK 927      BINDING AFFINITY PREDICTED BY RF-SCORE:    0.00 PKD
ROOT
HETATM    1  O   UNL     1      -9.323   5.070  64.522  1.00  0.00    -0.347 OA 
HETATM    2  H   UNL     1      -9.402   4.146  64.728  1.00  0.00     0.000 HD 
HETATM    3  C   UNL     1      -8.661   5.773  65.563  1.00  0.00    -0.138 C  
ENDROOT
BRANCH   3   4
HETATM    4  C   UNL     1      -8.534   7.264  65.229  1.00  0.00    -0.057 C  
BRANCH   4   5
HETATM    5  N   UNL     1      -8.015   8.118  66.322  1.00  0.00    -0.098 N  
HETATM    6  C   UNL     1      -6.672   8.475  66.482  1.00  0.00    -0.067 C  
HETATM    7  O   UNL     1      -6.304   9.333  67.300  1.00  0.00    -0.058 OA 
BRANCH   5   8
HETATM    8  C   UNL     1      -8.983   8.791  67.152  1.00  0.00    -0.131 A  
HETATM    9  C   UNL     1      -9.365   8.262  68.417  1.00  0.00    -0.135 A  
HETATM   10  C   UNL     1      -9.629   9.956  66.673  1.00  0.00    -0.184 A  
HETATM   11  I   UNL     1      -8.311   6.509  69.167  1.00  0.00    -0.118 I  
HETATM   12  C   UNL     1     -10.353   8.898  69.220  1.00  0.00    -0.221 A  
HETATM   13  I   UNL     1      -9.458  10.465  64.572  1.00  0.00    -0.390 I  
HETATM   14  I   UNL     1     -12.016  11.395  70.149  1.00  0.00    -0.368 I  
HETATM   15  C   UNL     1     -10.476  10.704  67.519  1.00  0.00    -0.272 A  
HETATM   16  C   UNL     1     -10.831  10.171  68.799  1.00  0.00    -0.225 A  
BRANCH  12  17
HETATM   17  C   UNL     1     -10.972   8.108  70.349  1.00  0.00    -0.247 C  
HETATM   18  N   UNL     1     -10.668   8.437  71.648  1.00  0.00    -0.246 N  
HETATM   19  H   UNL     1      -9.948   9.138  71.828  1.00  0.00     0.000 HD 
HETATM   20  O   UNL     1     -11.750   7.196  70.091  1.00  0.00    -0.221 OA 
BRANCH  18  21
HETATM   21  C   UNL     1     -11.350   7.809  72.781  1.00  0.00    -0.389 C  
BRANCH  21  22
HETATM   22  C   UNL     1     -10.496   6.666  73.340  1.00  0.00    -0.290 C  
HETATM   23  O   UNL     1     -10.777   5.463  72.609  1.00  0.00    -0.214 OA 
HETATM   24  H   UNL     1     -10.248   4.754  72.955  1.00  0.00     0.000 HD 
BRANCH  22  25
HETATM   25  C   UNL     1      -8.994   6.979  73.297  1.00  0.00    -0.133 C  
HETATM   26  H   UNL     1      -7.308   5.987  73.027  1.00  0.00     0.000 HD 
HETATM   27  O   UNL     1      -8.237   5.793  73.054  1.00  0.00    -0.117 OA 
ENDBRANCH  22  25
ENDBRANCH  21  22
ENDBRANCH  18  21
ENDBRANCH  12  17
BRANCH  15  28
HETATM   28  C   UNL     1     -11.030  12.026  67.076  1.00  0.00    -0.274 C  
HETATM   29  O   UNL     1     -12.158  12.104  66.603  1.00  0.00    -0.622 OA 
HETATM   30  H   UNL     1      -9.296  13.065  67.639  1.00  0.00     0.000 HD 
HETATM   31  N   UNL     1     -10.227  13.146  67.233  1.00  0.00    -0.241 N  
BRANCH  31  32
HETATM   32  C   UNL     1     -10.743  14.441  66.804  1.00  0.00    -0.292 C  
BRANCH  32  33
HETATM   33  C   UNL     1     -10.934  15.431  67.960  1.00  0.00    -0.307 C  
HETATM   34  H   UNL     1     -12.140  15.608  69.506  1.00  0.00     0.000 HD 
HETATM   35  O   UNL     1     -12.022  14.995  68.790  1.00  0.00    -0.308 OA 
BRANCH  33  36
HETATM   36  C   UNL     1      -9.641  15.550  68.785  1.00  0.00    -0.208 C  
HETATM   37  O   UNL     1      -9.822  15.081  70.119  1.00  0.00    -0.488 OA 
HETATM   38  H   UNL     1      -9.023  15.154  70.628  1.00  0.00     0.000 HD 
ENDBRANCH  33  36
ENDBRANCH  32  33
ENDBRANCH  31  32
ENDBRANCH  15  28
ENDBRANCH   5   8
BRANCH   6  39
HETATM   39  C   UNL     1      -5.627   7.798  65.583  1.00  0.00    -0.033 C  
HETATM   40  O   UNL     1      -5.331   8.545  64.407  1.00  0.00    -0.043 OA 
HETATM   41  H   UNL     1      -4.685   8.126  63.851  1.00  0.00     0.000 HD 
ENDBRANCH   6  39
ENDBRANCH   4   5
ENDBRANCH   3   4
TORSDOF 12
ENDMDL
MODEL       41
REMARK 921   NORMALIZED FREE ENERGY PREDICTED BY IDOCK:   -4.79 KCAL/MOL
REMARK 922        TOTAL FREE ENERGY PREDICTED BY IDOCK:   -8.43 KCAL/MOL
REMARK 923 INTER-LIGAND FREE ENERGY PREDICTED BY IDOCK:   -7.89 KCAL/MOL
REMARK 924 INTRA-LIGAND FREE ENERGY PREDICTED BY IDOCK:   -0.54 KCAL/MOL
REMARK 927      BINDING AFFINITY PREDICTED BY RF-SCORE:    0.00 PKD
ROOT
HETATM    1  O   UNL     1     -12.099  12.343  64.712  1.00  0.00    -0.406 OA 
HETATM    2  H   UNL     1     -11.979  12.501  63.783  1.00  0.00     0.000 HD 
HETATM    3  C   UNL     1     -10.908  11.848  65.306  1.00  0.00    -0.297 C  
ENDROOT
BRANCH   3   4
HETATM    4  C   UNL     1     -11.103  11.594  66.806  1.00  0.00    -0.309 C  
BRANCH   4   5
HETATM    5  N   UNL     1      -9.899  11.130  67.534  1.00  0.00    -0.176 N  
HETATM    6  C   UNL     1      -8.914  11.971  68.059  1.00  0.00    -0.187 C  
HETATM    7  O   UNL     1      -8.019  11.559  68.813  1.00  0.00    -0.145 OA 
BRANCH   5   8
HETATM    8  C   UNL     1      -9.847   9.736  67.902  1.00  0.00    -0.149 A  
HETATM    9  C   UNL     1      -9.122   8.794  67.120  1.00  0.00    -0.132 A  
HETATM   10  C   UNL     1     -10.591   9.276  69.015  1.00  0.00    -0.205 A  
HETATM   11  I   UNL     1      -7.926   9.531  65.455  1.00  0.00    -0.136 I  
HETATM   12  C   UNL     1      -9.103   7.410  67.454  1.00  0.00    -0.129 A  
HETATM   13  I   UNL     1     -12.098  10.572  69.880  1.00  0.00    -0.159 I  
HETATM   14  I   UNL     1      -9.359   5.019  69.475  1.00  0.00    -0.243 I  
HETATM   15  C   UNL     1     -10.447   7.949  69.473  1.00  0.00    -0.226 A  
HETATM   16  C   UNL     1      -9.694   7.018  68.688  1.00  0.00    -0.139 A  
BRANCH  12  17
HETATM   17  C   UNL     1      -8.641   6.429  66.403  1.00  0.00    -0.134 C  
HETATM   18  N   UNL     1      -9.573   5.686  65.718  1.00  0.00    -0.354 N  
HETATM   19  H   UNL     1     -10.552   5.730  66.003  1.00  0.00     0.000 HD 
HETATM   20  O   UNL     1      -7.443   6.320  66.163  1.00  0.00    -0.082 OA 
BRANCH  18  21
HETATM   21  C   UNL     1      -9.198   4.833  64.589  1.00  0.00    -0.077 C  
BRANCH  21  22
HETATM   22  C   UNL     1     -10.334   3.856  64.269  1.00  0.00    -0.233 C  
HETATM   23  O   UNL     1     -11.569   4.382  64.780  1.00  0.00    -1.000 OA 
HETATM   24  H   UNL     1     -12.273   3.776  64.582  1.00  0.00     0.000 HD 
BRANCH  22  25
HETATM   25  C   UNL     1     -10.457   3.568  62.766  1.00  0.00    -0.199 C  
HETATM   26  H   UNL     1     -11.291   2.202  61.610  1.00  0.00     0.000 HD 
HETATM   27  O   UNL     1     -11.215   2.380  62.539  1.00  0.00    -0.192 OA 
ENDBRANCH  22  25
ENDBRANCH  21  22
ENDBRANCH  18  21
ENDBRANCH  12  17
BRANCH  15  28
HETATM   28  C   UNL     1     -11.102   7.501  70.745  1.00  0.00    -0.265 C  
HETATM   29  O   UNL     1     -12.202   6.962  70.727  1.00  0.00    -0.381 OA 
HETATM   30  H   UNL     1      -9.493   8.149  71.928  1.00  0.00     0.000 HD 
HETATM   31  N   UNL     1     -10.413   7.709  71.931  1.00  0.00    -0.211 N  
BRANCH  31  32
HETATM   32  C   UNL     1     -11.032   7.287  73.183  1.00  0.00    -0.340 C  
BRANCH  32  33
HETATM   33  C   UNL     1     -10.519   5.932  73.686  1.00  0.00    -0.265 C  
HETATM   34  H   UNL     1     -10.987   4.038  73.419  1.00  0.00     0.000 HD 
HETATM   35  O   UNL     1     -11.304   4.877  73.108  1.00  0.00    -0.310 OA 
BRANCH  33  36
HETATM   36  C   UNL     1      -9.034   5.754  73.332  1.00  0.00    -0.126 C  
HETATM   37  O   UNL     1      -8.183   6.268  74.354  1.00  0.00    -0.120 OA 
HETATM   38  H   UNL     1      -7.265   6.158  74.135  1.00  0.00     0.000 HD 
ENDBRANCH  33  36
ENDBRANCH  32  33
ENDBRANCH  31  32
ENDBRANCH  15  28
ENDBRANCH   5   8
BRANCH   6  39
HETATM   39  C   UNL     1      -8.972  13.466  67.710  1.00  0.00    -0.205 C  
HETATM   40  O   UNL     1      -8.024  13.846  66.717  1.00  0.00    -0.357 OA 
HETATM   41  H   UNL     1      -8.060  14.771  66.501  1.00  0.00     0.000 HD 
ENDBRANCH   6  39
ENDBRANCH   4   5
ENDBRANCH   3   4
TORSDOF 12
ENDMDL
MODEL       42
REMARK 921   NORMALIZED FREE ENERGY PREDICTED BY IDOCK:   -4.76 KCAL/MOL
REMARK 922        TOTAL FREE ENERGY PREDICTED BY IDOCK:   -8.37 KCAL/MOL
REMARK 923 INTER-LIGAND FREE ENERGY PREDICTED BY IDOCK:   -7.53 KCAL/MOL
REMARK 924 INTRA-LIGAND FREE ENERGY PREDICTED BY IDOCK:   -0.83 KCAL/MOL
REMARK 927      BINDING AFFINITY PREDICTED BY RF-SCORE:    0.00 PKD
ROOT
HETATM    1  O   UNL     1     -13.883   7.309  70.740  1.00  0.00    -0.530 OA 
HETATM    2  H   UNL     1     -14.752   7.368  71.118  1.00  0.00     0.000 HD 
HETATM    3  C   UNL     1     -12.952   6.785  71.675  1.00  0.00    -0.236 C  
ENDROOT
BRANCH   3   4
HETATM    4  C   UNL     1     -11.549   6.690  71.064  1.00  0.00    -0.346 C  
BRANCH   4   5
HETATM    5  N   UNL     1     -10.629   7.799  71.407  1.00  0.00    -0.213 N  
HETATM    6  C   UNL     1     -10.032   7.978  72.658  1.00  0.00    -0.290 C  
HETATM    7  O   UNL     1      -9.133   8.811  72.855  1.00  0.00    -0.311 OA 
BRANCH   5   8
HETATM    8  C   UNL     1     -10.159   8.627  70.323  1.00  0.00    -0.187 A  
HETATM    9  C   UNL     1     -10.793   9.862  70.011  1.00  0.00    -0.294 A  
HETATM   10  C   UNL     1      -9.100   8.172  69.501  1.00  0.00    -0.151 A  
HETATM   11  I   UNL     1     -12.374  10.578  71.328  1.00  0.00    -0.419 I  
HETATM   12  C   UNL     1     -10.361  10.661  68.915  1.00  0.00    -0.225 A  
HETATM   13  I   UNL     1      -8.489   6.095  69.626  1.00  0.00    -0.129 I  
HETATM   14  I   UNL     1      -8.213  11.633  66.839  1.00  0.00    -0.092 I  
HETATM   15  C   UNL     1      -8.536   9.022  68.525  1.00  0.00    -0.129 A  
HETATM   16  C   UNL     1      -9.171  10.272  68.239  1.00  0.00    -0.139 A  
BRANCH  12  17
HETATM   17  C   UNL     1     -11.287  11.745  68.414  1.00  0.00    -0.270 C  
HETATM   18  N   UNL     1     -11.146  13.026  68.894  1.00  0.00    -0.261 N  
HETATM   19  H   UNL     1     -10.492  13.202  69.657  1.00  0.00     0.000 HD 
HETATM   20  O   UNL     1     -12.138  11.472  67.575  1.00  0.00    -0.614 OA 
BRANCH  18  21
HETATM   21  C   UNL     1     -11.910  14.144  68.337  1.00  0.00    -0.353 C  
BRANCH  21  22
HETATM   22  C   UNL     1     -11.072  14.882  67.288  1.00  0.00    -0.336 C  
HETATM   23  O   UNL     1      -9.696  14.884  67.698  1.00  0.00    -0.210 OA 
HETATM   24  H   UNL     1      -9.176  15.342  67.048  1.00  0.00     0.000 HD 
BRANCH  22  25
HETATM   25  C   UNL     1     -11.212  14.271  65.887  1.00  0.00    -0.319 C  
HETATM   26  H   UNL     1     -12.664  13.591  64.734  1.00  0.00     0.000 HD 
HETATM   27  O   UNL     1     -12.578  13.969  65.602  1.00  0.00    -0.497 OA 
ENDBRANCH  22  25
ENDBRANCH  21  22
ENDBRANCH  18  21
ENDBRANCH  12  17
BRANCH  15  28
HETATM   28  C   UNL     1      -7.310   8.611  67.766  1.00  0.00    -0.092 C  
HETATM   29  O   UNL     1      -6.192   8.813  68.226  1.00  0.00    -0.052 OA 
HETATM   30  H   UNL     1      -8.428   7.816  66.177  1.00  0.00     0.000 HD 
HETATM   31  N   UNL     1      -7.490   7.987  66.540  1.00  0.00    -0.087 N  
BRANCH  31  32
HETATM   32  C   UNL     1      -6.313   7.583  65.781  1.00  0.00    -0.042 C  
BRANCH  32  33
HETATM   33  C   UNL     1      -6.150   6.062  65.678  1.00  0.00    -0.029 C  
HETATM   34  H   UNL     1      -5.330   4.635  66.760  1.00  0.00     0.000 HD 
HETATM   35  O   UNL     1      -5.431   5.577  66.823  1.00  0.00    -0.011 OA 
BRANCH  33  36
HETATM   36  C   UNL     1      -7.525   5.380  65.577  1.00  0.00    -0.077 C  
HETATM   37  O   UNL     1      -7.443   3.984  65.855  1.00  0.00    -0.081 OA 
HETATM   38  H   UNL     1      -8.292   3.563  65.792  1.00  0.00     0.000 HD 
ENDBRANCH  33  36
ENDBRANCH  32  33
ENDBRANCH  31  32
ENDBRANCH  15  28
ENDBRANCH   5   8
BRANCH   6  39
HETATM   39  C   UNL     1     -10.491   7.082  73.819  1.00  0.00    -0.354 C  
HETATM   40  O   UNL     1      -9.699   5.908  73.967  1.00  0.00    -0.156 OA 
HETATM   41  H   UNL     1      -9.983   5.354  74.685  1.00  0.00     0.000 HD 
ENDBRANCH   6  39
ENDBRANCH   4   5
ENDBRANCH   3   4
TORSDOF 12
ENDMDL
MODEL       43
REMARK 921   NORMALIZED FREE ENERGY PREDICTED BY IDOCK:   -4.72 KCAL/MOL
REMARK 922        TOTAL FREE ENERGY PREDICTED BY IDOCK:   -8.31 KCAL/MOL
REMARK 923 INTER-LIGAND FREE ENERGY PREDICTED BY IDOCK:   -7.81 KCAL/MOL
REMARK 924 INTRA-LIGAND FREE ENERGY PREDICTED BY IDOCK:   -0.49 KCAL/MOL
REMARK 927      BINDING AFFINITY PREDICTED BY RF-SCORE:    0.00 PKD
ROOT
HETATM    1  O   UNL     1     -10.373  10.104  63.680  1.00  0.00    -0.413 OA 
HETATM    2  H   UNL     1     -10.292  10.532  62.835  1.00  0.00     0.000 HD 
HETATM    3  C   UNL     1      -9.120  10.046  64.345  1.00  0.00    -0.247 C  
ENDROOT
BRANCH   3   4
HETATM    4  C   UNL     1      -9.250   9.355  65.708  1.00  0.00    -0.219 C  
BRANCH   4   5
HETATM    5  N   UNL     1      -8.648  10.081  66.850  1.00  0.00    -0.125 N  
HETATM    6  C   UNL     1      -7.342  10.581  66.874  1.00  0.00    -0.110 C  
HETATM    7  O   UNL     1      -6.934  11.336  67.771  1.00  0.00    -0.071 OA 
BRANCH   5   8
HETATM    8  C   UNL     1      -9.530  10.477  67.920  1.00  0.00    -0.147 A  
HETATM    9  C   UNL     1     -10.173  11.747  67.913  1.00  0.00    -0.191 A  
HETATM   10  C   UNL     1      -9.702   9.627  69.038  1.00  0.00    -0.169 A  
HETATM   11  I   UNL     1      -9.952  13.012  66.153  1.00  0.00    -0.228 I  
HETATM   12  C   UNL     1     -11.009  12.161  68.988  1.00  0.00    -0.255 A  
HETATM   13  I   UNL     1      -8.342   7.962  69.312  1.00  0.00    -0.138 I  
HETATM   14  I   UNL     1     -12.895  11.602  71.437  1.00  0.00    -0.040 I  
HETATM   15  C   UNL     1     -10.662   9.932  70.028  1.00  0.00    -0.338 A  
HETATM   16  C   UNL     1     -11.318  11.203  69.994  1.00  0.00    -0.243 A  
BRANCH  12  17
HETATM   17  C   UNL     1     -11.352  13.628  69.101  1.00  0.00    -0.285 C  
HETATM   18  N   UNL     1     -10.504  14.467  69.785  1.00  0.00    -0.448 N  
HETATM   19  H   UNL     1      -9.715  14.070  70.295  1.00  0.00     0.000 HD 
HETATM   20  O   UNL     1     -12.371  14.053  68.568  1.00  0.00    -0.265 OA 
BRANCH  18  21
HETATM   21  C   UNL     1     -10.705  15.918  69.799  1.00  0.00    -0.324 C  
BRANCH  21  22
HETATM   22  C   UNL     1     -10.057  16.550  68.563  1.00  0.00    -0.255 C  
HETATM   23  O   UNL     1     -10.736  17.774  68.246  1.00  0.00    -0.343 OA 
HETATM   24  H   UNL     1     -10.334  18.166  67.480  1.00  0.00     0.000 HD 
BRANCH  22  25
HETATM   25  C   UNL     1      -8.555  16.804  68.751  1.00  0.00    -0.255 C  
HETATM   26  H   UNL     1      -7.000  15.847  69.502  1.00  0.00     0.000 HD 
HETATM   27  O   UNL     1      -7.929  15.689  69.386  1.00  0.00    -0.226 OA 
ENDBRANCH  22  25
ENDBRANCH  21  22
ENDBRANCH  18  21
ENDBRANCH  12  17
BRANCH  15  28
HETATM   28  C   UNL     1     -10.968   8.957  71.125  1.00  0.00    -0.286 C  
HETATM   29  O   UNL     1     -10.432   9.061  72.222  1.00  0.00    -0.269 OA 
HETATM   30  H   UNL     1     -12.328   7.884  69.940  1.00  0.00     0.000 HD 
HETATM   31  N   UNL     1     -11.882   7.949  70.855  1.00  0.00    -0.267 N  
BRANCH  31  32
HETATM   32  C   UNL     1     -12.192   6.986  71.905  1.00  0.00    -0.327 C  
BRANCH  32  33
HETATM   33  C   UNL     1     -11.331   5.719  71.840  1.00  0.00    -0.204 C  
HETATM   34  H   UNL     1     -10.255   4.790  70.477  1.00  0.00     0.000 HD 
HETATM   35  O   UNL     1     -10.789   5.575  70.518  1.00  0.00    -0.269 OA 
BRANCH  33  36
HETATM   36  C   UNL     1     -10.201   5.783  72.882  1.00  0.00    -0.190 C  
HETATM   37  O   UNL     1      -9.812   4.482  73.317  1.00  0.00    -0.134 OA 
HETATM   38  H   UNL     1      -9.114   4.522  73.961  1.00  0.00     0.000 HD 
ENDBRANCH  33  36
ENDBRANCH  32  33
ENDBRANCH  31  32
ENDBRANCH  15  28
ENDBRANCH   5   8
BRANCH   6  39
HETATM   39  C   UNL     1      -6.396  10.202  65.725  1.00  0.00    -0.102 C  
HETATM   40  O   UNL     1      -5.844  11.333  65.058  1.00  0.00    -0.431 OA 
HETATM   41  H   UNL     1      -5.259  11.098  64.347  1.00  0.00     0.000 HD 
ENDBRANCH   6  39
ENDBRANCH   4   5
ENDBRANCH   3   4
TORSDOF 12
ENDMDL
MODEL       44
REMARK 921   NORMALIZED FREE ENERGY PREDICTED BY IDOCK:   -4.71 KCAL/MOL
REMARK 922        TOTAL FREE ENERGY PREDICTED BY IDOCK:   -8.28 KCAL/MOL
REMARK 923 INTER-LIGAND FREE ENERGY PREDICTED BY IDOCK:   -8.29 KCAL/MOL
REMARK 924 INTRA-LIGAND FREE ENERGY PREDICTED BY IDOCK:    0.01 KCAL/MOL
REMARK 927      BINDING AFFINITY PREDICTED BY RF-SCORE:    0.00 PKD
ROOT
HETATM    1  O   UNL     1     -12.802   6.964  71.942  1.00  0.00    -0.459 OA 
HETATM    2  H   UNL     1     -12.891   6.064  72.231  1.00  0.00     0.000 HD 
HETATM    3  C   UNL     1     -11.877   7.068  70.870  1.00  0.00    -0.356 C  
ENDROOT
BRANCH   3   4
HETATM    4  C   UNL     1     -11.732   8.521  70.403  1.00  0.00     0.001 C  
BRANCH   4   5
HETATM    5  N   UNL     1     -10.355   8.945  70.059  1.00  0.00    -0.197 N  
HETATM    6  C   UNL     1      -9.281   8.958  70.954  1.00  0.00    -0.231 C  
HETATM    7  O   UNL     1      -8.110   9.146  70.587  1.00  0.00    -0.139 OA 
BRANCH   5   8
HETATM    8  C   UNL     1     -10.059   9.161  68.664  1.00  0.00    -0.194 A  
HETATM    9  C   UNL     1     -10.441  10.364  68.007  1.00  0.00    -0.196 A  
HETATM   10  C   UNL     1      -9.448   8.132  67.909  1.00  0.00    -0.146 A  
HETATM   11  I   UNL     1     -11.317  11.963  69.200  1.00  0.00    -0.342 I  
HETATM   12  C   UNL     1     -10.192  10.564  66.620  1.00  0.00    -0.289 A  
HETATM   13  I   UNL     1      -9.347   6.133  68.744  1.00  0.00    -0.146 I  
HETATM   14  I   UNL     1      -8.624  10.012  63.955  1.00  0.00    -0.262 I  
HETATM   15  C   UNL     1      -9.027   8.370  66.583  1.00  0.00    -0.181 A  
HETATM   16  C   UNL     1      -9.398   9.595  65.943  1.00  0.00    -0.218 A  
BRANCH  12  17
HETATM   17  C   UNL     1     -10.937  11.671  65.913  1.00  0.00    -0.280 C  
HETATM   18  N   UNL     1     -10.232  12.718  65.368  1.00  0.00    -0.286 N  
HETATM   19  H   UNL     1      -9.229  12.785  65.542  1.00  0.00     0.000 HD 
HETATM   20  O   UNL     1     -12.159  11.613  65.820  1.00  0.00    -0.232 OA 
BRANCH  18  21
HETATM   21  C   UNL     1     -10.883  13.738  64.544  1.00  0.00    -0.387 C  
BRANCH  21  22
HETATM   22  C   UNL     1     -10.417  15.134  64.971  1.00  0.00    -0.389 C  
HETATM   23  O   UNL     1     -11.090  16.121  64.176  1.00  0.00    -1.113 OA 
HETATM   24  H   UNL     1     -10.802  16.987  64.440  1.00  0.00     0.000 HD 
BRANCH  22  25
HETATM   25  C   UNL     1     -10.650  15.401  66.465  1.00  0.00    -0.306 C  
HETATM   26  H   UNL     1     -12.065  15.062  67.800  1.00  0.00     0.000 HD 
HETATM   27  O   UNL     1     -11.921  14.897  66.876  1.00  0.00    -0.279 OA 
ENDBRANCH  22  25
ENDBRANCH  21  22
ENDBRANCH  18  21
ENDBRANCH  12  17
BRANCH  15  28
HETATM   28  C   UNL     1      -8.232   7.343  65.834  1.00  0.00    -0.134 C  
HETATM   29  O   UNL     1      -7.009   7.324  65.904  1.00  0.00    -0.059 OA 
HETATM   30  H   UNL     1      -9.950   6.438  65.036  1.00  0.00     0.000 HD 
HETATM   31  N   UNL     1      -8.931   6.416  65.075  1.00  0.00     0.235 N  
BRANCH  31  32
HETATM   32  C   UNL     1      -8.180   5.410  64.333  1.00  0.00    -0.133 C  
BRANCH  32  33
HETATM   33  C   UNL     1      -9.074   4.379  63.633  1.00  0.00    -0.136 C  
HETATM   34  H   UNL     1      -8.845   2.588  62.847  1.00  0.00     0.000 HD 
HETATM   35  O   UNL     1      -8.292   3.227  63.280  1.00  0.00    -0.084 OA 
BRANCH  33  36
HETATM   36  C   UNL     1     -10.245   3.976  64.544  1.00  0.00    -0.210 C  
HETATM   37  O   UNL     1     -11.014   2.917  63.978  1.00  0.00    -0.502 OA 
HETATM   38  H   UNL     1     -11.737   2.668  64.541  1.00  0.00     0.000 HD 
ENDBRANCH  33  36
ENDBRANCH  32  33
ENDBRANCH  31  32
ENDBRANCH  15  28
ENDBRANCH   5   8
BRANCH   6  39
HETATM   39  C   UNL     1      -9.568   8.693  72.440  1.00  0.00    -0.235 C  
HETATM   40  O   UNL     1      -8.396   8.716  73.249  1.00  0.00    -0.408 OA 
HETATM   41  H   UNL     1      -8.574   8.553  74.168  1.00  0.00     0.000 HD 
ENDBRANCH   6  39
ENDBRANCH   4   5
ENDBRANCH   3   4
TORSDOF 12
ENDMDL
MODEL       45
REMARK 921   NORMALIZED FREE ENERGY PREDICTED BY IDOCK:   -4.69 KCAL/MOL
REMARK 922        TOTAL FREE ENERGY PREDICTED BY IDOCK:   -8.26 KCAL/MOL
REMARK 923 INTER-LIGAND FREE ENERGY PREDICTED BY IDOCK:   -7.90 KCAL/MOL
REMARK 924 INTRA-LIGAND FREE ENERGY PREDICTED BY IDOCK:   -0.36 KCAL/MOL
REMARK 927      BINDING AFFINITY PREDICTED BY RF-SCORE:    0.00 PKD
ROOT
HETATM    1  O   UNL     1      -9.912   8.982  65.557  1.00  0.00    -0.437 OA 
HETATM    2  H   UNL     1      -9.726   8.213  65.031  1.00  0.00     0.000 HD 
HETATM    3  C   UNL     1      -8.810   9.877  65.563  1.00  0.00    -0.159 C  
ENDROOT
BRANCH   3   4
HETATM    4  C   UNL     1      -9.110  11.119  66.411  1.00  0.00    -0.187 C  
BRANCH   4   5
HETATM    5  N   UNL     1      -8.560  11.097  67.787  1.00  0.00    -0.129 N  
HETATM    6  C   UNL     1      -7.516  11.910  68.238  1.00  0.00    -0.104 C  
HETATM    7  O   UNL     1      -7.204  11.991  69.436  1.00  0.00     0.002 OA 
BRANCH   5   8
HETATM    8  C   UNL     1      -9.285  10.338  68.776  1.00  0.00    -0.166 A  
HETATM    9  C   UNL     1      -8.797   9.087  69.247  1.00  0.00    -0.139 A  
HETATM   10  C   UNL     1     -10.542  10.800  69.234  1.00  0.00    -0.229 A  
HETATM   11  I   UNL     1      -6.830   8.425  68.586  1.00  0.00    -0.065 I  
HETATM   12  C   UNL     1      -9.530   8.312  70.190  1.00  0.00    -0.167 A  
HETATM   13  I   UNL     1     -11.530  12.399  68.153  1.00  0.00    -0.417 I  
HETATM   14  I   UNL     1     -11.625   7.979  72.507  1.00  0.00    -0.260 I  
HETATM   15  C   UNL     1     -11.201  10.147  70.297  1.00  0.00    -0.387 A  
HETATM   16  C   UNL     1     -10.685   8.901  70.777  1.00  0.00    -0.233 A  
BRANCH  12  17
HETATM   17  C   UNL     1      -9.158   6.858  70.363  1.00  0.00    -0.156 C  
HETATM   18  N   UNL     1      -8.358   6.488  71.417  1.00  0.00    -0.124 N  
HETATM   19  H   UNL     1      -7.941   7.211  72.003  1.00  0.00     0.000 HD 
HETATM   20  O   UNL     1      -9.588   6.027  69.571  1.00  0.00    -0.139 OA 
BRANCH  18  21
HETATM   21  C   UNL     1      -8.089   5.081  71.721  1.00  0.00    -0.115 C  
BRANCH  21  22
HETATM   22  C   UNL     1      -8.769   4.689  73.037  1.00  0.00    -0.113 C  
HETATM   23  O   UNL     1      -8.730   5.804  73.941  1.00  0.00    -0.118 OA 
HETATM   24  H   UNL     1      -9.151   5.561  74.757  1.00  0.00     0.000 HD 
BRANCH  22  25
HETATM   25  C   UNL     1     -10.215   4.217  72.834  1.00  0.00    -0.165 C  
HETATM   26  H   UNL     1     -11.140   2.593  72.194  1.00  0.00     0.000 HD 
HETATM   27  O   UNL     1     -10.245   2.885  72.319  1.00  0.00    -0.164 OA 
ENDBRANCH  22  25
ENDBRANCH  21  22
ENDBRANCH  18  21
ENDBRANCH  12  17
BRANCH  15  28
HETATM   28  C   UNL     1     -12.448  10.725  70.897  1.00  0.00    -0.402 C  
HETATM   29  O   UNL     1     -13.521  10.143  70.793  1.00  0.00    -0.311 OA 
HETATM   30  H   UNL     1     -11.434  12.395  71.666  1.00  0.00     0.000 HD 
HETATM   31  N   UNL     1     -12.336  11.928  71.579  1.00  0.00    -0.048 N  
BRANCH  31  32
HETATM   32  C   UNL     1     -13.536  12.513  72.167  1.00  0.00    -0.422 C  
BRANCH  32  33
HETATM   33  C   UNL     1     -13.512  14.046  72.198  1.00  0.00    -0.475 C  
HETATM   34  H   UNL     1     -13.125  15.443  73.531  1.00  0.00     0.000 HD 
HETATM   35  O   UNL     1     -13.141  14.493  73.511  1.00  0.00    -0.564 OA 
BRANCH  33  36
HETATM   36  C   UNL     1     -12.530  14.589  71.146  1.00  0.00    -0.341 C  
HETATM   37  O   UNL     1     -13.213  15.156  70.030  1.00  0.00    -0.584 OA 
HETATM   38  H   UNL     1     -12.606  15.491  69.381  1.00  0.00     0.000 HD 
ENDBRANCH  33  36
ENDBRANCH  32  33
ENDBRANCH  31  32
ENDBRANCH  15  28
ENDBRANCH   5   8
BRANCH   6  39
HETATM   39  C   UNL     1      -6.754  12.756  67.206  1.00  0.00    -0.082 C  
HETATM   40  O   UNL     1      -5.919  11.979  66.353  1.00  0.00    -0.499 OA 
HETATM   41  H   UNL     1      -5.448  12.503  65.715  1.00  0.00     0.000 HD 
ENDBRANCH   6  39
ENDBRANCH   4   5
ENDBRANCH   3   4
TORSDOF 12
ENDMDL
MODEL       46
REMARK 921   NORMALIZED FREE ENERGY PREDICTED BY IDOCK:   -4.65 KCAL/MOL
REMARK 922        TOTAL FREE ENERGY PREDICTED BY IDOCK:   -8.19 KCAL/MOL
REMARK 923 INTER-LIGAND FREE ENERGY PREDICTED BY IDOCK:   -6.75 KCAL/MOL
REMARK 924 INTRA-LIGAND FREE ENERGY PREDICTED BY IDOCK:   -1.44 KCAL/MOL
REMARK 927      BINDING AFFINITY PREDICTED BY RF-SCORE:    0.00 PKD
ROOT
HETATM    1  O   UNL     1      -5.838  10.738  67.098  1.00  0.00    -0.045 OA 
HETATM    2  H   UNL     1      -5.642  11.634  66.851  1.00  0.00     0.000 HD 
HETATM    3  C   UNL     1      -5.740   9.866  65.982  1.00  0.00    -0.059 C  
ENDROOT
BRANCH   3   4
HETATM    4  C   UNL     1      -6.057   8.419  66.381  1.00  0.00    -0.052 C  
BRANCH   4   5
HETATM    5  N   UNL     1      -7.447   7.978  66.122  1.00  0.00    -0.074 N  
HETATM    6  C   UNL     1      -7.834   7.145  65.068  1.00  0.00    -0.125 C  
HETATM    7  O   UNL     1      -8.972   6.655  64.989  1.00  0.00     0.189 OA 
BRANCH   5   8
HETATM    8  C   UNL     1      -8.430   8.259  67.141  1.00  0.00    -0.123 A  
HETATM    9  C   UNL     1      -8.691   7.331  68.187  1.00  0.00    -0.128 A  
HETATM   10  C   UNL     1      -9.207   9.439  67.060  1.00  0.00    -0.142 A  
HETATM   11  I   UNL     1      -7.438   5.555  68.335  1.00  0.00    -0.077 I  
HETATM   12  C   UNL     1      -9.691   7.582  69.169  1.00  0.00    -0.166 A  
HETATM   13  I   UNL     1      -9.197  10.580  65.217  1.00  0.00    -0.310 I  
HETATM   14  I   UNL     1     -11.531   9.484  70.861  1.00  0.00    -0.477 I  
HETATM   15  C   UNL     1     -10.074   9.798  68.114  1.00  0.00    -0.193 A  
HETATM   16  C   UNL     1     -10.309   8.864  69.173  1.00  0.00    -0.220 A  
BRANCH  12  17
HETATM   17  C   UNL     1     -10.172   6.423  70.011  1.00  0.00    -0.180 C  
HETATM   18  N   UNL     1      -9.507   6.113  71.173  1.00  0.00    -0.167 N  
HETATM   19  H   UNL     1      -8.638   6.600  71.395  1.00  0.00     0.000 HD 
HETATM   20  O   UNL     1     -11.158   5.787  69.655  1.00  0.00    -0.372 OA 
BRANCH  18  21
HETATM   21  C   UNL     1     -10.014   5.102  72.103  1.00  0.00    -0.187 C  
BRANCH  21  22
HETATM   22  C   UNL     1     -10.984   5.745  73.100  1.00  0.00    -0.271 C  
HETATM   23  O   UNL     1     -11.850   4.733  73.637  1.00  0.00    -0.357 OA 
HETATM   24  H   UNL     1     -12.452   5.131  74.255  1.00  0.00     0.000 HD 
BRANCH  22  25
HETATM   25  C   UNL     1     -10.259   6.484  74.233  1.00  0.00    -0.350 C  
HETATM   26  H   UNL     1      -9.257   8.170  74.463  1.00  0.00     0.000 HD 
HETATM   27  O   UNL     1      -9.706   7.713  73.762  1.00  0.00    -0.285 OA 
ENDBRANCH  22  25
ENDBRANCH  21  22
ENDBRANCH  18  21
ENDBRANCH  12  17
BRANCH  15  28
HETATM   28  C   UNL     1     -10.774  11.124  68.114  1.00  0.00    -0.204 C  
HETATM   29  O   UNL     1     -11.945  11.214  67.764  1.00  0.00    -0.630 OA 
HETATM   30  H   UNL     1      -9.082  12.139  68.831  1.00  0.00     0.000 HD 
HETATM   31  N   UNL     1     -10.052  12.233  68.532  1.00  0.00    -0.211 N  
BRANCH  31  32
HETATM   32  C   UNL     1     -10.710  13.534  68.536  1.00  0.00    -0.255 C  
BRANCH  32  33
HETATM   33  C   UNL     1     -10.038  14.556  67.611  1.00  0.00    -0.228 C  
HETATM   34  H   UNL     1      -8.266  14.788  66.784  1.00  0.00     0.000 HD 
HETATM   35  O   UNL     1      -8.682  14.155  67.357  1.00  0.00    -0.186 OA 
BRANCH  33  36
HETATM   36  C   UNL     1     -10.819  14.682  66.292  1.00  0.00    -0.321 C  
HETATM   37  O   UNL     1     -12.067  13.996  66.351  1.00  0.00    -0.416 OA 
HETATM   38  H   UNL     1     -12.549  14.074  65.536  1.00  0.00     0.000 HD 
ENDBRANCH  33  36
ENDBRANCH  32  33
ENDBRANCH  31  32
ENDBRANCH  15  28
ENDBRANCH   5   8
BRANCH   6  39
HETATM   39  C   UNL     1      -6.793   6.803  63.991  1.00  0.00    -0.050 C  
HETATM   40  O   UNL     1      -6.763   7.745  62.923  1.00  0.00    -0.073 OA 
HETATM   41  H   UNL     1      -6.119   7.533  62.257  1.00  0.00     0.000 HD 
ENDBRANCH   6  39
ENDBRANCH   4   5
ENDBRANCH   3   4
TORSDOF 12
ENDMDL
MODEL       47
REMARK 921   NORMALIZED FREE ENERGY PREDICTED BY IDOCK:   -4.61 KCAL/MOL
REMARK 922        TOTAL FREE ENERGY PREDICTED BY IDOCK:   -8.11 KCAL/MOL
REMARK 923 INTER-LIGAND FREE ENERGY PREDICTED BY IDOCK:   -7.29 KCAL/MOL
REMARK 924 INTRA-LIGAND FREE ENERGY PREDICTED BY IDOCK:   -0.82 KCAL/MOL
REMARK 927      BINDING AFFINITY PREDICTED BY RF-SCORE:    0.00 PKD
ROOT
HETATM    1  O   UNL     1      -9.367   6.061  65.515  1.00  0.00    -0.367 OA 
HETATM    2  H   UNL     1      -9.323   5.176  65.858  1.00  0.00     0.000 HD 
HETATM    3  C   UNL     1      -8.075   6.544  65.180  1.00  0.00    -0.133 C  
ENDROOT
BRANCH   3   4
HETATM    4  C   UNL     1      -8.146   7.973  64.627  1.00  0.00    -0.140 C  
BRANCH   4   5
HETATM    5  N   UNL     1      -7.670   9.034  65.545  1.00  0.00    -0.089 N  
HETATM    6  C   UNL     1      -6.434   9.678  65.443  1.00  0.00    -0.080 C  
HETATM    7  O   UNL     1      -6.147  10.681  66.116  1.00  0.00    -0.097 OA 
BRANCH   5   8
HETATM    8  C   UNL     1      -8.628   9.580  66.475  1.00  0.00    -0.134 A  
HETATM    9  C   UNL     1      -8.689   9.125  67.822  1.00  0.00    -0.121 A  
HETATM   10  C   UNL     1      -9.579  10.528  66.028  1.00  0.00    -0.194 A  
HETATM   11  I   UNL     1      -7.174   7.719  68.510  1.00  0.00    -0.090 I  
HETATM   12  C   UNL     1      -9.661   9.628  68.733  1.00  0.00    -0.153 A  
HETATM   13  I   UNL     1      -9.842  10.829  63.897  1.00  0.00    -0.350 I  
HETATM   14  I   UNL     1     -11.675  11.816  69.743  1.00  0.00    -0.281 I  
HETATM   15  C   UNL     1     -10.433  11.174  66.948  1.00  0.00    -0.289 A  
HETATM   16  C   UNL     1     -10.465  10.722  68.305  1.00  0.00    -0.181 A  
BRANCH  12  17
HETATM   17  C   UNL     1      -9.914   8.855  70.005  1.00  0.00    -0.190 C  
HETATM   18  N   UNL     1      -9.158   9.128  71.121  1.00  0.00    -0.236 N  
HETATM   19  H   UNL     1      -8.370   9.770  71.043  1.00  0.00     0.000 HD 
HETATM   20  O   UNL     1     -10.800   8.008  70.032  1.00  0.00    -0.248 OA 
BRANCH  18  21
HETATM   21  C   UNL     1      -9.457   8.521  72.419  1.00  0.00    -0.280 C  
BRANCH  21  22
HETATM   22  C   UNL     1      -8.242   7.735  72.923  1.00  0.00    -0.133 C  
HETATM   23  O   UNL     1      -8.360   7.537  74.340  1.00  0.00    -0.185 OA 
HETATM   24  H   UNL     1      -7.607   7.050  74.653  1.00  0.00     0.000 HD 
BRANCH  22  25
HETATM   25  C   UNL     1      -8.075   6.387  72.208  1.00  0.00    -0.107 C  
HETATM   26  H   UNL     1      -6.657   5.428  71.222  1.00  0.00     0.000 HD 
HETATM   27  O   UNL     1      -6.760   6.262  71.665  1.00  0.00    -0.060 OA 
ENDBRANCH  22  25
ENDBRANCH  21  22
ENDBRANCH  18  21
ENDBRANCH  12  17
BRANCH  15  28
HETATM   28  C   UNL     1     -11.325  12.297  66.509  1.00  0.00    -0.351 C  
HETATM   29  O   UNL     1     -12.373  12.068  65.916  1.00  0.00    -0.463 OA 
HETATM   30  H   UNL     1     -10.056  13.764  67.312  1.00  0.00     0.000 HD 
HETATM   31  N   UNL     1     -10.926  13.591  66.808  1.00  0.00    -0.289 N  
BRANCH  31  32
HETATM   32  C   UNL     1     -11.775  14.699  66.387  1.00  0.00    -0.322 C  
BRANCH  32  33
HETATM   33  C   UNL     1     -11.284  15.387  65.107  1.00  0.00    -0.350 C  
HETATM   34  H   UNL     1      -9.747  15.211  63.889  1.00  0.00     0.000 HD 
HETATM   35  O   UNL     1     -10.052  14.785  64.682  1.00  0.00    -0.209 OA 
BRANCH  33  36
HETATM   36  C   UNL     1     -12.346  15.283  64.000  1.00  0.00     0.071 C  
HETATM   37  O   UNL     1     -12.367  13.984  63.411  1.00  0.00    -1.099 OA 
HETATM   38  H   UNL     1     -13.023  13.920  62.727  1.00  0.00     0.000 HD 
ENDBRANCH  33  36
ENDBRANCH  32  33
ENDBRANCH  31  32
ENDBRANCH  15  28
ENDBRANCH   5   8
BRANCH   6  39
HETATM   39  C   UNL     1      -5.412   9.137  64.432  1.00  0.00    -0.055 C  
HETATM   40  O   UNL     1      -5.378   9.880  63.218  1.00  0.00    -0.082 OA 
HETATM   41  H   UNL     1      -4.746   9.544  62.592  1.00  0.00     0.000 HD 
ENDBRANCH   6  39
ENDBRANCH   4   5
ENDBRANCH   3   4
TORSDOF 12
ENDMDL
MODEL       48
REMARK 921   NORMALIZED FREE ENERGY PREDICTED BY IDOCK:   -4.58 KCAL/MOL
REMARK 922        TOTAL FREE ENERGY PREDICTED BY IDOCK:   -8.08 KCAL/MOL
REMARK 923 INTER-LIGAND FREE ENERGY PREDICTED BY IDOCK:   -7.64 KCAL/MOL
REMARK 924 INTRA-LIGAND FREE ENERGY PREDICTED BY IDOCK:   -0.43 KCAL/MOL
REMARK 927      BINDING AFFINITY PREDICTED BY RF-SCORE:    0.00 PKD
ROOT
HETATM    1  O   UNL     1      -6.330   7.646  72.265  1.00  0.00    -0.042 OA 
HETATM    2  H   UNL     1      -5.467   8.033  72.173  1.00  0.00     0.000 HD 
HETATM    3  C   UNL     1      -6.910   7.380  70.996  1.00  0.00    -0.054 C  
ENDROOT
BRANCH   3   4
HETATM    4  C   UNL     1      -8.302   6.755  71.145  1.00  0.00    -0.124 C  
BRANCH   4   5
HETATM    5  N   UNL     1      -9.192   6.899  69.970  1.00  0.00    -0.155 N  
HETATM    6  C   UNL     1     -10.088   5.921  69.527  1.00  0.00    -0.203 C  
HETATM    7  O   UNL     1     -10.941   6.145  68.653  1.00  0.00    -0.307 OA 
BRANCH   5   8
HETATM    8  C   UNL     1      -9.288   8.207  69.369  1.00  0.00    -0.155 A  
HETATM    9  C   UNL     1     -10.214   9.173  69.852  1.00  0.00    -0.205 A  
HETATM   10  C   UNL     1      -8.507   8.515  68.230  1.00  0.00    -0.135 A  
HETATM   11  I   UNL     1     -11.357   8.708  71.647  1.00  0.00    -0.458 I  
HETATM   12  C   UNL     1     -10.344  10.449  69.234  1.00  0.00    -0.250 A  
HETATM   13  I   UNL     1      -7.504   6.906  67.176  1.00  0.00    -0.099 I  
HETATM   14  I   UNL     1      -9.262  12.848  67.519  1.00  0.00    -0.224 I  
HETATM   15  C   UNL     1      -8.484   9.827  67.711  1.00  0.00    -0.121 A  
HETATM   16  C   UNL     1      -9.405  10.795  68.223  1.00  0.00    -0.161 A  
BRANCH  12  17
HETATM   17  C   UNL     1     -11.574  11.270  69.544  1.00  0.00    -0.328 C  
HETATM   18  N   UNL     1     -11.537  12.177  70.576  1.00  0.00    -0.411 N  
HETATM   19  H   UNL     1     -10.718  12.206  71.184  1.00  0.00     0.000 HD 
HETATM   20  O   UNL     1     -12.583  11.128  68.861  1.00  0.00    -0.358 OA 
BRANCH  18  21
HETATM   21  C   UNL     1     -12.643  13.103  70.826  1.00  0.00    -0.260 C  
BRANCH  21  22
HETATM   22  C   UNL     1     -12.222  14.532  70.467  1.00  0.00    -0.332 C  
HETATM   23  O   UNL     1     -12.591  14.806  69.106  1.00  0.00    -0.574 OA 
HETATM   24  H   UNL     1     -12.330  15.691  68.883  1.00  0.00     0.000 HD 
BRANCH  22  25
HETATM   25  C   UNL     1     -12.834  15.580  71.407  1.00  0.00    -0.465 C  
HETATM   26  H   UNL     1     -14.632  16.089  72.047  1.00  0.00     0.000 HD 
HETATM   27  O   UNL     1     -14.254  15.441  71.465  1.00  0.00    -0.505 OA 
ENDBRANCH  22  25
ENDBRANCH  21  22
ENDBRANCH  18  21
ENDBRANCH  12  17
BRANCH  15  28
HETATM   28  C   UNL     1      -7.535  10.201  66.611  1.00  0.00    -0.106 C  
HETATM   29  O   UNL     1      -6.434  10.673  66.868  1.00  0.00    -0.073 OA 
HETATM   30  H   UNL     1      -8.862   9.579  65.108  1.00  0.00     0.000 HD 
HETATM   31  N   UNL     1      -7.947   9.983  65.305  1.00  0.00    -0.137 N  
BRANCH  31  32
HETATM   32  C   UNL     1      -7.044  10.343  64.218  1.00  0.00     0.017 C  
BRANCH  32  33
HETATM   33  C   UNL     1      -7.494   9.810  62.852  1.00  0.00    -0.125 C  
HETATM   34  H   UNL     1      -6.980   8.334  61.654  1.00  0.00     0.000 HD 
HETATM   35  O   UNL     1      -6.702   8.665  62.500  1.00  0.00    -0.095 OA 
BRANCH  33  36
HETATM   36  C   UNL     1      -8.987   9.442  62.885  1.00  0.00    -0.169 C  
HETATM   37  O   UNL     1      -9.804  10.514  62.419  1.00  0.00    -0.661 OA 
HETATM   38  H   UNL     1     -10.726  10.287  62.439  1.00  0.00     0.000 HD 
ENDBRANCH  33  36
ENDBRANCH  32  33
ENDBRANCH  31  32
ENDBRANCH  15  28
ENDBRANCH   5   8
BRANCH   6  39
HETATM   39  C   UNL     1     -10.029   4.531  70.179  1.00  0.00    -0.208 C  
HETATM   40  O   UNL     1     -10.313   4.555  71.574  1.00  0.00    -0.163 OA 
HETATM   41  H   UNL     1     -10.276   3.694  71.977  1.00  0.00     0.000 HD 
ENDBRANCH   6  39
ENDBRANCH   4   5
ENDBRANCH   3   4
TORSDOF 12
ENDMDL
MODEL       49
REMARK 921   NORMALIZED FREE ENERGY PREDICTED BY IDOCK:   -4.57 KCAL/MOL
REMARK 922        TOTAL FREE ENERGY PREDICTED BY IDOCK:   -8.05 KCAL/MOL
REMARK 923 INTER-LIGAND FREE ENERGY PREDICTED BY IDOCK:   -6.97 KCAL/MOL
REMARK 924 INTRA-LIGAND FREE ENERGY PREDICTED BY IDOCK:   -1.08 KCAL/MOL
REMARK 927      BINDING AFFINITY PREDICTED BY RF-SCORE:    0.00 PKD
ROOT
HETATM    1  O   UNL     1     -10.433   4.236  63.944  1.00  0.00    -0.417 OA 
HETATM    2  H   UNL     1     -11.348   4.051  64.125  1.00  0.00     0.000 HD 
HETATM    3  C   UNL     1      -9.704   4.437  65.146  1.00  0.00    -0.178 C  
ENDROOT
BRANCH   3   4
HETATM    4  C   UNL     1      -8.229   4.736  64.854  1.00  0.00    -0.120 C  
BRANCH   4   5
HETATM    5  N   UNL     1      -7.521   5.519  65.893  1.00  0.00    -0.081 N  
HETATM    6  C   UNL     1      -6.143   5.469  66.125  1.00  0.00    -0.033 C  
HETATM    7  O   UNL     1      -5.565   6.268  66.879  1.00  0.00    -0.012 OA 
BRANCH   5   8
HETATM    8  C   UNL     1      -8.270   6.551  66.567  1.00  0.00    -0.113 A  
HETATM    9  C   UNL     1      -8.929   6.296  67.802  1.00  0.00    -0.112 A  
HETATM   10  C   UNL     1      -8.423   7.819  65.958  1.00  0.00    -0.139 A  
HETATM   11  I   UNL     1      -8.625   4.362  68.759  1.00  0.00    -0.134 I  
HETATM   12  C   UNL     1      -9.707   7.297  68.450  1.00  0.00    -0.151 A  
HETATM   13  I   UNL     1      -7.888   8.054  63.870  1.00  0.00    -0.054 I  
HETATM   14  I   UNL     1     -10.481  10.281  69.049  1.00  0.00    -0.312 I  
HETATM   15  C   UNL     1      -9.034   8.881  66.659  1.00  0.00    -0.165 A  
HETATM   16  C   UNL     1      -9.671   8.614  67.912  1.00  0.00    -0.161 A  
BRANCH  12  17
HETATM   17  C   UNL     1     -10.666   6.865  69.534  1.00  0.00    -0.246 C  
HETATM   18  N   UNL     1     -10.314   7.037  70.852  1.00  0.00    -0.198 N  
HETATM   19  H   UNL     1      -9.371   7.353  71.078  1.00  0.00     0.000 HD 
HETATM   20  O   UNL     1     -11.751   6.384  69.225  1.00  0.00    -0.277 OA 
BRANCH  18  21
HETATM   21  C   UNL     1     -11.260   6.779  71.940  1.00  0.00    -0.260 C  
BRANCH  21  22
HETATM   22  C   UNL     1     -10.724   7.364  73.251  1.00  0.00    -0.391 C  
HETATM   23  O   UNL     1     -10.760   6.354  74.270  1.00  0.00    -0.406 OA 
HETATM   24  H   UNL     1     -10.428   6.717  75.083  1.00  0.00     0.000 HD 
BRANCH  22  25
HETATM   25  C   UNL     1      -9.303   7.927  73.107  1.00  0.00    -0.272 C  
HETATM   26  H   UNL     1      -7.672   8.061  74.211  1.00  0.00     0.000 HD 
HETATM   27  O   UNL     1      -8.551   7.713  74.301  1.00  0.00    -0.224 OA 
ENDBRANCH  22  25
ENDBRANCH  21  22
ENDBRANCH  18  21
ENDBRANCH  12  17
BRANCH  15  28
HETATM   28  C   UNL     1      -9.051  10.268  66.088  1.00  0.00    -0.155 C  
HETATM   29  O   UNL     1      -8.091  11.017  66.232  1.00  0.00    -0.162 OA 
HETATM   30  H   UNL     1     -10.967  10.023  65.267  1.00  0.00     0.000 HD 
HETATM   31  N   UNL     1     -10.182  10.662  65.388  1.00  0.00    -0.281 N  
BRANCH  31  32
HETATM   32  C   UNL     1     -10.224  12.008  64.828  1.00  0.00    -0.279 C  
BRANCH  32  33
HETATM   33  C   UNL     1     -11.139  12.960  65.607  1.00  0.00    -0.279 C  
HETATM   34  H   UNL     1     -12.761  12.800  66.712  1.00  0.00     0.000 HD 
HETATM   35  O   UNL     1     -12.194  12.210  66.229  1.00  0.00    -0.604 OA 
BRANCH  33  36
HETATM   36  C   UNL     1     -10.334  13.736  66.663  1.00  0.00    -0.279 C  
HETATM   37  O   UNL     1      -8.943  13.760  66.351  1.00  0.00    -0.455 OA 
HETATM   38  H   UNL     1      -8.445  14.239  67.003  1.00  0.00     0.000 HD 
ENDBRANCH  33  36
ENDBRANCH  32  33
ENDBRANCH  31  32
ENDBRANCH  15  28
ENDBRANCH   5   8
BRANCH   6  39
HETATM   39  C   UNL     1      -5.319   4.402  65.389  1.00  0.00    -0.009 C  
HETATM   40  O   UNL     1      -5.163   3.201  66.138  1.00  0.00    -0.008 OA 
HETATM   41  H   UNL     1      -4.653   2.541  65.683  1.00  0.00     0.000 HD 
ENDBRANCH   6  39
ENDBRANCH   4   5
ENDBRANCH   3   4
TORSDOF 12
ENDMDL
MODEL       50
REMARK 921   NORMALIZED FREE ENERGY PREDICTED BY IDOCK:   -4.52 KCAL/MOL
REMARK 922        TOTAL FREE ENERGY PREDICTED BY IDOCK:   -7.96 KCAL/MOL
REMARK 923 INTER-LIGAND FREE ENERGY PREDICTED BY IDOCK:   -6.55 KCAL/MOL
REMARK 924 INTRA-LIGAND FREE ENERGY PREDICTED BY IDOCK:   -1.41 KCAL/MOL
REMARK 927      BINDING AFFINITY PREDICTED BY RF-SCORE:    0.00 PKD
ROOT
HETATM    1  O   UNL     1      -6.456   9.328  64.928  1.00  0.00    -0.072 OA 
HETATM    2  H   UNL     1      -6.548   8.403  64.736  1.00  0.00     0.000 HD 
HETATM    3  C   UNL     1      -7.060   9.657  66.170  1.00  0.00    -0.094 C  
ENDROOT
BRANCH   3   4
HETATM    4  C   UNL     1      -6.910  11.151  66.479  1.00  0.00    -0.126 C  
BRANCH   4   5
HETATM    5  N   UNL     1      -7.043  11.521  67.908  1.00  0.00    -0.073 N  
HETATM    6  C   UNL     1      -6.376  12.587  68.518  1.00  0.00    -0.069 C  
HETATM    7  O   UNL     1      -6.648  12.974  69.665  1.00  0.00    -0.083 OA 
BRANCH   5   8
HETATM    8  C   UNL     1      -8.083  10.869  68.665  1.00  0.00    -0.143 A  
HETATM    9  C   UNL     1      -9.413  11.376  68.681  1.00  0.00    -0.163 A  
HETATM   10  C   UNL     1      -7.767   9.750  69.472  1.00  0.00    -0.120 A  
HETATM   11  I   UNL     1      -9.897  13.055  67.379  1.00  0.00    -0.233 I  
HETATM   12  C   UNL     1     -10.432  10.763  69.462  1.00  0.00    -0.205 A  
HETATM   13  I   UNL     1      -5.685   9.298  69.873  1.00  0.00    -0.034 I  
HETATM   14  I   UNL     1     -11.715   8.318  70.960  1.00  0.00    -0.188 I  
HETATM   15  C   UNL     1      -8.789   9.017  70.111  1.00  0.00    -0.196 A  
HETATM   16  C   UNL     1     -10.126   9.527  70.098  1.00  0.00    -0.249 A  
BRANCH  12  17
HETATM   17  C   UNL     1     -11.696  11.546  69.728  1.00  0.00    -0.353 C  
HETATM   18  N   UNL     1     -11.694  12.518  70.700  1.00  0.00    -0.400 N  
HETATM   19  H   UNL     1     -10.874  12.622  71.298  1.00  0.00     0.000 HD 
HETATM   20  O   UNL     1     -12.700  11.317  69.063  1.00  0.00    -0.190 OA 
BRANCH  18  21
HETATM   21  C   UNL     1     -12.839  13.409  70.899  1.00  0.00    -0.205 C  
BRANCH  21  22
HETATM   22  C   UNL     1     -12.516  14.807  70.361  1.00  0.00    -0.349 C  
HETATM   23  O   UNL     1     -13.620  15.685  70.630  1.00  0.00    -0.841 OA 
HETATM   24  H   UNL     1     -13.420  16.551  70.297  1.00  0.00     0.000 HD 
BRANCH  22  25
HETATM   25  C   UNL     1     -11.220  15.380  70.951  1.00  0.00    -0.358 C  
HETATM   26  H   UNL     1     -10.274  15.353  72.685  1.00  0.00     0.000 HD 
HETATM   27  O   UNL     1     -11.076  14.998  72.319  1.00  0.00    -0.192 OA 
ENDBRANCH  22  25
ENDBRANCH  21  22
ENDBRANCH  18  21
ENDBRANCH  12  17
BRANCH  15  28
HETATM   28  C   UNL     1      -8.481   7.737  70.830  1.00  0.00    -0.127 C  
HETATM   29  O   UNL     1      -8.372   6.683  70.214  1.00  0.00    -0.130 OA 
HETATM   30  H   UNL     1      -8.398   8.682  72.703  1.00  0.00     0.000 HD 
HETATM   31  N   UNL     1      -8.316   7.795  72.206  1.00  0.00    -0.111 N  
BRANCH  31  32
HETATM   32  C   UNL     1      -8.020   6.563  72.928  1.00  0.00    -0.105 C  
BRANCH  32  33
HETATM   33  C   UNL     1      -9.203   6.046  73.756  1.00  0.00    -0.128 C  
HETATM   34  H   UNL     1     -10.789   6.826  74.625  1.00  0.00     0.000 HD 
HETATM   35  O   UNL     1     -10.056   7.146  74.112  1.00  0.00    -0.309 OA 
BRANCH  33  36
HETATM   36  C   UNL     1      -9.991   4.987  72.966  1.00  0.00    -0.161 C  
HETATM   37  O   UNL     1      -9.136   4.208  72.132  1.00  0.00    -0.116 OA 
HETATM   38  H   UNL     1      -9.622   3.554  71.644  1.00  0.00     0.000 HD 
ENDBRANCH  33  36
ENDBRANCH  32  33
ENDBRANCH  31  32
ENDBRANCH  15  28
ENDBRANCH   5   8
BRANCH   6  39
HETATM   39  C   UNL     1      -5.290  13.321  67.717  1.00  0.00    -0.088 C  
HETATM   40  O   UNL     1      -5.627  14.673  67.425  1.00  0.00    -0.340 OA 
HETATM   41  H   UNL     1      -4.955  15.127  66.929  1.00  0.00     0.000 HD 
ENDBRANCH   6  39
ENDBRANCH   4   5
ENDBRANCH   3   4
TORSDOF 12
ENDMDL
MODEL       51
REMARK 921   NORMALIZED FREE ENERGY PREDICTED BY IDOCK:   -4.51 KCAL/MOL
REMARK 922        TOTAL FREE ENERGY PREDICTED BY IDOCK:   -7.95 KCAL/MOL
REMARK 923 INTER-LIGAND FREE ENERGY PREDICTED BY IDOCK:   -7.79 KCAL/MOL
REMARK 924 INTRA-LIGAND FREE ENERGY PREDICTED BY IDOCK:   -0.16 KCAL/MOL
REMARK 927      BINDING AFFINITY PREDICTED BY RF-SCORE:    0.00 PKD
ROOT
HETATM    1  O   UNL     1      -6.775  19.635  70.069  1.00  0.00    -0.266 OA 
HETATM    2  H   UNL     1      -6.601  20.560  70.198  1.00  0.00     0.000 HD 
HETATM    3  C   UNL     1      -5.848  19.060  69.160  1.00  0.00    -0.225 C  
ENDROOT
BRANCH   3   4
HETATM    4  C   UNL     1      -6.130  17.568  68.952  1.00  0.00    -0.195 C  
BRANCH   4   5
HETATM    5  N   UNL     1      -7.062  17.245  67.847  1.00  0.00    -0.165 N  
HETATM    6  C   UNL     1      -6.985  17.782  66.559  1.00  0.00    -0.230 C  
HETATM    7  O   UNL     1      -7.669  17.355  65.615  1.00  0.00    -0.452 OA 
BRANCH   5   8
HETATM    8  C   UNL     1      -7.981  16.152  68.055  1.00  0.00    -0.145 A  
HETATM    9  C   UNL     1      -9.323  16.385  68.464  1.00  0.00    -0.225 A  
HETATM   10  C   UNL     1      -7.524  14.818  67.930  1.00  0.00    -0.145 A  
HETATM   11  I   UNL     1     -10.028  18.444  68.583  1.00  0.00    -0.248 I  
HETATM   12  C   UNL     1     -10.221  15.309  68.714  1.00  0.00    -0.227 A  
HETATM   13  I   UNL     1      -5.391  14.442  67.835  1.00  0.00     0.124 I  
HETATM   14  I   UNL     1     -11.212  12.352  68.340  1.00  0.00    -0.409 I  
HETATM   15  C   UNL     1      -8.434  13.741  67.995  1.00  0.00    -0.176 A  
HETATM   16  C   UNL     1      -9.787  13.994  68.383  1.00  0.00    -0.232 A  
BRANCH  12  17
HETATM   17  C   UNL     1     -11.485  15.599  69.489  1.00  0.00    -0.344 C  
HETATM   18  N   UNL     1     -11.435  15.661  70.861  1.00  0.00    -0.355 N  
HETATM   19  H   UNL     1     -10.571  15.406  71.340  1.00  0.00     0.000 HD 
HETATM   20  O   UNL     1     -12.533  15.792  68.883  1.00  0.00    -0.003 OA 
BRANCH  18  21
HETATM   21  C   UNL     1     -12.590  16.086  71.654  1.00  0.00    -0.311 C  
BRANCH  21  22
HETATM   22  C   UNL     1     -12.774  15.152  72.855  1.00  0.00    -0.421 C  
HETATM   23  O   UNL     1     -13.221  15.917  73.985  1.00  0.00    -0.832 OA 
HETATM   24  H   UNL     1     -13.335  15.338  74.730  1.00  0.00     0.000 HD 
BRANCH  22  25
HETATM   25  C   UNL     1     -13.753  14.006  72.565  1.00  0.00    -0.547 C  
HETATM   26  H   UNL     1     -13.715  12.256  71.650  1.00  0.00     0.000 HD 
HETATM   27  O   UNL     1     -13.109  12.965  71.829  1.00  0.00    -0.399 OA 
ENDBRANCH  22  25
ENDBRANCH  21  22
ENDBRANCH  18  21
ENDBRANCH  12  17
BRANCH  15  28
HETATM   28  C   UNL     1      -7.987  12.340  67.698  1.00  0.00    -0.161 C  
HETATM   29  O   UNL     1      -7.861  11.955  66.542  1.00  0.00    -0.064 OA 
HETATM   30  H   UNL     1      -7.813  11.850  69.732  1.00  0.00     0.000 HD 
HETATM   31  N   UNL     1      -7.714  11.510  68.775  1.00  0.00    -0.137 N  
BRANCH  31  32
HETATM   32  C   UNL     1      -7.283  10.142  68.512  1.00  0.00    -0.080 C  
BRANCH  32  33
HETATM   33  C   UNL     1      -8.400   9.250  67.958  1.00  0.00    -0.120 C  
HETATM   34  H   UNL     1      -8.678   8.133  66.361  1.00  0.00     0.000 HD 
HETATM   35  O   UNL     1      -7.986   8.686  66.704  1.00  0.00    -0.095 OA 
BRANCH  33  36
HETATM   36  C   UNL     1      -8.746   8.137  68.962  1.00  0.00    -0.144 C  
HETATM   37  O   UNL     1      -9.716   8.568  69.914  1.00  0.00    -0.176 OA 
HETATM   38  H   UNL     1      -9.929   7.881  70.534  1.00  0.00     0.000 HD 
ENDBRANCH  33  36
ENDBRANCH  32  33
ENDBRANCH  31  32
ENDBRANCH  15  28
ENDBRANCH   5   8
BRANCH   6  39
HETATM   39  C   UNL     1      -5.987  18.923  66.305  1.00  0.00    -0.163 C  
HETATM   40  O   UNL     1      -6.516  19.955  65.479  1.00  0.00    -0.220 OA 
HETATM   41  H   UNL     1      -5.899  20.661  65.322  1.00  0.00     0.000 HD 
ENDBRANCH   6  39
ENDBRANCH   4   5
ENDBRANCH   3   4
TORSDOF 12
ENDMDL
MODEL       52
REMARK 921   NORMALIZED FREE ENERGY PREDICTED BY IDOCK:   -4.50 KCAL/MOL
REMARK 922        TOTAL FREE ENERGY PREDICTED BY IDOCK:   -7.93 KCAL/MOL
REMARK 923 INTER-LIGAND FREE ENERGY PREDICTED BY IDOCK:   -7.27 KCAL/MOL
REMARK 924 INTRA-LIGAND FREE ENERGY PREDICTED BY IDOCK:   -0.66 KCAL/MOL
REMARK 927      BINDING AFFINITY PREDICTED BY RF-SCORE:    0.00 PKD
ROOT
HETATM    1  O   UNL     1     -13.069  12.491  64.790  1.00  0.00    -0.853 OA 
HETATM    2  H   UNL     1     -13.802  13.046  65.028  1.00  0.00     0.000 HD 
HETATM    3  C   UNL     1     -12.092  12.464  65.821  1.00  0.00    -0.311 C  
ENDROOT
BRANCH   3   4
HETATM    4  C   UNL     1     -10.908  11.568  65.437  1.00  0.00    -0.259 C  
BRANCH   4   5
HETATM    5  N   UNL     1      -9.903  11.351  66.503  1.00  0.00    -0.203 N  
HETATM    6  C   UNL     1      -9.197  12.370  67.149  1.00  0.00    -0.199 C  
HETATM    7  O   UNL     1      -8.499  12.163  68.154  1.00  0.00    -0.162 OA 
BRANCH   5   8
HETATM    8  C   UNL     1      -9.798  10.021  67.051  1.00  0.00    -0.189 A  
HETATM    9  C   UNL     1     -10.448   9.671  68.267  1.00  0.00    -0.219 A  
HETATM   10  C   UNL     1      -8.971   9.063  66.415  1.00  0.00    -0.155 A  
HETATM   11  I   UNL     1     -11.770  11.134  69.193  1.00  0.00    -0.387 I  
HETATM   12  C   UNL     1     -10.311   8.373  68.836  1.00  0.00    -0.231 A  
HETATM   13  I   UNL     1      -7.578   9.723  64.891  1.00  0.00    -0.141 I  
HETATM   14  I   UNL     1      -9.738   5.290  68.657  1.00  0.00    -0.224 I  
HETATM   15  C   UNL     1      -8.961   7.722  66.855  1.00  0.00    -0.153 A  
HETATM   16  C   UNL     1      -9.640   7.381  68.068  1.00  0.00    -0.141 A  
BRANCH  12  17
HETATM   17  C   UNL     1     -10.705   8.183  70.282  1.00  0.00    -0.235 C  
HETATM   18  N   UNL     1      -9.804   8.496  71.273  1.00  0.00    -0.197 N  
HETATM   19  H   UNL     1      -8.850   8.750  71.016  1.00  0.00     0.000 HD 
HETATM   20  O   UNL     1     -11.826   7.768  70.553  1.00  0.00    -0.188 OA 
BRANCH  18  21
HETATM   21  C   UNL     1     -10.180   8.475  72.687  1.00  0.00    -0.167 C  
BRANCH  21  22
HETATM   22  C   UNL     1      -9.617   7.220  73.362  1.00  0.00    -0.226 C  
HETATM   23  O   UNL     1     -10.165   6.055  72.725  1.00  0.00    -0.180 OA 
HETATM   24  H   UNL     1      -9.817   5.276  73.143  1.00  0.00     0.000 HD 
BRANCH  22  25
HETATM   25  C   UNL     1      -8.083   7.173  73.332  1.00  0.00    -0.108 C  
HETATM   26  H   UNL     1      -6.669   6.614  72.072  1.00  0.00     0.000 HD 
HETATM   27  O   UNL     1      -7.618   6.643  72.091  1.00  0.00    -0.094 OA 
ENDBRANCH  22  25
ENDBRANCH  21  22
ENDBRANCH  18  21
ENDBRANCH  12  17
BRANCH  15  28
HETATM   28  C   UNL     1      -8.219   6.669  66.087  1.00  0.00    -0.124 C  
HETATM   29  O   UNL     1      -7.052   6.407  66.352  1.00  0.00    -0.065 OA 
HETATM   30  H   UNL     1      -9.880   6.223  64.884  1.00  0.00     0.000 HD 
HETATM   31  N   UNL     1      -8.905   6.001  65.083  1.00  0.00    -0.018 N  
BRANCH  31  32
HETATM   32  C   UNL     1      -8.203   4.976  64.320  1.00  0.00    -0.128 C  
BRANCH  32  33
HETATM   33  C   UNL     1      -8.969   3.649  64.238  1.00  0.00    -0.120 C  
HETATM   34  H   UNL     1      -9.542   2.249  65.498  1.00  0.00     0.000 HD 
HETATM   35  O   UNL     1      -9.067   3.071  65.549  1.00  0.00    -0.144 OA 
BRANCH  33  36
HETATM   36  C   UNL     1     -10.369   3.873  63.641  1.00  0.00    -0.191 C  
HETATM   37  O   UNL     1     -11.357   4.027  64.657  1.00  0.00    -0.764 OA 
HETATM   38  H   UNL     1     -12.221   4.165  64.288  1.00  0.00     0.000 HD 
ENDBRANCH  33  36
ENDBRANCH  32  33
ENDBRANCH  31  32
ENDBRANCH  15  28
ENDBRANCH   5   8
BRANCH   6  39
HETATM   39  C   UNL     1      -9.323  13.801  66.604  1.00  0.00    -0.264 C  
HETATM   40  O   UNL     1      -9.952  14.693  67.519  1.00  0.00    -0.222 OA 
HETATM   41  H   UNL     1     -10.030  15.579  67.182  1.00  0.00     0.000 HD 
ENDBRANCH   6  39
ENDBRANCH   4   5
ENDBRANCH   3   4
TORSDOF 12
ENDMDL
MODEL       53
REMARK 921   NORMALIZED FREE ENERGY PREDICTED BY IDOCK:   -4.50 KCAL/MOL
REMARK 922        TOTAL FREE ENERGY PREDICTED BY IDOCK:   -7.93 KCAL/MOL
REMARK 923 INTER-LIGAND FREE ENERGY PREDICTED BY IDOCK:   -7.08 KCAL/MOL
REMARK 924 INTRA-LIGAND FREE ENERGY PREDICTED BY IDOCK:   -0.84 KCAL/MOL
REMARK 927      BINDING AFFINITY PREDICTED BY RF-SCORE:    0.00 PKD
ROOT
HETATM    1  O   UNL     1      -5.315   7.187  68.559  1.00  0.00    -0.019 OA 
HETATM    2  H   UNL     1      -4.961   8.015  68.860  1.00  0.00     0.000 HD 
HETATM    3  C   UNL     1      -5.500   7.189  67.152  1.00  0.00    -0.021 C  
ENDROOT
BRANCH   3   4
HETATM    4  C   UNL     1      -6.071   5.851  66.667  1.00  0.00    -0.026 C  
BRANCH   4   5
HETATM    5  N   UNL     1      -7.506   5.869  66.299  1.00  0.00    -0.084 N  
HETATM    6  C   UNL     1      -8.166   4.839  65.622  1.00  0.00    -0.113 C  
HETATM    7  O   UNL     1      -9.400   4.811  65.491  1.00  0.00    -0.152 OA 
BRANCH   5   8
HETATM    8  C   UNL     1      -8.318   6.924  66.855  1.00  0.00    -0.114 A  
HETATM    9  C   UNL     1      -8.962   6.772  68.114  1.00  0.00    -0.118 A  
HETATM   10  C   UNL     1      -8.547   8.102  66.105  1.00  0.00    -0.139 A  
HETATM   11  I   UNL     1      -8.541   4.983  69.284  1.00  0.00    -0.118 I  
HETATM   12  C   UNL     1      -9.800   7.792  68.647  1.00  0.00    -0.174 A  
HETATM   13  I   UNL     1      -8.025   8.128  64.001  1.00  0.00    -0.019 I  
HETATM   14  I   UNL     1     -10.756  10.772  68.905  1.00  0.00    -0.344 I  
HETATM   15  C   UNL     1      -9.223   9.198  66.683  1.00  0.00    -0.207 A  
HETATM   16  C   UNL     1      -9.845   9.038  67.962  1.00  0.00    -0.166 A  
BRANCH  12  17
HETATM   17  C   UNL     1     -10.732   7.430  69.780  1.00  0.00    -0.241 C  
HETATM   18  N   UNL     1     -10.511   7.957  71.030  1.00  0.00    -0.203 N  
HETATM   19  H   UNL     1      -9.662   8.496  71.199  1.00  0.00     0.000 HD 
HETATM   20  O   UNL     1     -11.683   6.685  69.565  1.00  0.00    -0.263 OA 
BRANCH  18  21
HETATM   21  C   UNL     1     -11.462   7.764  72.126  1.00  0.00    -0.310 C  
BRANCH  21  22
HETATM   22  C   UNL     1     -10.732   7.247  73.370  1.00  0.00    -0.369 C  
HETATM   23  O   UNL     1     -11.202   5.926  73.680  1.00  0.00    -0.427 OA 
HETATM   24  H   UNL     1     -10.750   5.606  74.452  1.00  0.00     0.000 HD 
BRANCH  22  25
HETATM   25  C   UNL     1      -9.207   7.245  73.199  1.00  0.00    -0.159 C  
HETATM   26  H   UNL     1      -7.743   8.570  73.176  1.00  0.00     0.000 HD 
HETATM   27  O   UNL     1      -8.687   8.572  73.282  1.00  0.00    -0.337 OA 
ENDBRANCH  22  25
ENDBRANCH  21  22
ENDBRANCH  18  21
ENDBRANCH  12  17
BRANCH  15  28
HETATM   28  C   UNL     1      -9.324  10.507  65.957  1.00  0.00    -0.178 C  
HETATM   29  O   UNL     1      -8.396  11.306  65.976  1.00  0.00    -0.153 OA 
HETATM   30  H   UNL     1     -11.254  10.086  65.247  1.00  0.00     0.000 HD 
HETATM   31  N   UNL     1     -10.496  10.768  65.262  1.00  0.00    -0.248 N  
BRANCH  31  32
HETATM   32  C   UNL     1     -10.620  12.036  64.552  1.00  0.00    -0.313 C  
BRANCH  32  33
HETATM   33  C   UNL     1     -11.069  13.193  65.453  1.00  0.00    -0.278 C  
HETATM   34  H   UNL     1     -10.575  15.083  65.704  1.00  0.00     0.000 HD 
HETATM   35  O   UNL     1     -10.297  14.365  65.147  1.00  0.00    -0.377 OA 
BRANCH  33  36
HETATM   36  C   UNL     1     -12.569  13.471  65.262  1.00  0.00    -0.468 C  
HETATM   37  O   UNL     1     -13.247  12.348  64.704  1.00  0.00    -0.822 OA 
HETATM   38  H   UNL     1     -14.174  12.520  64.587  1.00  0.00     0.000 HD 
ENDBRANCH  33  36
ENDBRANCH  32  33
ENDBRANCH  31  32
ENDBRANCH  15  28
ENDBRANCH   5   8
BRANCH   6  39
HETATM   39  C   UNL     1      -7.325   3.686  65.053  1.00  0.00    -0.072 C  
HETATM   40  O   UNL     1      -7.332   3.637  63.630  1.00  0.00    -0.050 OA 
HETATM   41  H   UNL     1      -6.812   2.923  63.279  1.00  0.00     0.000 HD 
ENDBRANCH   6  39
ENDBRANCH   4   5
ENDBRANCH   3   4
TORSDOF 12
ENDMDL
MODEL       54
REMARK 921   NORMALIZED FREE ENERGY PREDICTED BY IDOCK:   -4.48 KCAL/MOL
REMARK 922        TOTAL FREE ENERGY PREDICTED BY IDOCK:   -7.91 KCAL/MOL
REMARK 923 INTER-LIGAND FREE ENERGY PREDICTED BY IDOCK:   -8.54 KCAL/MOL
REMARK 924 INTRA-LIGAND FREE ENERGY PREDICTED BY IDOCK:    0.63 KCAL/MOL
REMARK 927      BINDING AFFINITY PREDICTED BY RF-SCORE:    0.00 PKD
ROOT
HETATM    1  O   UNL     1     -10.942  10.898  63.892  1.00  0.00    -0.478 OA 
HETATM    2  H   UNL     1     -10.828  11.189  62.995  1.00  0.00     0.000 HD 
HETATM    3  C   UNL     1      -9.702  10.868  64.583  1.00  0.00    -0.280 C  
ENDROOT
BRANCH   3   4
HETATM    4  C   UNL     1      -9.887  10.398  66.031  1.00  0.00    -0.232 C  
BRANCH   4   5
HETATM    5  N   UNL     1      -9.230  11.236  67.061  1.00  0.00    -0.163 N  
HETATM    6  C   UNL     1      -7.859  11.506  67.110  1.00  0.00    -0.160 C  
HETATM    7  O   UNL     1      -7.373  12.352  67.877  1.00  0.00    -0.091 OA 
BRANCH   5   8
HETATM    8  C   UNL     1     -10.086  11.987  67.946  1.00  0.00    -0.195 A  
HETATM    9  C   UNL     1     -10.740  11.363  69.044  1.00  0.00    -0.205 A  
HETATM   10  C   UNL     1     -10.348  13.352  67.677  1.00  0.00    -0.238 A  
HETATM   11  I   UNL     1     -10.270   9.281  69.483  1.00  0.00    -0.268 I  
HETATM   12  C   UNL     1     -11.621  12.090  69.895  1.00  0.00    -0.315 A  
HETATM   13  I   UNL     1      -9.801  14.167  65.744  1.00  0.00    -0.115 I  
HETATM   14  I   UNL     1     -12.686  14.736  71.208  1.00  0.00    -0.526 I  
HETATM   15  C   UNL     1     -11.069  14.138  68.602  1.00  0.00    -0.283 A  
HETATM   16  C   UNL     1     -11.701  13.499  69.716  1.00  0.00    -0.295 A  
BRANCH  12  17
HETATM   17  C   UNL     1     -12.553  11.309  70.791  1.00  0.00    -0.332 C  
HETATM   18  N   UNL     1     -13.348  10.328  70.245  1.00  0.00    -0.411 N  
HETATM   19  H   UNL     1     -13.374  10.216  69.232  1.00  0.00     0.000 HD 
HETATM   20  O   UNL     1     -12.577  11.548  71.993  1.00  0.00    -0.128 OA 
BRANCH  18  21
HETATM   21  C   UNL     1     -14.157   9.440  71.083  1.00  0.00     0.109 C  
BRANCH  21  22
HETATM   22  C   UNL     1     -13.249   8.603  71.989  1.00  0.00    -0.386 C  
HETATM   23  O   UNL     1     -13.590   8.852  73.362  1.00  0.00    -0.970 OA 
HETATM   24  H   UNL     1     -13.028   8.333  73.924  1.00  0.00     0.000 HD 
BRANCH  22  25
HETATM   25  C   UNL     1     -13.334   7.101  71.682  1.00  0.00    -0.331 C  
HETATM   26  H   UNL     1     -12.632   5.852  70.323  1.00  0.00     0.000 HD 
HETATM   27  O   UNL     1     -12.579   6.781  70.513  1.00  0.00    -0.211 OA 
ENDBRANCH  22  25
ENDBRANCH  21  22
ENDBRANCH  18  21
ENDBRANCH  12  17
BRANCH  15  28
HETATM   28  C   UNL     1     -11.209  15.618  68.406  1.00  0.00    -0.352 C  
HETATM   29  O   UNL     1     -12.199  16.087  67.858  1.00  0.00     0.397 OA 
HETATM   30  H   UNL     1      -9.374  16.023  69.343  1.00  0.00     0.000 HD 
HETATM   31  N   UNL     1     -10.186  16.428  68.878  1.00  0.00    -0.242 N  
BRANCH  31  32
HETATM   32  C   UNL     1     -10.296  17.871  68.695  1.00  0.00    -0.337 C  
BRANCH  32  33
HETATM   33  C   UNL     1      -9.059  18.496  68.039  1.00  0.00    -0.301 C  
HETATM   34  H   UNL     1      -7.248  19.017  68.609  1.00  0.00     0.000 HD 
HETATM   35  O   UNL     1      -8.015  18.630  69.016  1.00  0.00    -0.253 OA 
BRANCH  33  36
HETATM   36  C   UNL     1      -8.584  17.634  66.857  1.00  0.00    -0.242 C  
HETATM   37  O   UNL     1      -9.490  17.701  65.758  1.00  0.00    -0.516 OA 
HETATM   38  H   UNL     1      -9.196  17.168  65.028  1.00  0.00     0.000 HD 
ENDBRANCH  33  36
ENDBRANCH  32  33
ENDBRANCH  31  32
ENDBRANCH  15  28
ENDBRANCH   5   8
BRANCH   6  39
HETATM   39  C   UNL     1      -6.933  10.743  66.150  1.00  0.00    -0.124 C  
HETATM   40  O   UNL     1      -6.574   9.451  66.628  1.00  0.00    -0.066 OA 
HETATM   41  H   UNL     1      -6.000   8.980  66.034  1.00  0.00     0.000 HD 
ENDBRANCH   6  39
ENDBRANCH   4   5
ENDBRANCH   3   4
TORSDOF 12
ENDMDL
MODEL       55
REMARK 921   NORMALIZED FREE ENERGY PREDICTED BY IDOCK:   -4.48 KCAL/MOL
REMARK 922        TOTAL FREE ENERGY PREDICTED BY IDOCK:   -7.90 KCAL/MOL
REMARK 923 INTER-LIGAND FREE ENERGY PREDICTED BY IDOCK:   -6.92 KCAL/MOL
REMARK 924 INTRA-LIGAND FREE ENERGY PREDICTED BY IDOCK:   -0.98 KCAL/MOL
REMARK 927      BINDING AFFINITY PREDICTED BY RF-SCORE:    0.00 PKD
ROOT
HETATM    1  O   UNL     1     -11.404   7.936  71.377  1.00  0.00    -0.244 OA 
HETATM    2  H   UNL     1     -12.133   8.270  71.886  1.00  0.00     0.000 HD 
HETATM    3  C   UNL     1     -11.591   8.184  69.991  1.00  0.00     0.189 C  
ENDROOT
BRANCH   3   4
HETATM    4  C   UNL     1     -10.414   7.644  69.170  1.00  0.00    -0.214 C  
BRANCH   4   5
HETATM    5  N   UNL     1      -9.370   8.637  68.826  1.00  0.00    -0.142 N  
HETATM    6  C   UNL     1      -8.243   8.908  69.607  1.00  0.00    -0.114 C  
HETATM    7  O   UNL     1      -7.305   9.613  69.201  1.00  0.00    -0.072 OA 
BRANCH   5   8
HETATM    8  C   UNL     1      -9.415   9.211  67.503  1.00  0.00    -0.139 A  
HETATM    9  C   UNL     1     -10.078  10.445  67.257  1.00  0.00    -0.200 A  
HETATM   10  C   UNL     1      -8.860   8.501  66.412  1.00  0.00    -0.150 A  
HETATM   11  I   UNL     1     -10.865  11.557  68.958  1.00  0.00    -0.195 I  
HETATM   12  C   UNL     1     -10.164  10.994  65.946  1.00  0.00    -0.309 A  
HETATM   13  I   UNL     1      -8.330   6.415  66.674  1.00  0.00    -0.124 I  
HETATM   14  I   UNL     1      -9.158  11.340  62.991  1.00  0.00     0.008 I  
HETATM   15  C   UNL     1      -8.771   9.103  65.138  1.00  0.00    -0.228 A  
HETATM   16  C   UNL     1      -9.423  10.357  64.912  1.00  0.00    -0.265 A  
BRANCH  12  17
HETATM   17  C   UNL     1     -11.178  12.085  65.694  1.00  0.00    -0.327 C  
HETATM   18  N   UNL     1     -10.799  13.400  65.826  1.00  0.00    -0.273 N  
HETATM   19  H   UNL     1      -9.873  13.617  66.195  1.00  0.00     0.000 HD 
HETATM   20  O   UNL     1     -12.318  11.784  65.358  1.00  0.00    -0.217 OA 
BRANCH  18  21
HETATM   21  C   UNL     1     -11.692  14.498  65.449  1.00  0.00    -0.354 C  
BRANCH  21  22
HETATM   22  C   UNL     1     -10.875  15.674  64.903  1.00  0.00    -0.418 C  
HETATM   23  O   UNL     1     -11.635  16.347  63.887  1.00  0.00    -1.564 OA 
HETATM   24  H   UNL     1     -11.130  17.076  63.549  1.00  0.00     0.000 HD 
BRANCH  22  25
HETATM   25  C   UNL     1     -10.459  16.662  66.001  1.00  0.00    -0.298 C  
HETATM   26  H   UNL     1      -8.807  17.567  66.596  1.00  0.00     0.000 HD 
HETATM   27  O   UNL     1      -9.064  16.955  65.916  1.00  0.00    -0.504 OA 
ENDBRANCH  22  25
ENDBRANCH  21  22
ENDBRANCH  18  21
ENDBRANCH  12  17
BRANCH  15  28
HETATM   28  C   UNL     1      -8.037   8.426  64.019  1.00  0.00    -0.142 C  
HETATM   29  O   UNL     1      -8.640   7.751  63.192  1.00  0.00     0.116 OA 
HETATM   30  H   UNL     1      -6.177   9.174  64.642  1.00  0.00     0.000 HD 
HETATM   31  N   UNL     1      -6.662   8.601  63.952  1.00  0.00    -0.082 N  
BRANCH  31  32
HETATM   32  C   UNL     1      -5.926   7.948  62.876  1.00  0.00    -0.071 C  
BRANCH  32  33
HETATM   33  C   UNL     1      -5.247   6.643  63.310  1.00  0.00    -0.026 C  
HETATM   34  H   UNL     1      -4.742   5.791  65.012  1.00  0.00     0.000 HD 
HETATM   35  O   UNL     1      -5.162   6.600  64.743  1.00  0.00    -0.024 OA 
BRANCH  33  36
HETATM   36  C   UNL     1      -6.029   5.429  62.780  1.00  0.00    -0.014 C  
HETATM   37  O   UNL     1      -6.563   4.641  63.842  1.00  0.00    -0.039 OA 
HETATM   38  H   UNL     1      -7.046   3.891  63.515  1.00  0.00     0.000 HD 
ENDBRANCH  33  36
ENDBRANCH  32  33
ENDBRANCH  31  32
ENDBRANCH  15  28
ENDBRANCH   5   8
BRANCH   6  39
HETATM   39  C   UNL     1      -8.157   8.278  71.005  1.00  0.00    -0.110 C  
HETATM   40  O   UNL     1      -8.827   9.040  72.004  1.00  0.00    -0.373 OA 
HETATM   41  H   UNL     1      -8.774   8.650  72.869  1.00  0.00     0.000 HD 
ENDBRANCH   6  39
ENDBRANCH   4   5
ENDBRANCH   3   4
TORSDOF 12
ENDMDL
MODEL       56
REMARK 921   NORMALIZED FREE ENERGY PREDICTED BY IDOCK:   -4.47 KCAL/MOL
REMARK 922        TOTAL FREE ENERGY PREDICTED BY IDOCK:   -7.88 KCAL/MOL
REMARK 923 INTER-LIGAND FREE ENERGY PREDICTED BY IDOCK:   -6.99 KCAL/MOL
REMARK 924 INTRA-LIGAND FREE ENERGY PREDICTED BY IDOCK:   -0.89 KCAL/MOL
REMARK 927      BINDING AFFINITY PREDICTED BY RF-SCORE:    0.00 PKD
ROOT
HETATM    1  O   UNL     1      -6.728  11.485  66.232  1.00  0.00    -0.354 OA 
HETATM    2  H   UNL     1      -6.515  12.124  66.901  1.00  0.00     0.000 HD 
HETATM    3  C   UNL     1      -6.546  10.161  66.712  1.00  0.00    -0.073 C  
ENDROOT
BRANCH   3   4
HETATM    4  C   UNL     1      -6.890   9.129  65.632  1.00  0.00    -0.077 C  
BRANCH   4   5
HETATM    5  N   UNL     1      -8.043   8.250  65.936  1.00  0.00    -0.100 N  
HETATM    6  C   UNL     1      -8.357   7.080  65.239  1.00  0.00    -0.096 C  
HETATM    7  O   UNL     1      -9.220   6.280  65.634  1.00  0.00    -0.047 OA 
BRANCH   5   8
HETATM    8  C   UNL     1      -8.767   8.509  67.158  1.00  0.00    -0.129 A  
HETATM    9  C   UNL     1      -9.725   9.557  67.239  1.00  0.00    -0.167 A  
HETATM   10  C   UNL     1      -8.466   7.762  68.322  1.00  0.00    -0.124 A  
HETATM   11  I   UNL     1     -10.225  10.648  65.420  1.00  0.00    -0.210 I  
HETATM   12  C   UNL     1     -10.409   9.845  68.454  1.00  0.00    -0.226 A  
HETATM   13  I   UNL     1      -6.669   6.550  68.360  1.00  0.00    -0.075 I  
HETATM   14  I   UNL     1     -11.531   9.065  71.282  1.00  0.00    -0.471 I  
HETATM   15  C   UNL     1      -9.252   7.904  69.486  1.00  0.00    -0.152 A  
HETATM   16  C   UNL     1     -10.230   8.948  69.544  1.00  0.00    -0.204 A  
BRANCH  12  17
HETATM   17  C   UNL     1     -11.117  11.174  68.576  1.00  0.00    -0.244 C  
HETATM   18  N   UNL     1     -10.376  12.318  68.754  1.00  0.00    -0.373 N  
HETATM   19  H   UNL     1      -9.371  12.241  68.908  1.00  0.00     0.000 HD 
HETATM   20  O   UNL     1     -12.340  11.216  68.497  1.00  0.00    -0.561 OA 
BRANCH  18  21
HETATM   21  C   UNL     1     -10.993  13.646  68.728  1.00  0.00    -0.264 C  
BRANCH  21  22
HETATM   22  C   UNL     1     -11.058  14.222  70.147  1.00  0.00     0.037 C  
HETATM   23  O   UNL     1     -10.211  15.380  70.225  1.00  0.00    -0.434 OA 
HETATM   24  H   UNL     1     -10.251  15.737  71.104  1.00  0.00     0.000 HD 
BRANCH  22  25
HETATM   25  C   UNL     1     -12.489  14.576  70.574  1.00  0.00    -0.344 C  
HETATM   26  H   UNL     1     -13.948  13.739  71.608  1.00  0.00     0.000 HD 
HETATM   27  O   UNL     1     -13.062  13.519  71.343  1.00  0.00    -0.341 OA 
ENDBRANCH  22  25
ENDBRANCH  21  22
ENDBRANCH  18  21
ENDBRANCH  12  17
BRANCH  15  28
HETATM   28  C   UNL     1      -9.047   7.001  70.665  1.00  0.00    -0.158 C  
HETATM   29  O   UNL     1      -9.652   5.939  70.754  1.00  0.00    -0.165 OA 
HETATM   30  H   UNL     1      -7.641   8.289  71.544  1.00  0.00     0.000 HD 
HETATM   31  N   UNL     1      -8.145   7.408  71.638  1.00  0.00    -0.098 N  
BRANCH  31  32
HETATM   32  C   UNL     1      -7.932   6.549  72.797  1.00  0.00    -0.102 C  
BRANCH  32  33
HETATM   33  C   UNL     1      -8.546   7.107  74.087  1.00  0.00    -0.191 C  
HETATM   34  H   UNL     1      -8.849   8.887  74.872  1.00  0.00     0.000 HD 
HETATM   35  O   UNL     1      -8.468   8.541  74.073  1.00  0.00    -0.298 OA 
BRANCH  33  36
HETATM   36  C   UNL     1     -10.007   6.648  74.229  1.00  0.00    -0.345 C  
HETATM   37  O   UNL     1     -10.267   5.474  73.463  1.00  0.00    -0.181 OA 
HETATM   38  H   UNL     1     -11.170   5.190  73.551  1.00  0.00     0.000 HD 
ENDBRANCH  33  36
ENDBRANCH  32  33
ENDBRANCH  31  32
ENDBRANCH  15  28
ENDBRANCH   5   8
BRANCH   6  39
HETATM   39  C   UNL     1      -7.574   6.765  63.955  1.00  0.00    -0.108 C  
HETATM   40  O   UNL     1      -8.361   6.892  62.775  1.00  0.00    -0.314 OA 
HETATM   41  H   UNL     1      -7.876   6.698  61.981  1.00  0.00     0.000 HD 
ENDBRANCH   6  39
ENDBRANCH   4   5
ENDBRANCH   3   4
TORSDOF 12
ENDMDL
MODEL       57
REMARK 921   NORMALIZED FREE ENERGY PREDICTED BY IDOCK:   -4.47 KCAL/MOL
REMARK 922        TOTAL FREE ENERGY PREDICTED BY IDOCK:   -7.88 KCAL/MOL
REMARK 923 INTER-LIGAND FREE ENERGY PREDICTED BY IDOCK:   -7.41 KCAL/MOL
REMARK 924 INTRA-LIGAND FREE ENERGY PREDICTED BY IDOCK:   -0.47 KCAL/MOL
REMARK 927      BINDING AFFINITY PREDICTED BY RF-SCORE:    0.00 PKD
ROOT
HETATM    1  O   UNL     1      -7.399  18.779  65.573  1.00  0.00    -0.501 OA 
HETATM    2  H   UNL     1      -8.023  19.473  65.396  1.00  0.00     0.000 HD 
HETATM    3  C   UNL     1      -8.007  17.715  66.289  1.00  0.00    -0.257 C  
ENDROOT
BRANCH   3   4
HETATM    4  C   UNL     1      -6.999  16.595  66.574  1.00  0.00    -0.141 C  
BRANCH   4   5
HETATM    5  N   UNL     1      -7.149  15.924  67.887  1.00  0.00    -0.123 N  
HETATM    6  C   UNL     1      -6.728  16.461  69.107  1.00  0.00    -0.205 C  
HETATM    7  O   UNL     1      -7.030  15.954  70.198  1.00  0.00     0.049 OA 
BRANCH   5   8
HETATM    8  C   UNL     1      -7.964  14.735  67.932  1.00  0.00    -0.140 A  
HETATM    9  C   UNL     1      -9.351  14.805  68.242  1.00  0.00    -0.199 A  
HETATM   10  C   UNL     1      -7.367  13.466  67.744  1.00  0.00    -0.157 A  
HETATM   11  I   UNL     1     -10.268  16.770  68.459  1.00  0.00    -0.361 I  
HETATM   12  C   UNL     1     -10.152  13.631  68.332  1.00  0.00    -0.241 A  
HETATM   13  I   UNL     1      -5.205  13.303  67.802  1.00  0.00     0.100 I  
HETATM   14  I   UNL     1     -10.806  10.636  67.650  1.00  0.00    -0.351 I  
HETATM   15  C   UNL     1      -8.165  12.306  67.648  1.00  0.00    -0.166 A  
HETATM   16  C   UNL     1      -9.563  12.396  67.939  1.00  0.00    -0.205 A  
BRANCH  12  17
HETATM   17  C   UNL     1     -11.494  13.733  69.017  1.00  0.00    -0.305 C  
HETATM   18  N   UNL     1     -11.563  13.629  70.386  1.00  0.00    -0.522 N  
HETATM   19  H   UNL     1     -10.723  13.377  70.908  1.00  0.00     0.000 HD 
HETATM   20  O   UNL     1     -12.502  13.926  68.345  1.00  0.00    -0.114 OA 
BRANCH  18  21
HETATM   21  C   UNL     1     -12.810  13.869  71.114  1.00  0.00    -0.351 C  
BRANCH  21  22
HETATM   22  C   UNL     1     -12.966  15.365  71.407  1.00  0.00    -0.461 C  
HETATM   23  O   UNL     1     -14.265  15.604  71.970  1.00  0.00    -0.491 OA 
HETATM   24  H   UNL     1     -14.362  16.531  72.151  1.00  0.00     0.000 HD 
BRANCH  22  25
HETATM   25  C   UNL     1     -11.872  15.899  72.342  1.00  0.00    -0.513 C  
HETATM   26  H   UNL     1     -11.492  15.911  74.280  1.00  0.00     0.000 HD 
HETATM   27  O   UNL     1     -12.169  15.581  73.702  1.00  0.00    -0.464 OA 
ENDBRANCH  22  25
ENDBRANCH  21  22
ENDBRANCH  18  21
ENDBRANCH  12  17
BRANCH  15  28
HETATM   28  C   UNL     1      -7.557  10.984  67.284  1.00  0.00    -0.111 C  
HETATM   29  O   UNL     1      -7.318  10.706  66.115  1.00  0.00    -0.130 OA 
HETATM   30  H   UNL     1      -7.465  10.353  69.284  1.00  0.00     0.000 HD 
HETATM   31  N   UNL     1      -7.270  10.102  68.315  1.00  0.00    -0.079 N  
BRANCH  31  32
HETATM   32  C   UNL     1      -6.683   8.808  67.985  1.00  0.00    -0.069 C  
BRANCH  32  33
HETATM   33  C   UNL     1      -7.713   7.673  67.922  1.00  0.00    -0.115 C  
HETATM   34  H   UNL     1      -8.659   6.679  66.510  1.00  0.00     0.000 HD 
HETATM   35  O   UNL     1      -8.022   7.382  66.550  1.00  0.00    -0.105 OA 
BRANCH  33  36
HETATM   36  C   UNL     1      -7.175   6.419  68.631  1.00  0.00    -0.085 C  
HETATM   37  O   UNL     1      -7.994   6.047  69.737  1.00  0.00    -0.102 OA 
HETATM   38  H   UNL     1      -7.662   5.272  70.175  1.00  0.00     0.000 HD 
ENDBRANCH  33  36
ENDBRANCH  32  33
ENDBRANCH  31  32
ENDBRANCH  15  28
ENDBRANCH   5   8
BRANCH   6  39
HETATM   39  C   UNL     1      -5.888  17.748  69.084  1.00  0.00    -0.209 C  
HETATM   40  O   UNL     1      -6.655  18.920  69.341  1.00  0.00    -0.288 OA 
HETATM   41  H   UNL     1      -6.135  19.716  69.327  1.00  0.00     0.000 HD 
ENDBRANCH   6  39
ENDBRANCH   4   5
ENDBRANCH   3   4
TORSDOF 12
ENDMDL
MODEL       58
REMARK 921   NORMALIZED FREE ENERGY PREDICTED BY IDOCK:   -4.46 KCAL/MOL
REMARK 922        TOTAL FREE ENERGY PREDICTED BY IDOCK:   -7.87 KCAL/MOL
REMARK 923 INTER-LIGAND FREE ENERGY PREDICTED BY IDOCK:   -6.92 KCAL/MOL
REMARK 924 INTRA-LIGAND FREE ENERGY PREDICTED BY IDOCK:   -0.95 KCAL/MOL
REMARK 927      BINDING AFFINITY PREDICTED BY RF-SCORE:    0.00 PKD
ROOT
HETATM    1  O   UNL     1      -9.292   3.621  63.875  1.00  0.00    -0.121 OA 
HETATM    2  H   UNL     1      -9.682   3.793  63.026  1.00  0.00     0.000 HD 
HETATM    3  C   UNL     1      -9.950   4.352  64.899  1.00  0.00    -0.124 C  
ENDROOT
BRANCH   3   4
HETATM    4  C   UNL     1      -9.321   4.074  66.269  1.00  0.00    -0.174 C  
BRANCH   4   5
HETATM    5  N   UNL     1      -8.412   5.128  66.777  1.00  0.00    -0.107 N  
HETATM    6  C   UNL     1      -7.022   5.120  66.625  1.00  0.00    -0.064 C  
HETATM    7  O   UNL     1      -6.315   6.102  66.904  1.00  0.00    -0.041 OA 
BRANCH   5   8
HETATM    8  C   UNL     1      -9.017   6.338  67.278  1.00  0.00    -0.113 A  
HETATM    9  C   UNL     1      -9.026   7.532  66.504  1.00  0.00    -0.162 A  
HETATM   10  C   UNL     1      -9.544   6.368  68.591  1.00  0.00    -0.120 A  
HETATM   11  I   UNL     1      -8.275   7.449  64.461  1.00  0.00     0.229 I  
HETATM   12  C   UNL     1      -9.582   8.741  67.011  1.00  0.00    -0.236 A  
HETATM   13  I   UNL     1      -9.068   4.747  69.952  1.00  0.00    -0.210 I  
HETATM   14  I   UNL     1     -11.503  10.357  68.899  1.00  0.00    -0.039 I  
HETATM   15  C   UNL     1     -10.259   7.494  69.050  1.00  0.00    -0.208 A  
HETATM   16  C   UNL     1     -10.280   8.680  68.250  1.00  0.00    -0.198 A  
BRANCH  12  17
HETATM   17  C   UNL     1      -9.233  10.034  66.314  1.00  0.00    -0.162 C  
HETATM   18  N   UNL     1     -10.123  10.578  65.418  1.00  0.00    -0.288 N  
HETATM   19  H   UNL     1     -10.954  10.047  65.158  1.00  0.00     0.000 HD 
HETATM   20  O   UNL     1      -8.170  10.591  66.569  1.00  0.00    -0.124 OA 
BRANCH  18  21
HETATM   21  C   UNL     1      -9.908  11.901  64.827  1.00  0.00    -0.191 C  
BRANCH  21  22
HETATM   22  C   UNL     1     -10.698  12.026  63.520  1.00  0.00    -0.455 C  
HETATM   23  O   UNL     1     -10.466  10.861  62.713  1.00  0.00    -0.772 OA 
HETATM   24  H   UNL     1     -10.956  10.939  61.903  1.00  0.00     0.000 HD 
BRANCH  22  25
HETATM   25  C   UNL     1     -12.202  12.222  63.758  1.00  0.00    -0.546 C  
HETATM   26  H   UNL     1     -13.412  12.467  65.300  1.00  0.00     0.000 HD 
HETATM   27  O   UNL     1     -12.481  12.346  65.153  1.00  0.00    -0.583 OA 
ENDBRANCH  22  25
ENDBRANCH  21  22
ENDBRANCH  18  21
ENDBRANCH  12  17
BRANCH  15  28
HETATM   28  C   UNL     1     -10.961   7.470  70.375  1.00  0.00    -0.251 C  
HETATM   29  O   UNL     1     -12.077   6.975  70.484  1.00  0.00    -0.313 OA 
HETATM   30  H   UNL     1      -9.365   8.412  71.360  1.00  0.00     0.000 HD 
HETATM   31  N   UNL     1     -10.298   8.014  71.465  1.00  0.00    -0.204 N  
BRANCH  31  32
HETATM   32  C   UNL     1     -10.962   8.007  72.763  1.00  0.00    -0.382 C  
BRANCH  32  33
HETATM   33  C   UNL     1     -10.406   6.948  73.723  1.00  0.00    -0.376 C  
HETATM   34  H   UNL     1     -10.624   5.010  73.995  1.00  0.00     0.000 HD 
HETATM   35  O   UNL     1     -10.969   5.666  73.401  1.00  0.00    -0.273 OA 
BRANCH  33  36
HETATM   36  C   UNL     1      -8.872   6.899  73.640  1.00  0.00    -0.143 C  
HETATM   37  O   UNL     1      -8.380   5.564  73.733  1.00  0.00    -0.111 OA 
HETATM   38  H   UNL     1      -7.432   5.534  73.681  1.00  0.00     0.000 HD 
ENDBRANCH  33  36
ENDBRANCH  32  33
ENDBRANCH  31  32
ENDBRANCH  15  28
ENDBRANCH   5   8
BRANCH   6  39
HETATM   39  C   UNL     1      -6.359   3.855  66.058  1.00  0.00    -0.033 C  
HETATM   40  O   UNL     1      -6.202   3.892  64.644  1.00  0.00    -0.022 OA 
HETATM   41  H   UNL     1      -5.792   3.109  64.294  1.00  0.00     0.000 HD 
ENDBRANCH   6  39
ENDBRANCH   4   5
ENDBRANCH   3   4
TORSDOF 12
ENDMDL
MODEL       59
REMARK 921   NORMALIZED FREE ENERGY PREDICTED BY IDOCK:   -4.46 KCAL/MOL
REMARK 922        TOTAL FREE ENERGY PREDICTED BY IDOCK:   -7.86 KCAL/MOL
REMARK 923 INTER-LIGAND FREE ENERGY PREDICTED BY IDOCK:   -7.83 KCAL/MOL
REMARK 924 INTRA-LIGAND FREE ENERGY PREDICTED BY IDOCK:   -0.03 KCAL/MOL
REMARK 927      BINDING AFFINITY PREDICTED BY RF-SCORE:    0.00 PKD
ROOT
HETATM    1  O   UNL     1     -11.173  11.782  63.879  1.00  0.00    -0.366 OA 
HETATM    2  H   UNL     1     -11.560  10.933  63.700  1.00  0.00     0.000 HD 
HETATM    3  C   UNL     1     -10.577  11.811  65.168  1.00  0.00    -0.283 C  
ENDROOT
BRANCH   3   4
HETATM    4  C   UNL     1      -9.953  13.181  65.457  1.00  0.00    -0.207 C  
BRANCH   4   5
HETATM    5  N   UNL     1      -9.428  13.364  66.830  1.00  0.00    -0.246 N  
HETATM    6  C   UNL     1      -8.774  14.513  67.285  1.00  0.00    -0.210 C  
HETATM    7  O   UNL     1      -8.509  14.698  68.484  1.00  0.00    -0.150 OA 
BRANCH   5   8
HETATM    8  C   UNL     1      -9.796  12.376  67.815  1.00  0.00    -0.203 A  
HETATM    9  C   UNL     1     -10.937  12.555  68.647  1.00  0.00    -0.255 A  
HETATM   10  C   UNL     1      -8.970  11.246  68.019  1.00  0.00    -0.156 A  
HETATM   11  I   UNL     1     -12.235  14.264  68.272  1.00  0.00     0.390 I  
HETATM   12  C   UNL     1     -11.280  11.606  69.651  1.00  0.00    -0.249 A  
HETATM   13  I   UNL     1      -6.982  11.226  67.153  1.00  0.00    -0.134 I  
HETATM   14  I   UNL     1     -11.250   8.724  70.898  1.00  0.00    -0.362 I  
HETATM   15  C   UNL     1      -9.381  10.203  68.877  1.00  0.00    -0.179 A  
HETATM   16  C   UNL     1     -10.545  10.388  69.690  1.00  0.00    -0.253 A  
BRANCH  12  17
HETATM   17  C   UNL     1     -12.256  12.024  70.725  1.00  0.00    -0.286 C  
HETATM   18  N   UNL     1     -12.165  13.285  71.264  1.00  0.00    -0.342 N  
HETATM   19  H   UNL     1     -11.376  13.879  71.010  1.00  0.00     0.000 HD 
HETATM   20  O   UNL     1     -13.127  11.241  71.088  1.00  0.00    -0.310 OA 
BRANCH  18  21
HETATM   21  C   UNL     1     -13.171  13.798  72.196  1.00  0.00    -0.447 C  
BRANCH  21  22
HETATM   22  C   UNL     1     -13.263  15.324  72.083  1.00  0.00    -0.395 C  
HETATM   23  O   UNL     1     -14.276  15.805  72.979  1.00  0.00    -0.549 OA 
HETATM   24  H   UNL     1     -14.333  16.750  72.909  1.00  0.00     0.000 HD 
BRANCH  22  25
HETATM   25  C   UNL     1     -11.923  16.016  72.369  1.00  0.00    -0.544 C  
HETATM   26  H   UNL     1     -10.449  16.820  71.329  1.00  0.00     0.000 HD 
HETATM   27  O   UNL     1     -11.278  16.391  71.152  1.00  0.00    -0.282 OA 
ENDBRANCH  22  25
ENDBRANCH  21  22
ENDBRANCH  18  21
ENDBRANCH  12  17
BRANCH  15  28
HETATM   28  C   UNL     1      -8.594   8.930  68.971  1.00  0.00    -0.138 C  
HETATM   29  O   UNL     1      -7.792   8.756  69.881  1.00  0.00    -0.086 OA 
HETATM   30  H   UNL     1      -9.495   8.120  67.257  1.00  0.00     0.000 HD 
HETATM   31  N   UNL     1      -8.816   7.964  68.001  1.00  0.00    -0.125 N  
BRANCH  31  32
HETATM   32  C   UNL     1      -8.059   6.719  68.068  1.00  0.00    -0.114 C  
BRANCH  32  33
HETATM   33  C   UNL     1      -8.903   5.477  67.756  1.00  0.00    -0.105 C  
HETATM   34  H   UNL     1      -9.189   3.704  68.563  1.00  0.00     0.000 HD 
HETATM   35  O   UNL     1      -8.666   4.473  68.756  1.00  0.00    -0.090 OA 
BRANCH  33  36
HETATM   36  C   UNL     1     -10.396   5.842  67.702  1.00  0.00    -0.212 C  
HETATM   37  O   UNL     1     -10.980   5.491  66.450  1.00  0.00    -0.634 OA 
HETATM   38  H   UNL     1     -11.902   5.716  66.416  1.00  0.00     0.000 HD 
ENDBRANCH  33  36
ENDBRANCH  32  33
ENDBRANCH  31  32
ENDBRANCH  15  28
ENDBRANCH   5   8
BRANCH   6  39
HETATM   39  C   UNL     1      -8.405  15.595  66.259  1.00  0.00    -0.057 C  
HETATM   40  O   UNL     1      -9.136  16.804  66.433  1.00  0.00    -0.254 OA 
HETATM   41  H   UNL     1      -8.907  17.473  65.798  1.00  0.00     0.000 HD 
ENDBRANCH   6  39
ENDBRANCH   4   5
ENDBRANCH   3   4
TORSDOF 12
ENDMDL
MODEL       60
REMARK 921   NORMALIZED FREE ENERGY PREDICTED BY IDOCK:   -4.45 KCAL/MOL
REMARK 922        TOTAL FREE ENERGY PREDICTED BY IDOCK:   -7.85 KCAL/MOL
REMARK 923 INTER-LIGAND FREE ENERGY PREDICTED BY IDOCK:   -8.10 KCAL/MOL
REMARK 924 INTRA-LIGAND FREE ENERGY PREDICTED BY IDOCK:    0.25 KCAL/MOL
REMARK 927      BINDING AFFINITY PREDICTED BY RF-SCORE:    0.00 PKD
ROOT
HETATM    1  O   UNL     1      -9.546   7.746  70.555  1.00  0.00    -0.167 OA 
HETATM    2  H   UNL     1     -10.136   7.452  71.239  1.00  0.00     0.000 HD 
HETATM    3  C   UNL     1      -9.527   9.163  70.471  1.00  0.00    -0.242 C  
ENDROOT
BRANCH   3   4
HETATM    4  C   UNL     1      -8.575   9.638  69.366  1.00  0.00    -0.158 C  
BRANCH   4   5
HETATM    5  N   UNL     1      -9.210  10.393  68.261  1.00  0.00    -0.145 N  
HETATM    6  C   UNL     1      -9.919   9.812  67.206  1.00  0.00    -0.191 C  
HETATM    7  O   UNL     1     -10.585  10.482  66.401  1.00  0.00    -0.219 OA 
BRANCH   5   8
HETATM    8  C   UNL     1      -9.276  11.828  68.394  1.00  0.00    -0.175 A  
HETATM    9  C   UNL     1      -8.157  12.649  68.081  1.00  0.00    -0.164 A  
HETATM   10  C   UNL     1     -10.444  12.431  68.918  1.00  0.00    -0.089 A  
HETATM   11  I   UNL     1      -6.394  11.712  67.209  1.00  0.00    -0.140 I  
HETATM   12  C   UNL     1      -8.202  14.062  68.253  1.00  0.00    -0.153 A  
HETATM   13  I   UNL     1     -11.930  11.181  69.884  1.00  0.00    -0.445 I  
HETATM   14  I   UNL     1      -9.719  16.804  68.469  1.00  0.00    -0.279 I  
HETATM   15  C   UNL     1     -10.581  13.836  68.929  1.00  0.00    -0.224 A  
HETATM   16  C   UNL     1      -9.454  14.649  68.588  1.00  0.00    -0.211 A  
BRANCH  12  17
HETATM   17  C   UNL     1      -6.896  14.822  68.263  1.00  0.00    -0.114 C  
HETATM   18  N   UNL     1      -6.465  15.404  69.432  1.00  0.00    -0.137 N  
HETATM   19  H   UNL     1      -7.083  15.407  70.243  1.00  0.00     0.000 HD 
HETATM   20  O   UNL     1      -6.231  14.893  67.236  1.00  0.00    -0.311 OA 
BRANCH  18  21
HETATM   21  C   UNL     1      -5.142  16.021  69.540  1.00  0.00    -0.109 C  
BRANCH  21  22
HETATM   22  C   UNL     1      -5.223  17.507  69.172  1.00  0.00    -0.174 C  
HETATM   23  O   UNL     1      -5.419  17.632  67.755  1.00  0.00    -0.134 OA 
HETATM   24  H   UNL     1      -5.470  18.553  67.526  1.00  0.00     0.000 HD 
BRANCH  22  25
HETATM   25  C   UNL     1      -6.336  18.242  69.932  1.00  0.00    -0.046 C  
HETATM   26  H   UNL     1      -6.588  19.995  70.805  1.00  0.00     0.000 HD 
HETATM   27  O   UNL     1      -5.900  19.540  70.334  1.00  0.00    -0.246 OA 
ENDBRANCH  22  25
ENDBRANCH  21  22
ENDBRANCH  18  21
ENDBRANCH  12  17
BRANCH  15  28
HETATM   28  C   UNL     1     -11.877  14.477  69.327  1.00  0.00    -0.323 C  
HETATM   29  O   UNL     1     -12.718  14.765  68.484  1.00  0.00     0.292 OA 
HETATM   30  H   UNL     1     -11.383  14.463  71.367  1.00  0.00     0.000 HD 
HETATM   31  N   UNL     1     -12.088  14.718  70.677  1.00  0.00    -0.288 N  
BRANCH  31  32
HETATM   32  C   UNL     1     -13.339  15.346  71.088  1.00  0.00    -0.508 C  
BRANCH  32  33
HETATM   33  C   UNL     1     -13.785  14.942  72.498  1.00  0.00    -0.464 C  
HETATM   34  H   UNL     1     -13.967  13.265  73.515  1.00  0.00     0.000 HD 
HETATM   35  O   UNL     1     -13.691  13.516  72.641  1.00  0.00    -0.681 OA 
BRANCH  33  36
HETATM   36  C   UNL     1     -12.923  15.648  73.558  1.00  0.00    -0.556 C  
HETATM   37  O   UNL     1     -12.150  14.719  74.314  1.00  0.00    -0.654 OA 
HETATM   38  H   UNL     1     -11.618  15.155  74.968  1.00  0.00     0.000 HD 
ENDBRANCH  33  36
ENDBRANCH  32  33
ENDBRANCH  31  32
ENDBRANCH  15  28
ENDBRANCH   5   8
BRANCH   6  39
HETATM   39  C   UNL     1      -9.892   8.282  67.067  1.00  0.00    -0.232 C  
HETATM   40  O   UNL     1      -9.669   7.846  65.730  1.00  0.00    -0.417 OA 
HETATM   41  H   UNL     1      -9.653   6.899  65.644  1.00  0.00     0.000 HD 
ENDBRANCH   6  39
ENDBRANCH   4   5
ENDBRANCH   3   4
TORSDOF 12
ENDMDL
MODEL       61
REMARK 921   NORMALIZED FREE ENERGY PREDICTED BY IDOCK:   -4.45 KCAL/MOL
REMARK 922        TOTAL FREE ENERGY PREDICTED BY IDOCK:   -7.84 KCAL/MOL
REMARK 923 INTER-LIGAND FREE ENERGY PREDICTED BY IDOCK:   -7.24 KCAL/MOL
REMARK 924 INTRA-LIGAND FREE ENERGY PREDICTED BY IDOCK:   -0.60 KCAL/MOL
REMARK 927      BINDING AFFINITY PREDICTED BY RF-SCORE:    0.00 PKD
ROOT
HETATM    1  O   UNL     1     -12.929   7.289  70.600  1.00  0.00    -0.601 OA 
HETATM    2  H   UNL     1     -13.382   7.715  71.318  1.00  0.00     0.000 HD 
HETATM    3  C   UNL     1     -11.771   6.606  71.058  1.00  0.00    -0.360 C  
ENDROOT
BRANCH   3   4
HETATM    4  C   UNL     1     -11.041   5.918  69.899  1.00  0.00    -0.347 C  
BRANCH   4   5
HETATM    5  N   UNL     1      -9.640   6.350  69.683  1.00  0.00    -0.146 N  
HETATM    6  C   UNL     1      -8.578   6.061  70.545  1.00  0.00    -0.137 C  
HETATM    7  O   UNL     1      -7.395   6.284  70.242  1.00  0.00    -0.083 OA 
BRANCH   5   8
HETATM    8  C   UNL     1      -9.317   6.928  68.402  1.00  0.00    -0.129 A  
HETATM    9  C   UNL     1      -9.385   8.333  68.189  1.00  0.00    -0.133 A  
HETATM   10  C   UNL     1      -9.003   6.083  67.310  1.00  0.00    -0.109 A  
HETATM   11  I   UNL     1      -9.801   9.621  69.896  1.00  0.00    -0.296 I  
HETATM   12  C   UNL     1      -9.110   8.905  66.914  1.00  0.00    -0.163 A  
HETATM   13  I   UNL     1      -9.410   3.960  67.473  1.00  0.00    -0.189 I  
HETATM   14  I   UNL     1      -7.773   8.885  64.072  1.00  0.00    -0.151 I  
HETATM   15  C   UNL     1      -8.552   6.629  66.089  1.00  0.00    -0.148 A  
HETATM   16  C   UNL     1      -8.603   8.046  65.899  1.00  0.00    -0.152 A  
BRANCH  12  17
HETATM   17  C   UNL     1      -9.554  10.326  66.659  1.00  0.00    -0.175 C  
HETATM   18  N   UNL     1     -10.864  10.573  66.326  1.00  0.00    -0.066 N  
HETATM   19  H   UNL     1     -11.490   9.787  66.151  1.00  0.00     0.000 HD 
HETATM   20  O   UNL     1      -8.744  11.241  66.770  1.00  0.00    -0.154 OA 
BRANCH  18  21
HETATM   21  C   UNL     1     -11.385  11.937  66.215  1.00  0.00    -0.334 C  
BRANCH  21  22
HETATM   22  C   UNL     1     -11.694  12.264  64.750  1.00  0.00    -0.358 C  
HETATM   23  O   UNL     1     -13.102  12.505  64.605  1.00  0.00    -0.845 OA 
HETATM   24  H   UNL     1     -13.293  12.708  63.697  1.00  0.00     0.000 HD 
BRANCH  22  25
HETATM   25  C   UNL     1     -10.889  13.465  64.233  1.00  0.00    -0.363 C  
HETATM   26  H   UNL     1     -11.199  15.386  63.894  1.00  0.00     0.000 HD 
HETATM   27  O   UNL     1     -11.696  14.643  64.213  1.00  0.00    -0.358 OA 
ENDBRANCH  22  25
ENDBRANCH  21  22
ENDBRANCH  18  21
ENDBRANCH  12  17
BRANCH  15  28
HETATM   28  C   UNL     1      -8.060   5.740  64.987  1.00  0.00    -0.131 C  
HETATM   29  O   UNL     1      -6.883   5.401  64.934  1.00  0.00    -0.047 OA 
HETATM   30  H   UNL     1      -9.961   5.594  64.108  1.00  0.00     0.000 HD 
HETATM   31  N   UNL     1      -8.983   5.312  64.044  1.00  0.00     0.063 N  
BRANCH  31  32
HETATM   32  C   UNL     1      -8.527   4.451  62.959  1.00  0.00    -0.102 C  
BRANCH  32  33
HETATM   33  C   UNL     1      -9.381   3.189  62.786  1.00  0.00    -0.090 C  
HETATM   34  H   UNL     1      -9.250   1.293  63.301  1.00  0.00     0.000 HD 
HETATM   35  O   UNL     1      -8.721   2.075  63.408  1.00  0.00    -0.083 OA 
BRANCH  33  36
HETATM   36  C   UNL     1     -10.777   3.397  63.396  1.00  0.00    -0.240 C  
HETATM   37  O   UNL     1     -11.475   2.164  63.549  1.00  0.00    -0.593 OA 
HETATM   38  H   UNL     1     -12.338   2.292  63.926  1.00  0.00     0.000 HD 
ENDBRANCH  33  36
ENDBRANCH  32  33
ENDBRANCH  31  32
ENDBRANCH  15  28
ENDBRANCH   5   8
BRANCH   6  39
HETATM   39  C   UNL     1      -8.896   5.411  71.900  1.00  0.00    -0.135 C  
HETATM   40  O   UNL     1      -7.788   4.712  72.459  1.00  0.00    -0.085 OA 
HETATM   41  H   UNL     1      -7.985   4.310  73.297  1.00  0.00     0.000 HD 
ENDBRANCH   6  39
ENDBRANCH   4   5
ENDBRANCH   3   4
TORSDOF 12
ENDMDL
MODEL       62
REMARK 921   NORMALIZED FREE ENERGY PREDICTED BY IDOCK:   -4.43 KCAL/MOL
REMARK 922        TOTAL FREE ENERGY PREDICTED BY IDOCK:   -7.81 KCAL/MOL
REMARK 923 INTER-LIGAND FREE ENERGY PREDICTED BY IDOCK:   -6.74 KCAL/MOL
REMARK 924 INTRA-LIGAND FREE ENERGY PREDICTED BY IDOCK:   -1.07 KCAL/MOL
REMARK 927      BINDING AFFINITY PREDICTED BY RF-SCORE:    0.00 PKD
ROOT
HETATM    1  O   UNL     1      -8.119  14.009  69.153  1.00  0.00    -0.333 OA 
HETATM    2  H   UNL     1      -8.432  14.746  69.664  1.00  0.00     0.000 HD 
HETATM    3  C   UNL     1      -9.102  13.575  68.224  1.00  0.00    -0.189 C  
ENDROOT
BRANCH   3   4
HETATM    4  C   UNL     1      -8.596  12.386  67.399  1.00  0.00    -0.181 C  
BRANCH   4   5
HETATM    5  N   UNL     1      -9.645  11.471  66.892  1.00  0.00    -0.185 N  
HETATM    6  C   UNL     1     -10.540  11.780  65.863  1.00  0.00    -0.271 C  
HETATM    7  O   UNL     1     -11.282  10.930  65.347  1.00  0.00     0.055 OA 
BRANCH   5   8
HETATM    8  C   UNL     1      -9.606  10.103  67.349  1.00  0.00    -0.154 A  
HETATM    9  C   UNL     1     -10.293   9.700  68.528  1.00  0.00    -0.205 A  
HETATM   10  C   UNL     1      -8.809   9.157  66.661  1.00  0.00    -0.128 A  
HETATM   11  I   UNL     1     -11.570  11.152  69.532  1.00  0.00    -0.484 I  
HETATM   12  C   UNL     1     -10.221   8.361  69.008  1.00  0.00    -0.217 A  
HETATM   13  I   UNL     1      -7.362   9.859  65.208  1.00  0.00    -0.141 I  
HETATM   14  I   UNL     1      -9.776   5.276  68.625  1.00  0.00    -0.224 I  
HETATM   15  C   UNL     1      -8.864   7.790  67.007  1.00  0.00    -0.136 A  
HETATM   16  C   UNL     1      -9.579   7.396  68.183  1.00  0.00    -0.142 A  
BRANCH  12  17
HETATM   17  C   UNL     1     -10.649   8.089  70.430  1.00  0.00    -0.224 C  
HETATM   18  N   UNL     1      -9.775   8.350  71.459  1.00  0.00    -0.190 N  
HETATM   19  H   UNL     1      -8.816   8.620  71.240  1.00  0.00     0.000 HD 
HETATM   20  O   UNL     1     -11.776   7.657  70.650  1.00  0.00    -0.273 OA 
BRANCH  18  21
HETATM   21  C   UNL     1     -10.185   8.249  72.861  1.00  0.00    -0.190 C  
BRANCH  21  22
HETATM   22  C   UNL     1      -9.683   6.931  73.461  1.00  0.00    -0.220 C  
HETATM   23  O   UNL     1     -10.441   5.842  72.913  1.00  0.00    -0.201 OA 
HETATM   24  H   UNL     1     -10.130   5.026  73.285  1.00  0.00     0.000 HD 
BRANCH  22  25
HETATM   25  C   UNL     1      -8.182   6.711  73.225  1.00  0.00    -0.115 C  
HETATM   26  H   UNL     1      -6.557   7.820  73.055  1.00  0.00     0.000 HD 
HETATM   27  O   UNL     1      -7.486   7.957  73.201  1.00  0.00    -0.102 OA 
ENDBRANCH  22  25
ENDBRANCH  21  22
ENDBRANCH  18  21
ENDBRANCH  12  17
BRANCH  15  28
HETATM   28  C   UNL     1      -8.153   6.760  66.180  1.00  0.00    -0.115 C  
HETATM   29  O   UNL     1      -7.008   6.419  66.453  1.00  0.00    -0.063 OA 
HETATM   30  H   UNL     1      -9.799   6.492  64.905  1.00  0.00     0.000 HD 
HETATM   31  N   UNL     1      -8.842   6.206  65.111  1.00  0.00     0.016 N  
BRANCH  31  32
HETATM   32  C   UNL     1      -8.170   5.206  64.289  1.00  0.00    -0.131 C  
BRANCH  32  33
HETATM   33  C   UNL     1      -8.856   3.835  64.319  1.00  0.00    -0.120 C  
HETATM   34  H   UNL     1      -8.795   2.230  65.459  1.00  0.00     0.000 HD 
HETATM   35  O   UNL     1      -8.369   3.079  65.440  1.00  0.00    -0.093 OA 
BRANCH  33  36
HETATM   36  C   UNL     1     -10.383   4.000  64.403  1.00  0.00    -0.201 C  
HETATM   37  O   UNL     1     -11.065   2.898  63.808  1.00  0.00    -0.528 OA 
HETATM   38  H   UNL     1     -12.008   3.000  63.859  1.00  0.00     0.000 HD 
ENDBRANCH  33  36
ENDBRANCH  32  33
ENDBRANCH  31  32
ENDBRANCH  15  28
ENDBRANCH   5   8
BRANCH   6  39
HETATM   39  C   UNL     1     -10.573  13.223  65.336  1.00  0.00    -0.296 C  
HETATM   40  O   UNL     1      -9.927  13.373  64.076  1.00  0.00    -0.764 OA 
HETATM   41  H   UNL     1      -9.947  14.266  63.750  1.00  0.00     0.000 HD 
ENDBRANCH   6  39
ENDBRANCH   4   5
ENDBRANCH   3   4
TORSDOF 12
ENDMDL
MODEL       63
REMARK 921   NORMALIZED FREE ENERGY PREDICTED BY IDOCK:   -4.41 KCAL/MOL
REMARK 922        TOTAL FREE ENERGY PREDICTED BY IDOCK:   -7.79 KCAL/MOL
REMARK 923 INTER-LIGAND FREE ENERGY PREDICTED BY IDOCK:   -6.64 KCAL/MOL
REMARK 924 INTRA-LIGAND FREE ENERGY PREDICTED BY IDOCK:   -1.14 KCAL/MOL
REMARK 927      BINDING AFFINITY PREDICTED BY RF-SCORE:    0.00 PKD
ROOT
HETATM    1  O   UNL     1     -10.722  13.380  64.682  1.00  0.00    -0.365 OA 
HETATM    2  H   UNL     1     -10.598  13.394  63.740  1.00  0.00     0.000 HD 
HETATM    3  C   UNL     1     -10.494  12.082  65.210  1.00  0.00    -0.284 C  
ENDROOT
BRANCH   3   4
HETATM    4  C   UNL     1     -10.695  12.061  66.730  1.00  0.00    -0.243 C  
BRANCH   4   5
HETATM    5  N   UNL     1      -9.522  11.621  67.520  1.00  0.00    -0.170 N  
HETATM    6  C   UNL     1      -8.593  12.483  68.111  1.00  0.00    -0.189 C  
HETATM    7  O   UNL     1      -7.730  12.087  68.910  1.00  0.00    -0.087 OA 
BRANCH   5   8
HETATM    8  C   UNL     1      -9.451  10.225  67.876  1.00  0.00    -0.141 A  
HETATM    9  C   UNL     1      -8.636   9.319  67.142  1.00  0.00    -0.128 A  
HETATM   10  C   UNL     1     -10.263   9.725  68.922  1.00  0.00    -0.200 A  
HETATM   11  I   UNL     1      -7.341  10.118  65.582  1.00  0.00    -0.137 I  
HETATM   12  C   UNL     1      -8.596   7.931  67.460  1.00  0.00    -0.122 A  
HETATM   13  I   UNL     1     -11.875  10.959  69.683  1.00  0.00    -0.409 I  
HETATM   14  I   UNL     1      -8.926   5.505  69.427  1.00  0.00    -0.144 I  
HETATM   15  C   UNL     1     -10.109   8.397  69.375  1.00  0.00    -0.198 A  
HETATM   16  C   UNL     1      -9.267   7.503  68.640  1.00  0.00    -0.144 A  
BRANCH  12  17
HETATM   17  C   UNL     1      -8.022   6.981  66.437  1.00  0.00    -0.109 C  
HETATM   18  N   UNL     1      -8.804   6.572  65.382  1.00  0.00    -0.358 N  
HETATM   19  H   UNL     1      -9.790   6.831  65.365  1.00  0.00     0.000 HD 
HETATM   20  O   UNL     1      -6.861   6.600  66.550  1.00  0.00    -0.058 OA 
BRANCH  18  21
HETATM   21  C   UNL     1      -8.257   5.775  64.283  1.00  0.00    -0.106 C  
BRANCH  21  22
HETATM   22  C   UNL     1      -7.909   6.683  63.099  1.00  0.00    -0.103 C  
HETATM   23  O   UNL     1      -8.731   7.860  63.147  1.00  0.00    -0.380 OA 
HETATM   24  H   UNL     1      -8.515   8.423  62.413  1.00  0.00     0.000 HD 
BRANCH  22  25
HETATM   25  C   UNL     1      -6.423   7.070  63.070  1.00  0.00    -0.048 C  
HETATM   26  H   UNL     1      -4.699   6.262  63.594  1.00  0.00     0.000 HD 
HETATM   27  O   UNL     1      -5.618   6.023  63.612  1.00  0.00    -0.017 OA 
ENDBRANCH  22  25
ENDBRANCH  21  22
ENDBRANCH  18  21
ENDBRANCH  12  17
BRANCH  15  28
HETATM   28  C   UNL     1     -10.845   7.910  70.588  1.00  0.00    -0.237 C  
HETATM   29  O   UNL     1     -11.863   7.238  70.474  1.00  0.00    -0.276 OA 
HETATM   30  H   UNL     1      -9.469   8.788  71.908  1.00  0.00     0.000 HD 
HETATM   31  N   UNL     1     -10.324   8.238  71.831  1.00  0.00    -0.233 N  
BRANCH  31  32
HETATM   32  C   UNL     1     -11.024   7.780  73.025  1.00  0.00    -0.381 C  
BRANCH  32  33
HETATM   33  C   UNL     1     -10.194   6.820  73.885  1.00  0.00    -0.367 C  
HETATM   34  H   UNL     1      -9.663   4.925  73.806  1.00  0.00     0.000 HD 
HETATM   35  O   UNL     1     -10.177   5.520  73.273  1.00  0.00    -0.176 OA 
BRANCH  33  36
HETATM   36  C   UNL     1      -8.761   7.353  74.055  1.00  0.00    -0.223 C  
HETATM   37  O   UNL     1      -7.805   6.509  73.418  1.00  0.00    -0.093 OA 
HETATM   38  H   UNL     1      -6.920   6.838  73.523  1.00  0.00     0.000 HD 
ENDBRANCH  33  36
ENDBRANCH  32  33
ENDBRANCH  31  32
ENDBRANCH  15  28
ENDBRANCH   5   8
BRANCH   6  39
HETATM   39  C   UNL     1      -8.673  13.980  67.775  1.00  0.00    -0.185 C  
HETATM   40  O   UNL     1      -8.216  14.284  66.461  1.00  0.00    -0.336 OA 
HETATM   41  H   UNL     1      -8.266  15.211  66.254  1.00  0.00     0.000 HD 
ENDBRANCH   6  39
ENDBRANCH   4   5
ENDBRANCH   3   4
TORSDOF 12
ENDMDL
MODEL       64
REMARK 921   NORMALIZED FREE ENERGY PREDICTED BY IDOCK:   -4.40 KCAL/MOL
REMARK 922        TOTAL FREE ENERGY PREDICTED BY IDOCK:   -7.76 KCAL/MOL
REMARK 923 INTER-LIGAND FREE ENERGY PREDICTED BY IDOCK:   -7.26 KCAL/MOL
REMARK 924 INTRA-LIGAND FREE ENERGY PREDICTED BY IDOCK:   -0.50 KCAL/MOL
REMARK 927      BINDING AFFINITY PREDICTED BY RF-SCORE:    0.00 PKD
ROOT
HETATM    1  O   UNL     1     -10.373  16.166  65.005  1.00  0.00    -0.573 OA 
HETATM    2  H   UNL     1     -11.177  16.647  64.848  1.00  0.00     0.000 HD 
HETATM    3  C   UNL     1      -9.721  16.626  66.179  1.00  0.00    -0.303 C  
ENDROOT
BRANCH   3   4
HETATM    4  C   UNL     1      -8.424  15.849  66.431  1.00  0.00    -0.313 C  
BRANCH   4   5
HETATM    5  N   UNL     1      -8.306  15.225  67.770  1.00  0.00    -0.147 N  
HETATM    6  C   UNL     1      -8.082  15.928  68.957  1.00  0.00    -0.229 C  
HETATM    7  O   UNL     1      -8.168  15.393  70.074  1.00  0.00    -0.018 OA 
BRANCH   5   8
HETATM    8  C   UNL     1      -8.650  13.829  67.880  1.00  0.00    -0.183 A  
HETATM    9  C   UNL     1      -9.956  13.421  68.273  1.00  0.00    -0.240 A  
HETATM   10  C   UNL     1      -7.657  12.843  67.673  1.00  0.00    -0.156 A  
HETATM   11  I   UNL     1     -11.489  14.948  68.520  1.00  0.00    -0.351 I  
HETATM   12  C   UNL     1     -10.288  12.045  68.427  1.00  0.00    -0.220 A  
HETATM   13  I   UNL     1      -5.575  13.446  67.601  1.00  0.00     0.237 I  
HETATM   14  I   UNL     1      -9.887   8.989  67.825  1.00  0.00    -0.260 I  
HETATM   15  C   UNL     1      -8.002  11.474  67.641  1.00  0.00    -0.126 A  
HETATM   16  C   UNL     1      -9.326  11.081  68.016  1.00  0.00    -0.163 A  
BRANCH  12  17
HETATM   17  C   UNL     1     -11.544  11.695  69.191  1.00  0.00    -0.314 C  
HETATM   18  N   UNL     1     -11.536  11.757  70.564  1.00  0.00    -0.446 N  
HETATM   19  H   UNL     1     -10.657  11.932  71.049  1.00  0.00     0.000 HD 
HETATM   20  O   UNL     1     -12.557  11.379  68.576  1.00  0.00    -0.205 OA 
BRANCH  18  21
HETATM   21  C   UNL     1     -12.760  11.577  71.348  1.00  0.00    -0.364 C  
BRANCH  21  22
HETATM   22  C   UNL     1     -12.984  10.088  71.637  1.00  0.00    -0.449 C  
HETATM   23  O   UNL     1     -13.902   9.552  70.673  1.00  0.00    -0.554 OA 
HETATM   24  H   UNL     1     -14.041   8.630  70.852  1.00  0.00     0.000 HD 
BRANCH  22  25
HETATM   25  C   UNL     1     -11.676   9.285  71.635  1.00  0.00    -0.392 C  
HETATM   26  H   UNL     1     -11.104   7.433  72.016  1.00  0.00     0.000 HD 
HETATM   27  O   UNL     1     -11.914   7.930  72.018  1.00  0.00    -0.292 OA 
ENDBRANCH  22  25
ENDBRANCH  21  22
ENDBRANCH  18  21
ENDBRANCH  12  17
BRANCH  15  28
HETATM   28  C   UNL     1      -6.990  10.436  67.258  1.00  0.00    -0.086 C  
HETATM   29  O   UNL     1      -6.329   9.860  68.115  1.00  0.00    -0.054 OA 
HETATM   30  H   UNL     1      -7.407  10.630  65.210  1.00  0.00     0.000 HD 
HETATM   31  N   UNL     1      -6.841  10.150  65.909  1.00  0.00    -0.108 N  
BRANCH  31  32
HETATM   32  C   UNL     1      -5.859   9.147  65.512  1.00  0.00    -0.054 C  
BRANCH  32  33
HETATM   33  C   UNL     1      -6.379   8.179  64.442  1.00  0.00    -0.065 C  
HETATM   34  H   UNL     1      -6.171   6.267  64.022  1.00  0.00     0.000 HD 
HETATM   35  O   UNL     1      -5.849   6.867  64.684  1.00  0.00    -0.034 OA 
BRANCH  33  36
HETATM   36  C   UNL     1      -7.917   8.149  64.447  1.00  0.00    -0.145 C  
HETATM   37  O   UNL     1      -8.457   8.587  63.202  1.00  0.00    -0.345 OA 
HETATM   38  H   UNL     1      -9.406   8.568  63.205  1.00  0.00     0.000 HD 
ENDBRANCH  33  36
ENDBRANCH  32  33
ENDBRANCH  31  32
ENDBRANCH  15  28
ENDBRANCH   5   8
BRANCH   6  39
HETATM   39  C   UNL     1      -7.750  17.425  68.866  1.00  0.00    -0.209 C  
HETATM   40  O   UNL     1      -6.713  17.824  69.757  1.00  0.00    -0.099 OA 
HETATM   41  H   UNL     1      -6.508  18.750  69.700  1.00  0.00     0.000 HD 
ENDBRANCH   6  39
ENDBRANCH   4   5
ENDBRANCH   3   4
TORSDOF 12
ENDMDL
MODEL       65
REMARK 921   NORMALIZED FREE ENERGY PREDICTED BY IDOCK:   -4.37 KCAL/MOL
REMARK 922        TOTAL FREE ENERGY PREDICTED BY IDOCK:   -7.72 KCAL/MOL
REMARK 923 INTER-LIGAND FREE ENERGY PREDICTED BY IDOCK:   -6.92 KCAL/MOL
REMARK 924 INTRA-LIGAND FREE ENERGY PREDICTED BY IDOCK:   -0.80 KCAL/MOL
REMARK 927      BINDING AFFINITY PREDICTED BY RF-SCORE:    0.00 PKD
ROOT
HETATM    1  O   UNL     1      -5.242   8.595  67.668  1.00  0.00    -0.033 OA 
HETATM    2  H   UNL     1      -5.122   9.421  68.121  1.00  0.00     0.000 HD 
HETATM    3  C   UNL     1      -5.160   8.765  66.261  1.00  0.00    -0.030 C  
ENDROOT
BRANCH   3   4
HETATM    4  C   UNL     1      -5.354   7.431  65.531  1.00  0.00    -0.028 C  
BRANCH   4   5
HETATM    5  N   UNL     1      -6.720   7.179  65.018  1.00  0.00    -0.046 N  
HETATM    6  C   UNL     1      -7.061   6.149  64.136  1.00  0.00    -0.053 C  
HETATM    7  O   UNL     1      -8.239   5.861  63.871  1.00  0.00    -0.118 OA 
BRANCH   5   8
HETATM    8  C   UNL     1      -7.801   7.914  65.628  1.00  0.00    -0.109 A  
HETATM    9  C   UNL     1      -8.528   7.378  66.727  1.00  0.00    -0.124 A  
HETATM   10  C   UNL     1      -8.202   9.156  65.080  1.00  0.00    -0.145 A  
HETATM   11  I   UNL     1      -7.852   5.501  67.601  1.00  0.00    -0.096 I  
HETATM   12  C   UNL     1      -9.624   8.080  67.305  1.00  0.00    -0.210 A  
HETATM   13  I   UNL     1      -7.473   9.725  63.119  1.00  0.00    -0.130 I  
HETATM   14  I   UNL     1     -11.238  10.695  67.955  1.00  0.00    -0.150 I  
HETATM   15  C   UNL     1      -9.162   9.953  65.740  1.00  0.00    -0.228 A  
HETATM   16  C   UNL     1      -9.869   9.410  66.860  1.00  0.00    -0.201 A  
BRANCH  12  17
HETATM   17  C   UNL     1     -10.571   7.314  68.199  1.00  0.00    -0.177 C  
HETATM   18  N   UNL     1     -10.418   7.387  69.563  1.00  0.00    -0.228 N  
HETATM   19  H   UNL     1      -9.605   7.869  69.947  1.00  0.00     0.000 HD 
HETATM   20  O   UNL     1     -11.473   6.651  67.696  1.00  0.00    -0.140 OA 
BRANCH  18  21
HETATM   21  C   UNL     1     -11.392   6.791  70.479  1.00  0.00    -0.343 C  
BRANCH  21  22
HETATM   22  C   UNL     1     -12.263   7.885  71.104  1.00  0.00    -0.255 C  
HETATM   23  O   UNL     1     -13.062   7.314  72.151  1.00  0.00    -0.511 OA 
HETATM   24  H   UNL     1     -13.603   7.992  72.539  1.00  0.00     0.000 HD 
BRANCH  22  25
HETATM   25  C   UNL     1     -11.435   9.060  71.644  1.00  0.00    -0.361 C  
HETATM   26  H   UNL     1     -11.613  11.021  71.788  1.00  0.00     0.000 HD 
HETATM   27  O   UNL     1     -12.126  10.295  71.454  1.00  0.00    -0.372 OA 
ENDBRANCH  22  25
ENDBRANCH  21  22
ENDBRANCH  18  21
ENDBRANCH  12  17
BRANCH  15  28
HETATM   28  C   UNL     1      -9.471  11.339  65.258  1.00  0.00    -0.221 C  
HETATM   29  O   UNL     1      -8.883  12.309  65.723  1.00  0.00     0.112 OA 
HETATM   30  H   UNL     1     -10.904  10.659  63.883  1.00  0.00     0.000 HD 
HETATM   31  N   UNL     1     -10.432  11.477  64.267  1.00  0.00    -0.310 N  
BRANCH  31  32
HETATM   32  C   UNL     1     -10.753  12.816  63.786  1.00  0.00    -0.361 C  
BRANCH  32  33
HETATM   33  C   UNL     1     -12.224  13.198  63.992  1.00  0.00    -0.414 C  
HETATM   34  H   UNL     1     -13.911  12.248  64.350  1.00  0.00     0.000 HD 
HETATM   35  O   UNL     1     -13.000  12.012  64.222  1.00  0.00    -0.600 OA 
BRANCH  33  36
HETATM   36  C   UNL     1     -12.365  14.173  65.172  1.00  0.00    -0.451 C  
HETATM   37  O   UNL     1     -13.692  14.178  65.695  1.00  0.00    -0.540 OA 
HETATM   38  H   UNL     1     -13.779  14.780  66.425  1.00  0.00     0.000 HD 
ENDBRANCH  33  36
ENDBRANCH  32  33
ENDBRANCH  31  32
ENDBRANCH  15  28
ENDBRANCH   5   8
BRANCH   6  39
HETATM   39  C   UNL     1      -5.928   5.329  63.502  1.00  0.00    -0.021 C  
HETATM   40  O   UNL     1      -6.323   4.006  63.152  1.00  0.00    -0.021 OA 
HETATM   41  H   UNL     1      -5.621   3.498  62.760  1.00  0.00     0.000 HD 
ENDBRANCH   6  39
ENDBRANCH   4   5
ENDBRANCH   3   4
TORSDOF 12
ENDMDL
MODEL       66
REMARK 921   NORMALIZED FREE ENERGY PREDICTED BY IDOCK:   -4.34 KCAL/MOL
REMARK 922        TOTAL FREE ENERGY PREDICTED BY IDOCK:   -7.67 KCAL/MOL
REMARK 923 INTER-LIGAND FREE ENERGY PREDICTED BY IDOCK:   -7.67 KCAL/MOL
REMARK 924 INTRA-LIGAND FREE ENERGY PREDICTED BY IDOCK:    0.01 KCAL/MOL
REMARK 927      BINDING AFFINITY PREDICTED BY RF-SCORE:    0.00 PKD
ROOT
HETATM    1  O   UNL     1      -9.010   8.999  63.807  1.00  0.00    -0.431 OA 
HETATM    2  H   UNL     1      -9.840   9.075  63.350  1.00  0.00     0.000 HD 
HETATM    3  C   UNL     1      -9.193   9.061  65.213  1.00  0.00    -0.140 C  
ENDROOT
BRANCH   3   4
HETATM    4  C   UNL     1      -7.854   8.939  65.951  1.00  0.00    -0.102 C  
BRANCH   4   5
HETATM    5  N   UNL     1      -7.754   9.703  67.216  1.00  0.00    -0.092 N  
HETATM    6  C   UNL     1      -6.676  10.521  67.567  1.00  0.00    -0.070 C  
HETATM    7  O   UNL     1      -6.707  11.281  68.548  1.00  0.00    -0.058 OA 
BRANCH   5   8
HETATM    8  C   UNL     1      -8.933   9.768  68.045  1.00  0.00    -0.118 A  
HETATM    9  C   UNL     1      -9.291   8.690  68.902  1.00  0.00    -0.145 A  
HETATM   10  C   UNL     1      -9.796  10.885  67.950  1.00  0.00    -0.172 A  
HETATM   11  I   UNL     1      -7.915   7.011  69.088  1.00  0.00    -0.122 I  
HETATM   12  C   UNL     1     -10.477   8.730  69.688  1.00  0.00    -0.220 A  
HETATM   13  I   UNL     1      -9.556  12.262  66.292  1.00  0.00    -0.175 I  
HETATM   14  I   UNL     1     -12.784  10.241  71.191  1.00  0.00    -0.550 I  
HETATM   15  C   UNL     1     -10.877  11.032  68.845  1.00  0.00    -0.262 A  
HETATM   16  C   UNL     1     -11.211   9.949  69.719  1.00  0.00    -0.235 A  
BRANCH  12  17
HETATM   17  C   UNL     1     -10.988   7.435  70.276  1.00  0.00    -0.255 C  
HETATM   18  N   UNL     1     -10.740   7.151  71.598  1.00  0.00    -0.212 N  
HETATM   19  H   UNL     1     -10.125   7.766  72.132  1.00  0.00     0.000 HD 
HETATM   20  O   UNL     1     -11.631   6.665  69.571  1.00  0.00    -0.297 OA 
BRANCH  18  21
HETATM   21  C   UNL     1     -11.335   5.989  72.259  1.00  0.00    -0.303 C  
BRANCH  21  22
HETATM   22  C   UNL     1     -10.565   5.664  73.543  1.00  0.00    -0.269 C  
HETATM   23  O   UNL     1     -10.774   4.284  73.884  1.00  0.00    -0.219 OA 
HETATM   24  H   UNL     1     -10.296   4.083  74.680  1.00  0.00     0.000 HD 
BRANCH  22  25
HETATM   25  C   UNL     1      -9.064   5.963  73.421  1.00  0.00    -0.132 C  
HETATM   26  H   UNL     1      -7.505   5.219  72.463  1.00  0.00     0.000 HD 
HETATM   27  O   UNL     1      -8.434   5.034  72.538  1.00  0.00    -0.118 OA 
ENDBRANCH  22  25
ENDBRANCH  21  22
ENDBRANCH  18  21
ENDBRANCH  12  17
BRANCH  15  28
HETATM   28  C   UNL     1     -11.695  12.289  68.861  1.00  0.00    -0.328 C  
HETATM   29  O   UNL     1     -12.520  12.510  67.982  1.00  0.00    -0.045 OA 
HETATM   30  H   UNL     1     -10.807  12.973  70.636  1.00  0.00     0.000 HD 
HETATM   31  N   UNL     1     -11.490  13.177  69.906  1.00  0.00    -0.155 N  
BRANCH  31  32
HETATM   32  C   UNL     1     -12.269  14.409  69.940  1.00  0.00    -0.340 C  
BRANCH  32  33
HETATM   33  C   UNL     1     -12.681  14.828  71.357  1.00  0.00    -0.329 C  
HETATM   34  H   UNL     1     -13.530  13.968  72.912  1.00  0.00     0.000 HD 
HETATM   35  O   UNL     1     -13.275  13.709  72.034  1.00  0.00    -0.377 OA 
BRANCH  33  36
HETATM   36  C   UNL     1     -11.463  15.347  72.139  1.00  0.00    -0.433 C  
HETATM   37  O   UNL     1     -11.742  16.583  72.791  1.00  0.00    -0.486 OA 
HETATM   38  H   UNL     1     -10.990  16.904  73.274  1.00  0.00     0.000 HD 
ENDBRANCH  33  36
ENDBRANCH  32  33
ENDBRANCH  31  32
ENDBRANCH  15  28
ENDBRANCH   5   8
BRANCH   6  39
HETATM   39  C   UNL     1      -5.423  10.496  66.678  1.00  0.00    -0.053 C  
HETATM   40  O   UNL     1      -5.143  11.753  66.070  1.00  0.00    -0.428 OA 
HETATM   41  H   UNL     1      -4.368  11.737  65.520  1.00  0.00     0.000 HD 
ENDBRANCH   6  39
ENDBRANCH   4   5
ENDBRANCH   3   4
TORSDOF 12
ENDMDL
MODEL       67
REMARK 921   NORMALIZED FREE ENERGY PREDICTED BY IDOCK:   -4.33 KCAL/MOL
REMARK 922        TOTAL FREE ENERGY PREDICTED BY IDOCK:   -7.65 KCAL/MOL
REMARK 923 INTER-LIGAND FREE ENERGY PREDICTED BY IDOCK:   -6.37 KCAL/MOL
REMARK 924 INTRA-LIGAND FREE ENERGY PREDICTED BY IDOCK:   -1.28 KCAL/MOL
REMARK 927      BINDING AFFINITY PREDICTED BY RF-SCORE:    0.00 PKD
ROOT
HETATM    1  O   UNL     1     -12.968   7.181  72.236  1.00  0.00    -0.516 OA 
HETATM    2  H   UNL     1     -13.589   7.873  72.427  1.00  0.00     0.000 HD 
HETATM    3  C   UNL     1     -12.533   7.241  70.886  1.00  0.00    -0.227 C  
ENDROOT
BRANCH   3   4
HETATM    4  C   UNL     1     -11.530   6.122  70.578  1.00  0.00    -0.260 C  
BRANCH   4   5
HETATM    5  N   UNL     1     -10.107   6.534  70.553  1.00  0.00    -0.183 N  
HETATM    6  C   UNL     1      -9.256   6.519  71.662  1.00  0.00    -0.143 C  
HETATM    7  O   UNL     1      -8.031   6.698  71.565  1.00  0.00    -0.102 OA 
BRANCH   5   8
HETATM    8  C   UNL     1      -9.509   6.767  69.261  1.00  0.00    -0.142 A  
HETATM    9  C   UNL     1      -8.901   5.709  68.529  1.00  0.00    -0.108 A  
HETATM   10  C   UNL     1      -9.452   8.082  68.741  1.00  0.00    -0.147 A  
HETATM   11  I   UNL     1      -9.059   3.682  69.311  1.00  0.00    -0.234 I  
HETATM   12  C   UNL     1      -8.270   5.942  67.274  1.00  0.00    -0.105 A  
HETATM   13  I   UNL     1      -9.885   9.752  70.055  1.00  0.00    -0.184 I  
HETATM   14  I   UNL     1      -7.844   7.564  64.619  1.00  0.00    -0.066 I  
HETATM   15  C   UNL     1      -8.996   8.312  67.425  1.00  0.00    -0.142 A  
HETATM   16  C   UNL     1      -8.409   7.233  66.692  1.00  0.00    -0.121 A  
BRANCH  12  17
HETATM   17  C   UNL     1      -7.337   4.882  66.737  1.00  0.00    -0.086 C  
HETATM   18  N   UNL     1      -7.818   3.946  65.853  1.00  0.00    -0.089 N  
HETATM   19  H   UNL     1      -8.819   3.915  65.657  1.00  0.00     0.000 HD 
HETATM   20  O   UNL     1      -6.160   4.882  67.082  1.00  0.00    -0.029 OA 
BRANCH  18  21
HETATM   21  C   UNL     1      -6.931   2.991  65.185  1.00  0.00    -0.053 C  
BRANCH  21  22
HETATM   22  C   UNL     1      -7.080   3.111  63.665  1.00  0.00    -0.049 C  
HETATM   23  O   UNL     1      -8.311   3.785  63.362  1.00  0.00    -0.088 OA 
HETATM   24  H   UNL     1      -8.404   3.860  62.419  1.00  0.00     0.000 HD 
BRANCH  22  25
HETATM   25  C   UNL     1      -5.897   3.841  63.014  1.00  0.00    -0.013 C  
HETATM   26  H   UNL     1      -4.565   5.205  63.531  1.00  0.00     0.000 HD 
HETATM   27  O   UNL     1      -5.298   4.753  63.934  1.00  0.00    -0.012 OA 
ENDBRANCH  22  25
ENDBRANCH  21  22
ENDBRANCH  18  21
ENDBRANCH  12  17
BRANCH  15  28
HETATM   28  C   UNL     1      -9.089   9.677  66.809  1.00  0.00    -0.146 C  
HETATM   29  O   UNL     1      -8.131  10.440  66.834  1.00  0.00    -0.115 OA 
HETATM   30  H   UNL     1     -11.071   9.379  66.185  1.00  0.00     0.000 HD 
HETATM   31  N   UNL     1     -10.287  10.031  66.207  1.00  0.00    -0.200 N  
BRANCH  31  32
HETATM   32  C   UNL     1     -10.402  11.354  65.605  1.00  0.00    -0.257 C  
BRANCH  32  33
HETATM   33  C   UNL     1     -11.845  11.736  65.251  1.00  0.00     0.024 C  
HETATM   34  H   UNL     1     -13.230  12.928  65.985  1.00  0.00     0.000 HD 
HETATM   35  O   UNL     1     -12.336  12.691  66.204  1.00  0.00    -0.570 OA 
BRANCH  33  36
HETATM   36  C   UNL     1     -11.913  12.313  63.827  1.00  0.00    -0.519 C  
HETATM   37  O   UNL     1     -12.647  11.462  62.949  1.00  0.00    -0.970 OA 
HETATM   38  H   UNL     1     -12.690  11.818  62.069  1.00  0.00     0.000 HD 
ENDBRANCH  33  36
ENDBRANCH  32  33
ENDBRANCH  31  32
ENDBRANCH  15  28
ENDBRANCH   5   8
BRANCH   6  39
HETATM   39  C   UNL     1      -9.865   6.236  73.044  1.00  0.00    -0.168 C  
HETATM   40  O   UNL     1     -10.287   7.415  73.721  1.00  0.00    -0.348 OA 
HETATM   41  H   UNL     1     -10.664   7.240  74.575  1.00  0.00     0.000 HD 
ENDBRANCH   6  39
ENDBRANCH   4   5
ENDBRANCH   3   4
TORSDOF 12
ENDMDL
MODEL       68
REMARK 921   NORMALIZED FREE ENERGY PREDICTED BY IDOCK:   -4.28 KCAL/MOL
REMARK 922        TOTAL FREE ENERGY PREDICTED BY IDOCK:   -7.57 KCAL/MOL
REMARK 923 INTER-LIGAND FREE ENERGY PREDICTED BY IDOCK:   -6.86 KCAL/MOL
REMARK 924 INTRA-LIGAND FREE ENERGY PREDICTED BY IDOCK:   -0.71 KCAL/MOL
REMARK 927      BINDING AFFINITY PREDICTED BY RF-SCORE:    0.00 PKD
ROOT
HETATM    1  O   UNL     1     -12.221   7.395  70.527  1.00  0.00    -0.531 OA 
HETATM    2  H   UNL     1     -12.582   6.855  71.219  1.00  0.00     0.000 HD 
HETATM    3  C   UNL     1     -10.893   7.796  70.830  1.00  0.00    -0.239 C  
ENDROOT
BRANCH   3   4
HETATM    4  C   UNL     1     -10.311   8.670  69.712  1.00  0.00    -0.212 C  
BRANCH   4   5
HETATM    5  N   UNL     1      -8.958   8.287  69.246  1.00  0.00    -0.146 N  
HETATM    6  C   UNL     1      -7.887   7.970  70.087  1.00  0.00    -0.099 C  
HETATM    7  O   UNL     1      -6.827   7.484  69.663  1.00  0.00    -0.043 OA 
BRANCH   5   8
HETATM    8  C   UNL     1      -8.793   8.026  67.837  1.00  0.00    -0.130 A  
HETATM    9  C   UNL     1      -8.577   9.085  66.911  1.00  0.00    -0.123 A  
HETATM   10  C   UNL     1      -8.928   6.704  67.348  1.00  0.00    -0.114 A  
HETATM   11  I   UNL     1      -8.303  11.101  67.689  1.00  0.00    -0.136 I  
HETATM   12  C   UNL     1      -8.459   8.837  65.514  1.00  0.00    -0.181 A  
HETATM   13  I   UNL     1      -9.773   5.185  68.643  1.00  0.00    -0.209 I  
HETATM   14  I   UNL     1      -7.810   7.007  63.046  1.00  0.00     0.020 I  
HETATM   15  C   UNL     1      -8.638   6.407  65.999  1.00  0.00    -0.149 A  
HETATM   16  C   UNL     1      -8.398   7.482  65.085  1.00  0.00    -0.085 A  
BRANCH  12  17
HETATM   17  C   UNL     1      -8.604  10.005  64.568  1.00  0.00    -0.187 C  
HETATM   18  N   UNL     1      -9.856  10.507  64.304  1.00  0.00    -0.324 N  
HETATM   19  H   UNL     1     -10.675  10.018  64.666  1.00  0.00     0.000 HD 
HETATM   20  O   UNL     1      -7.603  10.500  64.061  1.00  0.00    -0.063 OA 
BRANCH  18  21
HETATM   21  C   UNL     1     -10.045  11.728  63.517  1.00  0.00    -0.438 C  
BRANCH  21  22
HETATM   22  C   UNL     1     -11.480  12.241  63.681  1.00  0.00    -0.490 C  
HETATM   23  O   UNL     1     -12.379  11.362  62.987  1.00  0.00    -0.952 OA 
HETATM   24  H   UNL     1     -13.268  11.680  63.088  1.00  0.00     0.000 HD 
BRANCH  22  25
HETATM   25  C   UNL     1     -11.893  12.374  65.153  1.00  0.00    -0.388 C  
HETATM   26  H   UNL     1     -11.136  13.126  66.815  1.00  0.00     0.000 HD 
HETATM   27  O   UNL     1     -10.880  13.043  65.904  1.00  0.00    -0.270 OA 
ENDBRANCH  22  25
ENDBRANCH  21  22
ENDBRANCH  18  21
ENDBRANCH  12  17
BRANCH  15  28
HETATM   28  C   UNL     1      -8.616   4.988  65.513  1.00  0.00    -0.139 C  
HETATM   29  O   UNL     1      -7.602   4.307  65.616  1.00  0.00    -0.083 OA 
HETATM   30  H   UNL     1     -10.620   5.057  64.891  1.00  0.00     0.000 HD 
HETATM   31  N   UNL     1      -9.781   4.480  64.959  1.00  0.00    -0.153 N  
BRANCH  31  32
HETATM   32  C   UNL     1      -9.783   3.104  64.475  1.00  0.00    -0.143 C  
BRANCH  32  33
HETATM   33  C   UNL     1      -9.825   2.999  62.945  1.00  0.00    -0.095 C  
HETATM   34  H   UNL     1     -10.629   4.017  61.464  1.00  0.00     0.000 HD 
HETATM   35  O   UNL     1     -10.603   4.082  62.411  1.00  0.00    -0.202 OA 
BRANCH  33  36
HETATM   36  C   UNL     1      -8.401   3.022  62.366  1.00  0.00    -0.074 C  
HETATM   37  O   UNL     1      -7.470   2.372  63.229  1.00  0.00    -0.054 OA 
HETATM   38  H   UNL     1      -6.590   2.387  62.871  1.00  0.00     0.000 HD 
ENDBRANCH  33  36
ENDBRANCH  32  33
ENDBRANCH  31  32
ENDBRANCH  15  28
ENDBRANCH   5   8
BRANCH   6  39
HETATM   39  C   UNL     1      -8.053   8.206  71.596  1.00  0.00    -0.124 C  
HETATM   40  O   UNL     1      -7.195   9.224  72.101  1.00  0.00    -0.305 OA 
HETATM   41  H   UNL     1      -7.298   9.370  73.035  1.00  0.00     0.000 HD 
ENDBRANCH   6  39
ENDBRANCH   4   5
ENDBRANCH   3   4
TORSDOF 12
ENDMDL
MODEL       69
REMARK 921   NORMALIZED FREE ENERGY PREDICTED BY IDOCK:   -4.25 KCAL/MOL
REMARK 922        TOTAL FREE ENERGY PREDICTED BY IDOCK:   -7.50 KCAL/MOL
REMARK 923 INTER-LIGAND FREE ENERGY PREDICTED BY IDOCK:   -7.57 KCAL/MOL
REMARK 924 INTRA-LIGAND FREE ENERGY PREDICTED BY IDOCK:    0.06 KCAL/MOL
REMARK 927      BINDING AFFINITY PREDICTED BY RF-SCORE:    0.00 PKD
ROOT
HETATM    1  O   UNL     1      -9.901   9.789  62.441  1.00  0.00    -0.574 OA 
HETATM    2  H   UNL     1      -9.612   9.922  61.546  1.00  0.00     0.000 HD 
HETATM    3  C   UNL     1      -8.797   9.681  63.326  1.00  0.00    -0.238 C  
ENDROOT
BRANCH   3   4
HETATM    4  C   UNL     1      -9.264   9.465  64.770  1.00  0.00    -0.156 C  
BRANCH   4   5
HETATM    5  N   UNL     1      -8.574  10.285  65.792  1.00  0.00    -0.148 N  
HETATM    6  C   UNL     1      -7.240  10.696  65.713  1.00  0.00    -0.104 C  
HETATM    7  O   UNL     1      -6.751  11.527  66.495  1.00  0.00    -0.112 OA 
BRANCH   5   8
HETATM    8  C   UNL     1      -9.387  10.869  66.831  1.00  0.00    -0.168 A  
HETATM    9  C   UNL     1      -9.579  10.206  68.076  1.00  0.00    -0.145 A  
HETATM   10  C   UNL     1     -10.072  12.082  66.587  1.00  0.00    -0.198 A  
HETATM   11  I   UNL     1      -8.462   8.375  68.459  1.00  0.00    -0.132 I  
HETATM   12  C   UNL     1     -10.417  10.755  69.087  1.00  0.00    -0.243 A  
HETATM   13  I   UNL     1     -10.218  12.817  64.553  1.00  0.00    -0.158 I  
HETATM   14  I   UNL     1     -11.859  13.145  70.528  1.00  0.00     0.425 I  
HETATM   15  C   UNL     1     -10.761  12.738  67.631  1.00  0.00    -0.236 A  
HETATM   16  C   UNL     1     -10.925  12.069  68.885  1.00  0.00    -0.232 A  
BRANCH  12  17
HETATM   17  C   UNL     1     -10.871   9.849  70.208  1.00  0.00    -0.310 C  
HETATM   18  N   UNL     1     -11.977   9.053  70.024  1.00  0.00    -0.303 N  
HETATM   19  H   UNL     1     -12.535   9.165  69.177  1.00  0.00     0.000 HD 
HETATM   20  O   UNL     1     -10.238   9.823  71.258  1.00  0.00    -0.153 OA 
BRANCH  18  21
HETATM   21  C   UNL     1     -12.374   8.049  71.013  1.00  0.00    -0.150 C  
BRANCH  21  22
HETATM   22  C   UNL     1     -11.888   6.663  70.577  1.00  0.00    -0.370 C  
HETATM   23  O   UNL     1     -11.615   6.678  69.167  1.00  0.00    -0.617 OA 
HETATM   24  H   UNL     1     -11.314   5.819  68.897  1.00  0.00     0.000 HD 
BRANCH  22  25
HETATM   25  C   UNL     1     -10.648   6.202  71.356  1.00  0.00    -0.243 C  
HETATM   26  H   UNL     1     -10.259   5.162  72.990  1.00  0.00     0.000 HD 
HETATM   27  O   UNL     1     -11.027   5.448  72.508  1.00  0.00    -0.237 OA 
ENDBRANCH  22  25
ENDBRANCH  21  22
ENDBRANCH  18  21
ENDBRANCH  12  17
BRANCH  15  28
HETATM   28  C   UNL     1     -11.347  14.103  67.424  1.00  0.00    -0.327 C  
HETATM   29  O   UNL     1     -12.529  14.238  67.130  1.00  0.00    -0.266 OA 
HETATM   30  H   UNL     1      -9.530  15.066  67.846  1.00  0.00     0.000 HD 
HETATM   31  N   UNL     1     -10.509  15.195  67.589  1.00  0.00    -0.249 N  
BRANCH  31  32
HETATM   32  C   UNL     1     -11.056  16.532  67.389  1.00  0.00    -0.027 C  
BRANCH  32  33
HETATM   33  C   UNL     1      -9.998  17.566  66.983  1.00  0.00    -0.311 C  
HETATM   34  H   UNL     1      -8.730  17.805  65.495  1.00  0.00     0.000 HD 
HETATM   35  O   UNL     1      -9.386  17.165  65.747  1.00  0.00    -0.523 OA 
BRANCH  33  36
HETATM   36  C   UNL     1     -10.634  18.959  66.843  1.00  0.00    -0.421 C  
HETATM   37  O   UNL     1     -10.495  19.471  65.520  1.00  0.00    -0.465 OA 
HETATM   38  H   UNL     1     -10.888  20.332  65.433  1.00  0.00     0.000 HD 
ENDBRANCH  33  36
ENDBRANCH  32  33
ENDBRANCH  31  32
ENDBRANCH  15  28
ENDBRANCH   5   8
BRANCH   6  39
HETATM   39  C   UNL     1      -6.365  10.116  64.592  1.00  0.00    -0.130 C  
HETATM   40  O   UNL     1      -5.461   9.114  65.049  1.00  0.00    -0.045 OA 
HETATM   41  H   UNL     1      -4.920   8.755  64.355  1.00  0.00     0.000 HD 
ENDBRANCH   6  39
ENDBRANCH   4   5
ENDBRANCH   3   4
TORSDOF 12
ENDMDL
MODEL       70
REMARK 921   NORMALIZED FREE ENERGY PREDICTED BY IDOCK:   -4.21 KCAL/MOL
REMARK 922        TOTAL FREE ENERGY PREDICTED BY IDOCK:   -7.44 KCAL/MOL
REMARK 923 INTER-LIGAND FREE ENERGY PREDICTED BY IDOCK:   -7.25 KCAL/MOL
REMARK 924 INTRA-LIGAND FREE ENERGY PREDICTED BY IDOCK:   -0.19 KCAL/MOL
REMARK 927      BINDING AFFINITY PREDICTED BY RF-SCORE:    0.00 PKD
ROOT
HETATM    1  O   UNL     1      -5.693   5.522  69.729  1.00  0.00    -0.014 OA 
HETATM    2  H   UNL     1      -5.188   6.273  70.019  1.00  0.00     0.000 HD 
HETATM    3  C   UNL     1      -5.903   5.557  68.325  1.00  0.00    -0.017 C  
ENDROOT
BRANCH   3   4
HETATM    4  C   UNL     1      -6.718   4.346  67.858  1.00  0.00    -0.051 C  
BRANCH   4   5
HETATM    5  N   UNL     1      -8.076   4.651  67.349  1.00  0.00    -0.101 N  
HETATM    6  C   UNL     1      -8.924   3.721  66.739  1.00  0.00    -0.141 C  
HETATM    7  O   UNL     1     -10.114   3.968  66.490  1.00  0.00    -0.162 OA 
BRANCH   5   8
HETATM    8  C   UNL     1      -8.636   5.935  67.690  1.00  0.00    -0.102 A  
HETATM    9  C   UNL     1      -9.361   6.126  68.900  1.00  0.00    -0.124 A  
HETATM   10  C   UNL     1      -8.536   7.010  66.775  1.00  0.00    -0.118 A  
HETATM   11  I   UNL     1      -9.445   4.482  70.327  1.00  0.00    -0.288 I  
HETATM   12  C   UNL     1      -9.954   7.379  69.220  1.00  0.00    -0.173 A  
HETATM   13  I   UNL     1      -7.916   6.601  64.737  1.00  0.00    -0.013 I  
HETATM   14  I   UNL     1     -10.173  10.505  69.000  1.00  0.00    -0.260 I  
HETATM   15  C   UNL     1      -8.955   8.306  67.144  1.00  0.00    -0.154 A  
HETATM   16  C   UNL     1      -9.661   8.486  68.375  1.00  0.00    -0.147 A  
BRANCH  12  17
HETATM   17  C   UNL     1     -11.002   7.416  70.308  1.00  0.00    -0.255 C  
HETATM   18  N   UNL     1     -10.775   8.164  71.438  1.00  0.00    -0.227 N  
HETATM   19  H   UNL     1      -9.861   8.596  71.573  1.00  0.00     0.000 HD 
HETATM   20  O   UNL     1     -12.048   6.792  70.160  1.00  0.00    -0.289 OA 
BRANCH  18  21
HETATM   21  C   UNL     1     -11.812   8.358  72.453  1.00  0.00    -0.384 C  
BRANCH  21  22
HETATM   22  C   UNL     1     -12.993   9.130  71.856  1.00  0.00    -0.404 C  
HETATM   23  O   UNL     1     -14.103   9.074  72.765  1.00  0.00    -0.893 OA 
HETATM   24  H   UNL     1     -14.836   9.552  72.394  1.00  0.00     0.000 HD 
BRANCH  22  25
HETATM   25  C   UNL     1     -12.640  10.588  71.532  1.00  0.00    -0.424 C  
HETATM   26  H   UNL     1     -13.245  12.388  72.078  1.00  0.00     0.000 HD 
HETATM   27  O   UNL     1     -13.463  11.485  72.278  1.00  0.00    -0.368 OA 
ENDBRANCH  22  25
ENDBRANCH  21  22
ENDBRANCH  18  21
ENDBRANCH  12  17
BRANCH  15  28
HETATM   28  C   UNL     1      -8.700   9.480  66.245  1.00  0.00    -0.143 C  
HETATM   29  O   UNL     1      -7.675  10.142  66.356  1.00  0.00    -0.105 OA 
HETATM   30  H   UNL     1     -10.500   9.208  65.199  1.00  0.00     0.000 HD 
HETATM   31  N   UNL     1      -9.657   9.776  65.286  1.00  0.00    -0.288 N  
BRANCH  31  32
HETATM   32  C   UNL     1      -9.434  10.916  64.404  1.00  0.00    -0.247 C  
BRANCH  32  33
HETATM   33  C   UNL     1     -10.440  12.053  64.617  1.00  0.00    -0.297 C  
HETATM   34  H   UNL     1     -12.399  12.252  64.596  1.00  0.00     0.000 HD 
HETATM   35  O   UNL     1     -11.776  11.547  64.464  1.00  0.00    -0.170 OA 
BRANCH  33  36
HETATM   36  C   UNL     1     -10.257  12.679  66.010  1.00  0.00    -0.272 C  
HETATM   37  O   UNL     1      -8.918  13.123  66.216  1.00  0.00    -0.448 OA 
HETATM   38  H   UNL     1      -8.805  13.509  67.076  1.00  0.00     0.000 HD 
ENDBRANCH  33  36
ENDBRANCH  32  33
ENDBRANCH  31  32
ENDBRANCH  15  28
ENDBRANCH   5   8
BRANCH   6  39
HETATM   39  C   UNL     1      -8.359   2.333  66.400  1.00  0.00    -0.094 C  
HETATM   40  O   UNL     1      -7.807   2.259  65.090  1.00  0.00    -0.075 OA 
HETATM   41  H   UNL     1      -7.458   1.400  64.880  1.00  0.00     0.000 HD 
ENDBRANCH   6  39
ENDBRANCH   4   5
ENDBRANCH   3   4
TORSDOF 12
ENDMDL
MODEL       71
REMARK 921   NORMALIZED FREE ENERGY PREDICTED BY IDOCK:   -4.21 KCAL/MOL
REMARK 922        TOTAL FREE ENERGY PREDICTED BY IDOCK:   -7.43 KCAL/MOL
REMARK 923 INTER-LIGAND FREE ENERGY PREDICTED BY IDOCK:   -7.41 KCAL/MOL
REMARK 924 INTRA-LIGAND FREE ENERGY PREDICTED BY IDOCK:   -0.02 KCAL/MOL
REMARK 927      BINDING AFFINITY PREDICTED BY RF-SCORE:    0.00 PKD
ROOT
HETATM    1  O   UNL     1     -10.760   4.919  70.685  1.00  0.00    -0.093 OA 
HETATM    2  H   UNL     1     -10.457   4.209  70.131  1.00  0.00     0.000 HD 
HETATM    3  C   UNL     1     -11.103   6.060  69.913  1.00  0.00    -0.399 C  
ENDROOT
BRANCH   3   4
HETATM    4  C   UNL     1     -11.593   7.205  70.807  1.00  0.00    -0.318 C  
BRANCH   4   5
HETATM    5  N   UNL     1     -10.542   8.131  71.287  1.00  0.00    -0.211 N  
HETATM    6  C   UNL     1      -9.887   8.021  72.517  1.00  0.00    -0.263 C  
HETATM    7  O   UNL     1      -8.892   8.705  72.807  1.00  0.00    -0.374 OA 
BRANCH   5   8
HETATM    8  C   UNL     1     -10.017   9.084  70.340  1.00  0.00    -0.203 A  
HETATM    9  C   UNL     1     -10.772  10.224  69.946  1.00  0.00    -0.294 A  
HETATM   10  C   UNL     1      -8.764   8.846  69.726  1.00  0.00    -0.139 A  
HETATM   11  I   UNL     1     -12.666  10.611  70.952  1.00  0.00    -0.427 I  
HETATM   12  C   UNL     1     -10.278  11.143  68.978  1.00  0.00    -0.194 A  
HETATM   13  I   UNL     1      -7.861   6.883  69.907  1.00  0.00    -0.119 I  
HETATM   14  I   UNL     1      -7.965  12.553  67.387  1.00  0.00    -0.126 I  
HETATM   15  C   UNL     1      -8.172   9.827  68.903  1.00  0.00    -0.117 A  
HETATM   16  C   UNL     1      -8.935  10.981  68.535  1.00  0.00    -0.163 A  
BRANCH  12  17
HETATM   17  C   UNL     1     -11.256  12.101  68.339  1.00  0.00    -0.265 C  
HETATM   18  N   UNL     1     -11.135  13.449  68.582  1.00  0.00    -0.252 N  
HETATM   19  H   UNL     1     -10.457  13.771  69.272  1.00  0.00     0.000 HD 
HETATM   20  O   UNL     1     -12.132  11.666  67.600  1.00  0.00    -0.615 OA 
BRANCH  18  21
HETATM   21  C   UNL     1     -11.956  14.434  67.875  1.00  0.00    -0.313 C  
BRANCH  21  22
HETATM   22  C   UNL     1     -11.538  14.505  66.402  1.00  0.00    -0.364 C  
HETATM   23  O   UNL     1     -12.654  14.138  65.576  1.00  0.00    -0.485 OA 
HETATM   24  H   UNL     1     -12.395  14.181  64.663  1.00  0.00     0.000 HD 
BRANCH  22  25
HETATM   25  C   UNL     1     -11.012  15.891  66.005  1.00  0.00    -0.139 C  
HETATM   26  H   UNL     1     -10.553  16.852  64.342  1.00  0.00     0.000 HD 
HETATM   27  O   UNL     1     -10.879  15.994  64.588  1.00  0.00    -0.608 OA 
ENDBRANCH  22  25
ENDBRANCH  21  22
ENDBRANCH  18  21
ENDBRANCH  12  17
BRANCH  15  28
HETATM   28  C   UNL     1      -6.776   9.654  68.384  1.00  0.00    -0.057 C  
HETATM   29  O   UNL     1      -5.809   9.903  69.095  1.00  0.00    -0.035 OA 
HETATM   30  H   UNL     1      -7.439   8.980  66.510  1.00  0.00     0.000 HD 
HETATM   31  N   UNL     1      -6.624   9.194  67.085  1.00  0.00    -0.061 N  
BRANCH  31  32
HETATM   32  C   UNL     1      -5.276   9.022  66.557  1.00  0.00    -0.034 C  
BRANCH  32  33
HETATM   33  C   UNL     1      -5.249   8.434  65.140  1.00  0.00    -0.035 C  
HETATM   34  H   UNL     1      -5.782   6.742  64.285  1.00  0.00     0.000 HD 
HETATM   35  O   UNL     1      -5.799   7.107  65.162  1.00  0.00    -0.035 OA 
BRANCH  33  36
HETATM   36  C   UNL     1      -6.039   9.329  64.171  1.00  0.00    -0.077 C  
HETATM   37  O   UNL     1      -7.266   8.721  63.773  1.00  0.00    -0.094 OA 
HETATM   38  H   UNL     1      -7.754   9.274  63.175  1.00  0.00     0.000 HD 
ENDBRANCH  33  36
ENDBRANCH  32  33
ENDBRANCH  31  32
ENDBRANCH  15  28
ENDBRANCH   5   8
BRANCH   6  39
HETATM   39  C   UNL     1     -10.406   6.987  73.529  1.00  0.00    -0.356 C  
HETATM   40  O   UNL     1      -9.774   5.717  73.404  1.00  0.00    -0.145 OA 
HETATM   41  H   UNL     1     -10.095   5.077  74.029  1.00  0.00     0.000 HD 
ENDBRANCH   6  39
ENDBRANCH   4   5
ENDBRANCH   3   4
TORSDOF 12
ENDMDL
MODEL       72
REMARK 921   NORMALIZED FREE ENERGY PREDICTED BY IDOCK:   -4.18 KCAL/MOL
REMARK 922        TOTAL FREE ENERGY PREDICTED BY IDOCK:   -7.39 KCAL/MOL
REMARK 923 INTER-LIGAND FREE ENERGY PREDICTED BY IDOCK:   -7.08 KCAL/MOL
REMARK 924 INTRA-LIGAND FREE ENERGY PREDICTED BY IDOCK:   -0.31 KCAL/MOL
REMARK 927      BINDING AFFINITY PREDICTED BY RF-SCORE:    0.00 PKD
ROOT
HETATM    1  O   UNL     1     -12.429  10.627  68.630  1.00  0.00    -0.788 OA 
HETATM    2  H   UNL     1     -12.840  11.388  69.024  1.00  0.00     0.000 HD 
HETATM    3  C   UNL     1     -11.208  10.976  67.995  1.00  0.00    -0.309 C  
ENDROOT
BRANCH   3   4
HETATM    4  C   UNL     1     -10.545   9.748  67.359  1.00  0.00    -0.267 C  
BRANCH   4   5
HETATM    5  N   UNL     1      -9.121   9.541  67.710  1.00  0.00    -0.125 N  
HETATM    6  C   UNL     1      -8.195  10.568  67.912  1.00  0.00    -0.107 C  
HETATM    7  O   UNL     1      -7.062  10.363  68.378  1.00  0.00    -0.075 OA 
BRANCH   5   8
HETATM    8  C   UNL     1      -8.716   8.203  68.066  1.00  0.00    -0.128 A  
HETATM    9  C   UNL     1      -8.352   7.253  67.071  1.00  0.00    -0.118 A  
HETATM   10  C   UNL     1      -8.754   7.796  69.421  1.00  0.00    -0.135 A  
HETATM   11  I   UNL     1      -8.232   7.917  65.000  1.00  0.00    -0.008 I  
HETATM   12  C   UNL     1      -7.995   5.918  67.414  1.00  0.00    -0.102 A  
HETATM   13  I   UNL     1      -9.796   9.036  70.863  1.00  0.00    -0.353 I  
HETATM   14  I   UNL     1      -6.919   3.736  69.401  1.00  0.00    -0.046 I  
HETATM   15  C   UNL     1      -8.235   6.542  69.807  1.00  0.00    -0.126 A  
HETATM   16  C   UNL     1      -7.850   5.606  68.795  1.00  0.00    -0.096 A  
BRANCH  12  17
HETATM   17  C   UNL     1      -7.985   4.878  66.319  1.00  0.00    -0.107 C  
HETATM   18  N   UNL     1      -9.140   4.189  66.034  1.00  0.00    -0.129 N  
HETATM   19  H   UNL     1      -9.954   4.312  66.636  1.00  0.00     0.000 HD 
HETATM   20  O   UNL     1      -6.954   4.676  65.688  1.00  0.00    -0.060 OA 
BRANCH  18  21
HETATM   21  C   UNL     1      -9.231   3.281  64.889  1.00  0.00    -0.146 C  
BRANCH  21  22
HETATM   22  C   UNL     1     -10.551   3.507  64.144  1.00  0.00    -0.202 C  
HETATM   23  O   UNL     1     -11.402   4.351  64.934  1.00  0.00    -1.015 OA 
HETATM   24  H   UNL     1     -12.220   4.491  64.473  1.00  0.00     0.000 HD 
BRANCH  22  25
HETATM   25  C   UNL     1     -10.343   4.112  62.749  1.00  0.00    -0.102 C  
HETATM   26  H   UNL     1      -8.973   5.186  61.817  1.00  0.00     0.000 HD 
HETATM   27  O   UNL     1      -9.101   4.812  62.681  1.00  0.00    -0.133 OA 
ENDBRANCH  22  25
ENDBRANCH  21  22
ENDBRANCH  18  21
ENDBRANCH  12  17
BRANCH  15  28
HETATM   28  C   UNL     1      -8.119   6.172  71.256  1.00  0.00    -0.118 C  
HETATM   29  O   UNL     1      -7.173   6.565  71.928  1.00  0.00    -0.083 OA 
HETATM   30  H   UNL     1      -9.908   5.074  71.230  1.00  0.00     0.000 HD 
HETATM   31  N   UNL     1      -9.122   5.383  71.801  1.00  0.00    -0.138 N  
BRANCH  31  32
HETATM   32  C   UNL     1      -9.028   5.006  73.206  1.00  0.00    -0.119 C  
BRANCH  32  33
HETATM   33  C   UNL     1     -10.298   5.323  74.006  1.00  0.00    -0.269 C  
HETATM   34  H   UNL     1     -11.218   6.943  74.644  1.00  0.00     0.000 HD 
HETATM   35  O   UNL     1     -10.432   6.746  74.149  1.00  0.00    -0.365 OA 
BRANCH  33  36
HETATM   36  C   UNL     1     -11.534   4.734  73.306  1.00  0.00    -0.273 C  
HETATM   37  O   UNL     1     -12.397   5.755  72.812  1.00  0.00    -0.541 OA 
HETATM   38  H   UNL     1     -13.161   5.391  72.380  1.00  0.00     0.000 HD 
ENDBRANCH  33  36
ENDBRANCH  32  33
ENDBRANCH  31  32
ENDBRANCH  15  28
ENDBRANCH   5   8
BRANCH   6  39
HETATM   39  C   UNL     1      -8.617  12.006  67.574  1.00  0.00    -0.167 C  
HETATM   40  O   UNL     1      -8.427  12.914  68.654  1.00  0.00    -0.327 OA 
HETATM   41  H   UNL     1      -8.688  13.804  68.445  1.00  0.00     0.000 HD 
ENDBRANCH   6  39
ENDBRANCH   4   5
ENDBRANCH   3   4
TORSDOF 12
ENDMDL
MODEL       73
REMARK 921   NORMALIZED FREE ENERGY PREDICTED BY IDOCK:   -4.13 KCAL/MOL
REMARK 922        TOTAL FREE ENERGY PREDICTED BY IDOCK:   -7.31 KCAL/MOL
REMARK 923 INTER-LIGAND FREE ENERGY PREDICTED BY IDOCK:   -6.03 KCAL/MOL
REMARK 924 INTRA-LIGAND FREE ENERGY PREDICTED BY IDOCK:   -1.28 KCAL/MOL
REMARK 927      BINDING AFFINITY PREDICTED BY RF-SCORE:    0.00 PKD
ROOT
HETATM    1  O   UNL     1      -8.730   3.275  64.916  1.00  0.00    -0.104 OA 
HETATM    2  H   UNL     1      -9.083   2.478  65.295  1.00  0.00     0.000 HD 
HETATM    3  C   UNL     1      -9.441   4.417  65.372  1.00  0.00    -0.175 C  
ENDROOT
BRANCH   3   4
HETATM    4  C   UNL     1      -8.871   5.703  64.761  1.00  0.00     0.065 C  
BRANCH   4   5
HETATM    5  N   UNL     1      -8.087   6.553  65.686  1.00  0.00    -0.121 N  
HETATM    6  C   UNL     1      -6.692   6.568  65.763  1.00  0.00    -0.048 C  
HETATM    7  O   UNL     1      -6.069   7.418  66.419  1.00  0.00    -0.038 OA 
BRANCH   5   8
HETATM    8  C   UNL     1      -8.802   7.579  66.406  1.00  0.00    -0.156 A  
HETATM    9  C   UNL     1      -9.063   8.847  65.816  1.00  0.00    -0.221 A  
HETATM   10  C   UNL     1      -9.183   7.357  67.750  1.00  0.00    -0.131 A  
HETATM   11  I   UNL     1      -8.532   9.147  63.724  1.00  0.00    -0.070 I  
HETATM   12  C   UNL     1      -9.729   9.879  66.537  1.00  0.00    -0.260 A  
HETATM   13  I   UNL     1      -8.339   5.669  68.817  1.00  0.00    -0.101 I  
HETATM   14  I   UNL     1     -11.647  10.919  68.796  1.00  0.00    -0.219 I  
HETATM   15  C   UNL     1      -9.999   8.289  68.426  1.00  0.00    -0.211 A  
HETATM   16  C   UNL     1     -10.274   9.551  67.810  1.00  0.00    -0.216 A  
BRANCH  12  17
HETATM   17  C   UNL     1      -9.644  11.290  66.005  1.00  0.00    -0.218 C  
HETATM   18  N   UNL     1     -10.715  11.819  65.324  1.00  0.00    -0.279 N  
HETATM   19  H   UNL     1     -11.506  11.216  65.095  1.00  0.00     0.000 HD 
HETATM   20  O   UNL     1      -8.630  11.951  66.203  1.00  0.00    -0.092 OA 
BRANCH  18  21
HETATM   21  C   UNL     1     -10.750  13.225  64.918  1.00  0.00    -0.351 C  
BRANCH  21  22
HETATM   22  C   UNL     1     -11.807  13.980  65.732  1.00  0.00    -0.383 C  
HETATM   23  O   UNL     1     -13.000  13.184  65.812  1.00  0.00    -0.335 OA 
HETATM   24  H   UNL     1     -13.655  13.652  66.316  1.00  0.00     0.000 HD 
BRANCH  22  25
HETATM   25  C   UNL     1     -11.315  14.349  67.138  1.00  0.00    -0.343 C  
HETATM   26  H   UNL     1     -10.642  15.955  68.069  1.00  0.00     0.000 HD 
HETATM   27  O   UNL     1     -10.947  15.727  67.199  1.00  0.00    -0.314 OA 
ENDBRANCH  22  25
ENDBRANCH  21  22
ENDBRANCH  18  21
ENDBRANCH  12  17
BRANCH  15  28
HETATM   28  C   UNL     1     -10.545   7.985  69.790  1.00  0.00    -0.238 C  
HETATM   29  O   UNL     1     -11.616   7.405  69.920  1.00  0.00    -0.084 OA 
HETATM   30  H   UNL     1      -8.893   8.843  70.761  1.00  0.00     0.000 HD 
HETATM   31  N   UNL     1      -9.788   8.372  70.887  1.00  0.00    -0.178 N  
BRANCH  31  32
HETATM   32  C   UNL     1     -10.300   8.091  72.223  1.00  0.00    -0.271 C  
BRANCH  32  33
HETATM   33  C   UNL     1      -9.487   7.030  72.974  1.00  0.00    -0.150 C  
HETATM   34  H   UNL     1      -8.613   6.877  74.731  1.00  0.00     0.000 HD 
HETATM   35  O   UNL     1      -9.116   7.535  74.266  1.00  0.00    -0.225 OA 
BRANCH  33  36
HETATM   36  C   UNL     1     -10.300   5.732  73.116  1.00  0.00    -0.205 C  
HETATM   37  O   UNL     1     -11.594   5.853  72.529  1.00  0.00    -0.316 OA 
HETATM   38  H   UNL     1     -12.096   5.051  72.616  1.00  0.00     0.000 HD 
ENDBRANCH  33  36
ENDBRANCH  32  33
ENDBRANCH  31  32
ENDBRANCH  15  28
ENDBRANCH   5   8
BRANCH   6  39
HETATM   39  C   UNL     1      -5.908   5.507  64.975  1.00  0.00    -0.021 C  
HETATM   40  O   UNL     1      -5.661   4.322  65.725  1.00  0.00    -0.020 OA 
HETATM   41  H   UNL     1      -5.176   3.666  65.237  1.00  0.00     0.000 HD 
ENDBRANCH   6  39
ENDBRANCH   4   5
ENDBRANCH   3   4
TORSDOF 12
ENDMDL
MODEL       74
REMARK 921   NORMALIZED FREE ENERGY PREDICTED BY IDOCK:   -4.13 KCAL/MOL
REMARK 922        TOTAL FREE ENERGY PREDICTED BY IDOCK:   -7.30 KCAL/MOL
REMARK 923 INTER-LIGAND FREE ENERGY PREDICTED BY IDOCK:   -6.61 KCAL/MOL
REMARK 924 INTRA-LIGAND FREE ENERGY PREDICTED BY IDOCK:   -0.69 KCAL/MOL
REMARK 927      BINDING AFFINITY PREDICTED BY RF-SCORE:    0.00 PKD
ROOT
HETATM    1  O   UNL     1      -9.782   8.402  65.510  1.00  0.00    -0.396 OA 
HETATM    2  H   UNL     1      -9.327   7.614  65.781  1.00  0.00     0.000 HD 
HETATM    3  C   UNL     1     -10.135   9.201  66.630  1.00  0.00    -0.273 C  
ENDROOT
BRANCH   3   4
HETATM    4  C   UNL     1     -10.871  10.473  66.191  1.00  0.00     0.043 C  
BRANCH   4   5
HETATM    5  N   UNL     1     -10.018  11.528  65.596  1.00  0.00    -0.226 N  
HETATM    6  C   UNL     1      -9.948  11.817  64.230  1.00  0.00    -0.257 C  
HETATM    7  O   UNL     1      -9.363  12.819  63.790  1.00  0.00     0.277 OA 
BRANCH   5   8
HETATM    8  C   UNL     1      -9.378  12.450  66.502  1.00  0.00    -0.233 A  
HETATM    9  C   UNL     1      -8.091  12.175  67.045  1.00  0.00    -0.154 A  
HETATM   10  C   UNL     1     -10.068  13.610  66.926  1.00  0.00    -0.260 A  
HETATM   11  I   UNL     1      -7.016  10.421  66.328  1.00  0.00    -0.132 I  
HETATM   12  C   UNL     1      -7.474  13.059  67.975  1.00  0.00    -0.134 A  
HETATM   13  I   UNL     1     -12.195  13.770  66.538  1.00  0.00    -0.272 I  
HETATM   14  I   UNL     1      -7.049  15.880  69.290  1.00  0.00    -0.157 I  
HETATM   15  C   UNL     1      -9.411  14.590  67.702  1.00  0.00    -0.209 A  
HETATM   16  C   UNL     1      -8.107  14.310  68.220  1.00  0.00    -0.143 A  
BRANCH  12  17
HETATM   17  C   UNL     1      -6.307  12.543  68.783  1.00  0.00    -0.079 C  
HETATM   18  N   UNL     1      -6.546  11.871  69.958  1.00  0.00    -0.358 N  
HETATM   19  H   UNL     1      -7.498  11.825  70.320  1.00  0.00     0.000 HD 
HETATM   20  O   UNL     1      -5.164  12.716  68.372  1.00  0.00    -0.053 OA 
BRANCH  18  21
HETATM   21  C   UNL     1      -5.467  11.219  70.704  1.00  0.00    -0.134 C  
BRANCH  21  22
HETATM   22  C   UNL     1      -5.919   9.834  71.177  1.00  0.00    -0.058 C  
HETATM   23  O   UNL     1      -7.354   9.778  71.175  1.00  0.00    -0.316 OA 
HETATM   24  H   UNL     1      -7.634   8.919  71.469  1.00  0.00     0.000 HD 
BRANCH  22  25
HETATM   25  C   UNL     1      -5.339   8.701  70.320  1.00  0.00    -0.021 C  
HETATM   26  H   UNL     1      -5.882   7.645  68.741  1.00  0.00     0.000 HD 
HETATM   27  O   UNL     1      -6.241   8.347  69.272  1.00  0.00    -0.037 OA 
ENDBRANCH  22  25
ENDBRANCH  21  22
ENDBRANCH  18  21
ENDBRANCH  12  17
BRANCH  15  28
HETATM   28  C   UNL     1     -10.079  15.896  68.014  1.00  0.00    -0.230 C  
HETATM   29  O   UNL     1     -10.672  16.058  69.074  1.00  0.00    -0.239 OA 
HETATM   30  H   UNL     1      -9.482  16.760  66.196  1.00  0.00     0.000 HD 
HETATM   31  N   UNL     1      -9.990  16.907  67.069  1.00  0.00    -0.270 N  
BRANCH  31  32
HETATM   32  C   UNL     1     -10.636  18.184  67.348  1.00  0.00    -0.388 C  
BRANCH  32  33
HETATM   33  C   UNL     1      -9.872  19.387  66.780  1.00  0.00    -0.362 C  
HETATM   34  H   UNL     1      -9.726  21.309  67.186  1.00  0.00     0.000 HD 
HETATM   35  O   UNL     1     -10.199  20.563  67.537  1.00  0.00    -0.348 OA 
BRANCH  33  36
HETATM   36  C   UNL     1      -8.357  19.128  66.815  1.00  0.00    -0.293 C  
HETATM   37  O   UNL     1      -7.881  18.615  65.573  1.00  0.00    -0.419 OA 
HETATM   38  H   UNL     1      -6.945  18.454  65.595  1.00  0.00     0.000 HD 
ENDBRANCH  33  36
ENDBRANCH  32  33
ENDBRANCH  31  32
ENDBRANCH  15  28
ENDBRANCH   5   8
BRANCH   6  39
HETATM   39  C   UNL     1     -10.654  10.869  63.248  1.00  0.00     0.023 C  
HETATM   40  O   UNL     1      -9.829   9.790  62.822  1.00  0.00    -0.507 OA 
HETATM   41  H   UNL     1     -10.266   9.204  62.214  1.00  0.00     0.000 HD 
ENDBRANCH   6  39
ENDBRANCH   4   5
ENDBRANCH   3   4
TORSDOF 12
ENDMDL
MODEL       75
REMARK 921   NORMALIZED FREE ENERGY PREDICTED BY IDOCK:   -4.13 KCAL/MOL
REMARK 922        TOTAL FREE ENERGY PREDICTED BY IDOCK:   -7.30 KCAL/MOL
REMARK 923 INTER-LIGAND FREE ENERGY PREDICTED BY IDOCK:   -6.20 KCAL/MOL
REMARK 924 INTRA-LIGAND FREE ENERGY PREDICTED BY IDOCK:   -1.10 KCAL/MOL
REMARK 927      BINDING AFFINITY PREDICTED BY RF-SCORE:    0.00 PKD
ROOT
HETATM    1  O   UNL     1      -6.994   5.751  72.980  1.00  0.00    -0.077 OA 
HETATM    2  H   UNL     1      -6.508   4.963  73.192  1.00  0.00     0.000 HD 
HETATM    3  C   UNL     1      -7.969   5.498  71.979  1.00  0.00    -0.111 C  
ENDROOT
BRANCH   3   4
HETATM    4  C   UNL     1      -8.753   6.771  71.636  1.00  0.00    -0.126 C  
BRANCH   4   5
HETATM    5  N   UNL     1      -9.755   6.628  70.555  1.00  0.00    -0.175 N  
HETATM    6  C   UNL     1     -11.111   6.356  70.758  1.00  0.00    -0.307 C  
HETATM    7  O   UNL     1     -11.949   6.421  69.845  1.00  0.00    -0.304 OA 
BRANCH   5   8
HETATM    8  C   UNL     1      -9.346   6.999  69.222  1.00  0.00    -0.145 A  
HETATM    9  C   UNL     1      -9.444   8.343  68.767  1.00  0.00    -0.147 A  
HETATM   10  C   UNL     1      -8.912   5.999  68.318  1.00  0.00    -0.113 A  
HETATM   11  I   UNL     1     -10.047   9.878  70.193  1.00  0.00    -0.093 I  
HETATM   12  C   UNL     1      -9.084   8.706  67.439  1.00  0.00    -0.148 A  
HETATM   13  I   UNL     1      -9.257   3.916  68.809  1.00  0.00    -0.212 I  
HETATM   14  I   UNL     1      -7.515   8.276  64.752  1.00  0.00    -0.113 I  
HETATM   15  C   UNL     1      -8.380   6.355  67.060  1.00  0.00    -0.112 A  
HETATM   16  C   UNL     1      -8.464   7.716  66.626  1.00  0.00    -0.130 A  
BRANCH  12  17
HETATM   17  C   UNL     1      -9.554  10.042  66.912  1.00  0.00    -0.175 C  
HETATM   18  N   UNL     1      -8.714  11.128  66.982  1.00  0.00    -0.144 N  
HETATM   19  H   UNL     1      -7.831  11.041  67.485  1.00  0.00     0.000 HD 
HETATM   20  O   UNL     1     -10.670  10.135  66.412  1.00  0.00    -0.125 OA 
BRANCH  18  21
HETATM   21  C   UNL     1      -9.055  12.406  66.354  1.00  0.00    -0.149 C  
BRANCH  21  22
HETATM   22  C   UNL     1      -8.739  13.561  67.310  1.00  0.00    -0.225 C  
HETATM   23  O   UNL     1      -8.460  14.744  66.546  1.00  0.00    -0.424 OA 
HETATM   24  H   UNL     1      -8.264  15.461  67.138  1.00  0.00     0.000 HD 
BRANCH  22  25
HETATM   25  C   UNL     1      -9.873  13.825  68.310  1.00  0.00    -0.232 C  
HETATM   26  H   UNL     1     -11.712  13.179  68.628  1.00  0.00     0.000 HD 
HETATM   27  O   UNL     1     -11.010  13.015  68.010  1.00  0.00    -0.235 OA 
ENDBRANCH  22  25
ENDBRANCH  21  22
ENDBRANCH  18  21
ENDBRANCH  12  17
BRANCH  15  28
HETATM   28  C   UNL     1      -7.767   5.318  66.166  1.00  0.00    -0.088 C  
HETATM   29  O   UNL     1      -6.610   4.951  66.335  1.00  0.00    -0.046 OA 
HETATM   30  H   UNL     1      -9.522   5.098  65.036  1.00  0.00     0.000 HD 
HETATM   31  N   UNL     1      -8.558   4.789  65.156  1.00  0.00    -0.134 N  
BRANCH  31  32
HETATM   32  C   UNL     1      -7.981   3.784  64.271  1.00  0.00    -0.086 C  
BRANCH  32  33
HETATM   33  C   UNL     1      -9.007   3.152  63.321  1.00  0.00    -0.092 C  
HETATM   34  H   UNL     1      -9.544   1.330  62.805  1.00  0.00     0.000 HD 
HETATM   35  O   UNL     1      -8.909   1.721  63.393  1.00  0.00    -0.086 OA 
BRANCH  33  36
HETATM   36  C   UNL     1     -10.429   3.614  63.681  1.00  0.00    -0.257 C  
HETATM   37  O   UNL     1     -11.289   2.510  63.953  1.00  0.00    -0.609 OA 
HETATM   38  H   UNL     1     -12.167   2.795  64.175  1.00  0.00     0.000 HD 
ENDBRANCH  33  36
ENDBRANCH  32  33
ENDBRANCH  31  32
ENDBRANCH  15  28
ENDBRANCH   5   8
BRANCH   6  39
HETATM   39  C   UNL     1     -11.576   5.995  72.178  1.00  0.00    -0.293 C  
HETATM   40  O   UNL     1     -12.154   7.095  72.873  1.00  0.00    -0.489 OA 
HETATM   41  H   UNL     1     -12.442   6.872  73.751  1.00  0.00     0.000 HD 
ENDBRANCH   6  39
ENDBRANCH   4   5
ENDBRANCH   3   4
TORSDOF 12
ENDMDL
MODEL       76
REMARK 921   NORMALIZED FREE ENERGY PREDICTED BY IDOCK:   -4.12 KCAL/MOL
REMARK 922        TOTAL FREE ENERGY PREDICTED BY IDOCK:   -7.29 KCAL/MOL
REMARK 923 INTER-LIGAND FREE ENERGY PREDICTED BY IDOCK:   -6.44 KCAL/MOL
REMARK 924 INTRA-LIGAND FREE ENERGY PREDICTED BY IDOCK:   -0.85 KCAL/MOL
REMARK 927      BINDING AFFINITY PREDICTED BY RF-SCORE:    0.00 PKD
ROOT
HETATM    1  O   UNL     1     -11.506   4.254  64.820  1.00  0.00    -0.995 OA 
HETATM    2  H   UNL     1     -12.380   4.623  64.784  1.00  0.00     0.000 HD 
HETATM    3  C   UNL     1     -10.743   4.843  65.862  1.00  0.00    -0.179 C  
ENDROOT
BRANCH   3   4
HETATM    4  C   UNL     1      -9.331   4.246  65.919  1.00  0.00    -0.163 C  
BRANCH   4   5
HETATM    5  N   UNL     1      -8.409   4.888  66.884  1.00  0.00    -0.107 N  
HETATM    6  C   UNL     1      -7.091   4.481  67.115  1.00  0.00    -0.068 C  
HETATM    7  O   UNL     1      -6.296   5.150  67.795  1.00  0.00    -0.037 OA 
BRANCH   5   8
HETATM    8  C   UNL     1      -8.829   6.136  67.471  1.00  0.00    -0.106 A  
HETATM    9  C   UNL     1      -8.587   7.377  66.817  1.00  0.00    -0.127 A  
HETATM   10  C   UNL     1      -9.423   6.143  68.756  1.00  0.00    -0.121 A  
HETATM   11  I   UNL     1      -7.737   7.342  64.812  1.00  0.00    -0.106 I  
HETATM   12  C   UNL     1      -8.960   8.615  67.413  1.00  0.00    -0.144 A  
HETATM   13  I   UNL     1      -9.314   4.352  69.974  1.00  0.00    -0.277 I  
HETATM   14  I   UNL     1     -10.692  10.371  69.358  1.00  0.00    -0.336 I  
HETATM   15  C   UNL     1      -9.964   7.333  69.288  1.00  0.00    -0.170 A  
HETATM   16  C   UNL     1      -9.733   8.570  68.607  1.00  0.00    -0.164 A  
BRANCH  12  17
HETATM   17  C   UNL     1      -8.355   9.884  66.860  1.00  0.00    -0.124 C  
HETATM   18  N   UNL     1      -7.163  10.340  67.372  1.00  0.00    -0.091 N  
HETATM   19  H   UNL     1      -6.761   9.876  68.187  1.00  0.00     0.000 HD 
HETATM   20  O   UNL     1      -8.924  10.479  65.952  1.00  0.00    -0.155 OA 
BRANCH  18  21
HETATM   21  C   UNL     1      -6.455  11.475  66.776  1.00  0.00    -0.128 C  
BRANCH  21  22
HETATM   22  C   UNL     1      -6.312  12.602  67.804  1.00  0.00    -0.130 C  
HETATM   23  O   UNL     1      -5.839  13.787  67.145  1.00  0.00    -0.330 OA 
HETATM   24  H   UNL     1      -5.750  14.485  67.782  1.00  0.00     0.000 HD 
BRANCH  22  25
HETATM   25  C   UNL     1      -7.624  12.891  68.547  1.00  0.00    -0.120 C  
HETATM   26  H   UNL     1      -8.483  14.430  69.437  1.00  0.00     0.000 HD 
HETATM   27  O   UNL     1      -7.671  14.252  68.978  1.00  0.00    -0.125 OA 
ENDBRANCH  22  25
ENDBRANCH  21  22
ENDBRANCH  18  21
ENDBRANCH  12  17
BRANCH  15  28
HETATM   28  C   UNL     1     -10.741   7.316  70.572  1.00  0.00    -0.232 C  
HETATM   29  O   UNL     1     -11.912   6.957  70.590  1.00  0.00    -0.369 OA 
HETATM   30  H   UNL     1      -9.103   7.992  71.697  1.00  0.00     0.000 HD 
HETATM   31  N   UNL     1     -10.082   7.708  71.728  1.00  0.00    -0.172 N  
BRANCH  31  32
HETATM   32  C   UNL     1     -10.817   7.705  72.987  1.00  0.00    -0.400 C  
BRANCH  32  33
HETATM   33  C   UNL     1     -10.259   6.711  74.013  1.00  0.00    -0.369 C  
HETATM   34  H   UNL     1     -10.437   4.786  74.383  1.00  0.00     0.000 HD 
HETATM   35  O   UNL     1     -10.783   5.401  73.747  1.00  0.00    -0.270 OA 
BRANCH  33  36
HETATM   36  C   UNL     1      -8.722   6.697  73.966  1.00  0.00    -0.150 C  
HETATM   37  O   UNL     1      -8.221   5.449  73.492  1.00  0.00    -0.113 OA 
HETATM   38  H   UNL     1      -7.271   5.440  73.463  1.00  0.00     0.000 HD 
ENDBRANCH  33  36
ENDBRANCH  32  33
ENDBRANCH  31  32
ENDBRANCH  15  28
ENDBRANCH   5   8
BRANCH   6  39
HETATM   39  C   UNL     1      -6.609   3.173  66.469  1.00  0.00    -0.037 C  
HETATM   40  O   UNL     1      -6.133   2.223  67.417  1.00  0.00    -0.023 OA 
HETATM   41  H   UNL     1      -5.835   1.414  67.017  1.00  0.00     0.000 HD 
ENDBRANCH   6  39
ENDBRANCH   4   5
ENDBRANCH   3   4
TORSDOF 12
ENDMDL
MODEL       77
REMARK 921   NORMALIZED FREE ENERGY PREDICTED BY IDOCK:   -4.12 KCAL/MOL
REMARK 922        TOTAL FREE ENERGY PREDICTED BY IDOCK:   -7.28 KCAL/MOL
REMARK 923 INTER-LIGAND FREE ENERGY PREDICTED BY IDOCK:   -6.33 KCAL/MOL
REMARK 924 INTRA-LIGAND FREE ENERGY PREDICTED BY IDOCK:   -0.96 KCAL/MOL
REMARK 927      BINDING AFFINITY PREDICTED BY RF-SCORE:    0.00 PKD
ROOT
HETATM    1  O   UNL     1      -9.170   6.229  65.764  1.00  0.00    -0.331 OA 
HETATM    2  H   UNL     1      -9.028   5.413  66.229  1.00  0.00     0.000 HD 
HETATM    3  C   UNL     1      -7.997   6.637  65.077  1.00  0.00    -0.124 C  
ENDROOT
BRANCH   3   4
HETATM    4  C   UNL     1      -8.227   7.955  64.326  1.00  0.00    -0.038 C  
BRANCH   4   5
HETATM    5  N   UNL     1      -7.661   9.162  64.973  1.00  0.00    -0.104 N  
HETATM    6  C   UNL     1      -6.425   9.730  64.652  1.00  0.00    -0.111 C  
HETATM    7  O   UNL     1      -6.067  10.837  65.086  1.00  0.00    -0.085 OA 
BRANCH   5   8
HETATM    8  C   UNL     1      -8.531   9.915  65.842  1.00  0.00    -0.130 A  
HETATM    9  C   UNL     1      -9.328  10.982  65.342  1.00  0.00    -0.216 A  
HETATM   10  C   UNL     1      -8.539   9.645  67.232  1.00  0.00    -0.132 A  
HETATM   11  I   UNL     1      -9.356  11.336  63.193  1.00  0.00    -0.178 I  
HETATM   12  C   UNL     1     -10.155  11.758  66.204  1.00  0.00    -0.255 A  
HETATM   13  I   UNL     1      -6.968   8.410  68.073  1.00  0.00    -0.085 I  
HETATM   14  I   UNL     1     -11.832  12.190  68.824  1.00  0.00    -0.114 I  
HETATM   15  C   UNL     1      -9.479  10.274  68.077  1.00  0.00    -0.156 A  
HETATM   16  C   UNL     1     -10.291  11.329  67.554  1.00  0.00    -0.194 A  
BRANCH  12  17
HETATM   17  C   UNL     1     -10.674  13.081  65.693  1.00  0.00    -0.275 C  
HETATM   18  N   UNL     1      -9.969  14.231  65.963  1.00  0.00    -0.307 N  
HETATM   19  H   UNL     1      -9.167  14.186  66.591  1.00  0.00     0.000 HD 
HETATM   20  O   UNL     1     -11.706  13.111  65.032  1.00  0.00    -0.314 OA 
BRANCH  18  21
HETATM   21  C   UNL     1     -10.340  15.517  65.369  1.00  0.00    -0.394 C  
BRANCH  21  22
HETATM   22  C   UNL     1      -9.883  16.664  66.277  1.00  0.00    -0.310 C  
HETATM   23  O   UNL     1      -9.919  17.895  65.538  1.00  0.00    -0.481 OA 
HETATM   24  H   UNL     1      -9.636  18.606  66.100  1.00  0.00     0.000 HD 
BRANCH  22  25
HETATM   25  C   UNL     1     -10.731  16.780  67.551  1.00  0.00    -0.275 C  
HETATM   26  H   UNL     1     -10.852  15.881  69.305  1.00  0.00     0.000 HD 
HETATM   27  O   UNL     1     -10.328  15.809  68.517  1.00  0.00    -0.220 OA 
ENDBRANCH  22  25
ENDBRANCH  21  22
ENDBRANCH  18  21
ENDBRANCH  12  17
BRANCH  15  28
HETATM   28  C   UNL     1      -9.604   9.872  69.517  1.00  0.00    -0.225 C  
HETATM   29  O   UNL     1      -8.931  10.421  70.381  1.00  0.00     0.348 OA 
HETATM   30  H   UNL     1     -11.075   8.433  69.099  1.00  0.00     0.000 HD 
HETATM   31  N   UNL     1     -10.514   8.872  69.829  1.00  0.00    -0.208 N  
BRANCH  31  32
HETATM   32  C   UNL     1     -10.650   8.461  71.221  1.00  0.00    -0.222 C  
BRANCH  32  33
HETATM   33  C   UNL     1     -11.855   7.545  71.468  1.00  0.00    -0.295 C  
HETATM   34  H   UNL     1     -12.253   5.625  71.285  1.00  0.00     0.000 HD 
HETATM   35  O   UNL     1     -11.506   6.193  71.132  1.00  0.00    -0.302 OA 
BRANCH  33  36
HETATM   36  C   UNL     1     -12.307   7.636  72.935  1.00  0.00     0.352 C  
HETATM   37  O   UNL     1     -13.037   8.835  73.189  1.00  0.00    -0.794 OA 
HETATM   38  H   UNL     1     -13.316   8.891  74.095  1.00  0.00     0.000 HD 
ENDBRANCH  33  36
ENDBRANCH  32  33
ENDBRANCH  31  32
ENDBRANCH  15  28
ENDBRANCH   5   8
BRANCH   6  39
HETATM   39  C   UNL     1      -5.496   8.963  63.698  1.00  0.00    -0.063 C  
HETATM   40  O   UNL     1      -5.648   9.352  62.336  1.00  0.00    -0.085 OA 
HETATM   41  H   UNL     1      -5.074   8.877  61.747  1.00  0.00     0.000 HD 
ENDBRANCH   6  39
ENDBRANCH   4   5
ENDBRANCH   3   4
TORSDOF 12
ENDMDL
MODEL       78
REMARK 921   NORMALIZED FREE ENERGY PREDICTED BY IDOCK:   -4.11 KCAL/MOL
REMARK 922        TOTAL FREE ENERGY PREDICTED BY IDOCK:   -7.27 KCAL/MOL
REMARK 923 INTER-LIGAND FREE ENERGY PREDICTED BY IDOCK:   -6.89 KCAL/MOL
REMARK 924 INTRA-LIGAND FREE ENERGY PREDICTED BY IDOCK:   -0.38 KCAL/MOL
REMARK 927      BINDING AFFINITY PREDICTED BY RF-SCORE:    0.00 PKD
ROOT
HETATM    1  O   UNL     1     -11.575  10.118  68.593  1.00  0.00    -0.503 OA 
HETATM    2  H   UNL     1     -11.532  10.250  69.533  1.00  0.00     0.000 HD 
HETATM    3  C   UNL     1     -10.772  11.066  67.906  1.00  0.00    -0.219 C  
ENDROOT
BRANCH   3   4
HETATM    4  C   UNL     1     -10.841  10.854  66.389  1.00  0.00    -0.145 C  
BRANCH   4   5
HETATM    5  N   UNL     1      -9.956  11.726  65.583  1.00  0.00    -0.233 N  
HETATM    6  C   UNL     1      -9.833  11.666  64.192  1.00  0.00    -0.242 C  
HETATM    7  O   UNL     1      -9.222  12.527  63.539  1.00  0.00     0.252 OA 
BRANCH   5   8
HETATM    8  C   UNL     1      -9.339  12.843  66.256  1.00  0.00    -0.141 A  
HETATM    9  C   UNL     1      -9.930  14.137  66.229  1.00  0.00    -0.303 A  
HETATM   10  C   UNL     1      -8.084  12.675  66.888  1.00  0.00    -0.008 A  
HETATM   11  I   UNL     1     -11.894  14.361  65.311  1.00  0.00    -0.337 I  
HETATM   12  C   UNL     1      -9.303  15.253  66.853  1.00  0.00    -0.255 A  
HETATM   13  I   UNL     1      -6.937  10.880  66.488  1.00  0.00    -0.084 I  
HETATM   14  I   UNL     1      -7.372  16.555  68.959  1.00  0.00    -0.138 I  
HETATM   15  C   UNL     1      -7.530  13.715  67.666  1.00  0.00    -0.191 A  
HETATM   16  C   UNL     1      -8.150  15.005  67.648  1.00  0.00    -0.169 A  
BRANCH  12  17
HETATM   17  C   UNL     1      -9.775  16.638  66.479  1.00  0.00    -0.274 C  
HETATM   18  N   UNL     1     -10.479  17.381  67.396  1.00  0.00    -0.345 N  
HETATM   19  H   UNL     1     -10.764  16.947  68.274  1.00  0.00     0.000 HD 
HETATM   20  O   UNL     1      -9.509  17.088  65.369  1.00  0.00    -0.326 OA 
BRANCH  18  21
HETATM   21  C   UNL     1     -10.830  18.781  67.146  1.00  0.00    -0.306 C  
BRANCH  21  22
HETATM   22  C   UNL     1      -9.560  19.608  66.920  1.00  0.00    -0.359 C  
HETATM   23  O   UNL     1      -9.875  20.744  66.100  1.00  0.00    -0.544 OA 
HETATM   24  H   UNL     1      -9.088  21.257  65.960  1.00  0.00     0.000 HD 
BRANCH  22  25
HETATM   25  C   UNL     1      -8.911  20.061  68.235  1.00  0.00    -0.149 C  
HETATM   26  H   UNL     1      -9.423  20.201  70.138  1.00  0.00     0.000 HD 
HETATM   27  O   UNL     1      -9.824  19.921  69.324  1.00  0.00    -0.329 OA 
ENDBRANCH  22  25
ENDBRANCH  21  22
ENDBRANCH  18  21
ENDBRANCH  12  17
BRANCH  15  28
HETATM   28  C   UNL     1      -6.286  13.490  68.473  1.00  0.00    -0.088 C  
HETATM   29  O   UNL     1      -5.218  13.982  68.128  1.00  0.00    -0.105 OA 
HETATM   30  H   UNL     1      -7.294  12.327  69.901  1.00  0.00     0.000 HD 
HETATM   31  N   UNL     1      -6.395  12.719  69.621  1.00  0.00    -0.116 N  
BRANCH  31  32
HETATM   32  C   UNL     1      -5.199  12.482  70.420  1.00  0.00    -0.119 C  
BRANCH  32  33
HETATM   33  C   UNL     1      -5.130  11.066  71.005  1.00  0.00    -0.106 C  
HETATM   34  H   UNL     1      -5.227  10.253  72.796  1.00  0.00     0.000 HD 
HETATM   35  O   UNL     1      -5.269  11.130  72.433  1.00  0.00    -0.319 OA 
BRANCH  33  36
HETATM   36  C   UNL     1      -6.229  10.179  70.396  1.00  0.00    -0.112 C  
HETATM   37  O   UNL     1      -7.142   9.716  71.387  1.00  0.00    -0.324 OA 
HETATM   38  H   UNL     1      -7.821   9.168  71.010  1.00  0.00     0.000 HD 
ENDBRANCH  33  36
ENDBRANCH  32  33
ENDBRANCH  31  32
ENDBRANCH  15  28
ENDBRANCH   5   8
BRANCH   6  39
HETATM   39  C   UNL     1     -10.514  10.505  63.450  1.00  0.00     0.344 C  
HETATM   40  O   UNL     1      -9.759  10.033  62.339  1.00  0.00    -0.596 OA 
HETATM   41  H   UNL     1     -10.180   9.315  61.880  1.00  0.00     0.000 HD 
ENDBRANCH   6  39
ENDBRANCH   4   5
ENDBRANCH   3   4
TORSDOF 12
ENDMDL
MODEL       79
REMARK 921   NORMALIZED FREE ENERGY PREDICTED BY IDOCK:   -4.09 KCAL/MOL
REMARK 922        TOTAL FREE ENERGY PREDICTED BY IDOCK:   -7.23 KCAL/MOL
REMARK 923 INTER-LIGAND FREE ENERGY PREDICTED BY IDOCK:   -6.39 KCAL/MOL
REMARK 924 INTRA-LIGAND FREE ENERGY PREDICTED BY IDOCK:   -0.84 KCAL/MOL
REMARK 927      BINDING AFFINITY PREDICTED BY RF-SCORE:    0.00 PKD
ROOT
HETATM    1  O   UNL     1     -13.329   7.124  70.604  1.00  0.00    -0.532 OA 
HETATM    2  H   UNL     1     -13.727   7.567  71.345  1.00  0.00     0.000 HD 
HETATM    3  C   UNL     1     -11.944   6.901  70.824  1.00  0.00    -0.373 C  
ENDROOT
BRANCH   3   4
HETATM    4  C   UNL     1     -11.302   6.187  69.629  1.00  0.00    -0.372 C  
BRANCH   4   5
HETATM    5  N   UNL     1      -9.852   6.428  69.448  1.00  0.00    -0.148 N  
HETATM    6  C   UNL     1      -8.854   5.946  70.299  1.00  0.00    -0.143 C  
HETATM    7  O   UNL     1      -7.647   6.016  70.018  1.00  0.00    -0.083 OA 
BRANCH   5   8
HETATM    8  C   UNL     1      -9.432   7.021  68.202  1.00  0.00    -0.123 A  
HETATM    9  C   UNL     1      -9.039   6.214  67.097  1.00  0.00    -0.114 A  
HETATM   10  C   UNL     1      -9.330   8.428  68.094  1.00  0.00    -0.133 A  
HETATM   11  I   UNL     1      -9.269   4.053  67.257  1.00  0.00    -0.232 I  
HETATM   12  C   UNL     1      -8.581   6.794  65.880  1.00  0.00    -0.153 A  
HETATM   13  I   UNL     1      -9.407   9.629  69.897  1.00  0.00    -0.227 I  
HETATM   14  I   UNL     1      -8.402   9.135  63.794  1.00  0.00    -0.125 I  
HETATM   15  C   UNL     1      -9.053   9.032  66.848  1.00  0.00    -0.161 A  
HETATM   16  C   UNL     1      -8.684   8.207  65.740  1.00  0.00    -0.154 A  
BRANCH  12  17
HETATM   17  C   UNL     1      -7.840   5.911  64.904  1.00  0.00    -0.108 C  
HETATM   18  N   UNL     1      -6.504   5.656  65.105  1.00  0.00    -0.038 N  
HETATM   19  H   UNL     1      -6.010   6.150  65.848  1.00  0.00     0.000 HD 
HETATM   20  O   UNL     1      -8.443   5.421  63.955  1.00  0.00    -0.134 OA 
BRANCH  18  21
HETATM   21  C   UNL     1      -5.773   4.691  64.282  1.00  0.00    -0.014 C  
BRANCH  21  22
HETATM   22  C   UNL     1      -5.173   3.594  65.167  1.00  0.00    -0.009 C  
HETATM   23  O   UNL     1      -5.192   4.027  66.536  1.00  0.00    -0.008 OA 
HETATM   24  H   UNL     1      -4.820   3.347  67.084  1.00  0.00     0.000 HD 
BRANCH  22  25
HETATM   25  C   UNL     1      -5.905   2.253  65.020  1.00  0.00    -0.017 C  
HETATM   26  H   UNL     1      -7.666   1.618  64.391  1.00  0.00     0.000 HD 
HETATM   27  O   UNL     1      -7.213   2.448  64.482  1.00  0.00    -0.051 OA 
ENDBRANCH  22  25
ENDBRANCH  21  22
ENDBRANCH  18  21
ENDBRANCH  12  17
BRANCH  15  28
HETATM   28  C   UNL     1      -9.108  10.523  66.690  1.00  0.00    -0.155 C  
HETATM   29  O   UNL     1      -8.089  11.198  66.771  1.00  0.00    -0.143 OA 
HETATM   30  H   UNL     1     -11.181  10.521  66.362  1.00  0.00     0.000 HD 
HETATM   31  N   UNL     1     -10.345  11.098  66.438  1.00  0.00    -0.244 N  
BRANCH  31  32
HETATM   32  C   UNL     1     -10.424  12.546  66.285  1.00  0.00    -0.246 C  
BRANCH  32  33
HETATM   33  C   UNL     1     -11.863  13.073  66.222  1.00  0.00    -0.408 C  
HETATM   34  H   UNL     1     -12.816  14.700  66.787  1.00  0.00     0.000 HD 
HETATM   35  O   UNL     1     -11.925  14.374  66.827  1.00  0.00    -0.411 OA 
BRANCH  33  36
HETATM   36  C   UNL     1     -12.349  13.132  64.764  1.00  0.00    -0.423 C  
HETATM   37  O   UNL     1     -12.636  14.468  64.358  1.00  0.00    -0.665 OA 
HETATM   38  H   UNL     1     -12.937  14.505  63.458  1.00  0.00     0.000 HD 
ENDBRANCH  33  36
ENDBRANCH  32  33
ENDBRANCH  31  32
ENDBRANCH  15  28
ENDBRANCH   5   8
BRANCH   6  39
HETATM   39  C   UNL     1      -9.280   5.277  71.615  1.00  0.00    -0.146 C  
HETATM   40  O   UNL     1      -8.890   3.910  71.700  1.00  0.00    -0.099 OA 
HETATM   41  H   UNL     1      -9.153   3.497  72.514  1.00  0.00     0.000 HD 
ENDBRANCH   6  39
ENDBRANCH   4   5
ENDBRANCH   3   4
TORSDOF 12
ENDMDL
MODEL       80
REMARK 921   NORMALIZED FREE ENERGY PREDICTED BY IDOCK:   -4.08 KCAL/MOL
REMARK 922        TOTAL FREE ENERGY PREDICTED BY IDOCK:   -7.22 KCAL/MOL
REMARK 923 INTER-LIGAND FREE ENERGY PREDICTED BY IDOCK:   -6.41 KCAL/MOL
REMARK 924 INTRA-LIGAND FREE ENERGY PREDICTED BY IDOCK:   -0.81 KCAL/MOL
REMARK 927      BINDING AFFINITY PREDICTED BY RF-SCORE:    0.00 PKD
ROOT
HETATM    1  O   UNL     1     -11.067  15.772  65.448  1.00  0.00    -0.303 OA 
HETATM    2  H   UNL     1     -10.544  15.772  64.655  1.00  0.00     0.000 HD 
HETATM    3  C   UNL     1     -11.280  14.451  65.922  1.00  0.00    -0.324 C  
ENDROOT
BRANCH   3   4
HETATM    4  C   UNL     1     -12.124  14.452  67.202  1.00  0.00    -0.333 C  
BRANCH   4   5
HETATM    5  N   UNL     1     -11.360  14.372  68.468  1.00  0.00    -0.267 N  
HETATM    6  C   UNL     1     -11.924  14.465  69.744  1.00  0.00    -0.332 C  
HETATM    7  O   UNL     1     -11.281  14.216  70.776  1.00  0.00     0.045 OA 
BRANCH   5   8
HETATM    8  C   UNL     1      -9.978  13.967  68.381  1.00  0.00    -0.236 A  
HETATM    9  C   UNL     1      -9.616  12.593  68.323  1.00  0.00    -0.208 A  
HETATM   10  C   UNL     1      -8.956  14.945  68.434  1.00  0.00    -0.183 A  
HETATM   11  I   UNL     1     -11.203  11.107  68.172  1.00  0.00    -0.389 I  
HETATM   12  C   UNL     1      -8.252  12.186  68.283  1.00  0.00    -0.168 A  
HETATM   13  I   UNL     1      -9.460  16.961  69.051  1.00  0.00     0.013 I  
HETATM   14  I   UNL     1      -5.212  12.660  67.653  1.00  0.00    -0.004 I  
HETATM   15  C   UNL     1      -7.609  14.584  68.215  1.00  0.00    -0.121 A  
HETATM   16  C   UNL     1      -7.263  13.198  68.134  1.00  0.00    -0.117 A  
BRANCH  12  17
HETATM   17  C   UNL     1      -7.928  10.744  68.596  1.00  0.00    -0.133 C  
HETATM   18  N   UNL     1      -7.827  10.345  69.907  1.00  0.00    -0.340 N  
HETATM   19  H   UNL     1      -7.866  11.048  70.645  1.00  0.00     0.000 HD 
HETATM   20  O   UNL     1      -7.777   9.946  67.677  1.00  0.00    -0.091 OA 
BRANCH  18  21
HETATM   21  C   UNL     1      -7.665   8.936  70.272  1.00  0.00    -0.090 C  
BRANCH  21  22
HETATM   22  C   UNL     1      -8.619   8.577  71.416  1.00  0.00    -0.175 C  
HETATM   23  O   UNL     1      -8.054   9.020  72.660  1.00  0.00    -0.326 OA 
HETATM   24  H   UNL     1      -8.645   8.798  73.369  1.00  0.00     0.000 HD 
BRANCH  22  25
HETATM   25  C   UNL     1     -10.021   9.174  71.223  1.00  0.00    -0.303 C  
HETATM   26  H   UNL     1     -11.797   8.552  70.627  1.00  0.00     0.000 HD 
HETATM   27  O   UNL     1     -10.930   8.182  70.746  1.00  0.00    -0.235 OA 
ENDBRANCH  22  25
ENDBRANCH  21  22
ENDBRANCH  18  21
ENDBRANCH  12  17
BRANCH  15  28
HETATM   28  C   UNL     1      -6.542  15.632  68.104  1.00  0.00    -0.127 C  
HETATM   29  O   UNL     1      -5.738  15.806  69.012  1.00  0.00    -0.103 OA 
HETATM   30  H   UNL     1      -7.166  16.218  66.187  1.00  0.00     0.000 HD 
HETATM   31  N   UNL     1      -6.496  16.383  66.938  1.00  0.00    -0.162 N  
BRANCH  31  32
HETATM   32  C   UNL     1      -5.471  17.412  66.809  1.00  0.00    -0.177 C  
BRANCH  32  33
HETATM   33  C   UNL     1      -6.037  18.791  66.447  1.00  0.00    -0.161 C  
HETATM   34  H   UNL     1      -7.441  19.492  65.258  1.00  0.00     0.000 HD 
HETATM   35  O   UNL     1      -7.090  18.638  65.482  1.00  0.00    -0.486 OA 
BRANCH  33  36
HETATM   36  C   UNL     1      -6.558  19.505  67.706  1.00  0.00    -0.224 C  
HETATM   37  O   UNL     1      -7.637  20.387  67.403  1.00  0.00    -0.298 OA 
HETATM   38  H   UNL     1      -7.958  20.828  68.180  1.00  0.00     0.000 HD 
ENDBRANCH  33  36
ENDBRANCH  32  33
ENDBRANCH  31  32
ENDBRANCH  15  28
ENDBRANCH   5   8
BRANCH   6  39
HETATM   39  C   UNL     1     -13.404  14.860  69.859  1.00  0.00     0.690 C  
HETATM   40  O   UNL     1     -13.665  15.743  70.944  1.00  0.00    -0.744 OA 
HETATM   41  H   UNL     1     -14.582  15.987  71.015  1.00  0.00     0.000 HD 
ENDBRANCH   6  39
ENDBRANCH   4   5
ENDBRANCH   3   4
TORSDOF 12
ENDMDL
MODEL       81
REMARK 921   NORMALIZED FREE ENERGY PREDICTED BY IDOCK:   -4.08 KCAL/MOL
REMARK 922        TOTAL FREE ENERGY PREDICTED BY IDOCK:   -7.21 KCAL/MOL
REMARK 923 INTER-LIGAND FREE ENERGY PREDICTED BY IDOCK:   -6.69 KCAL/MOL
REMARK 924 INTRA-LIGAND FREE ENERGY PREDICTED BY IDOCK:   -0.52 KCAL/MOL
REMARK 927      BINDING AFFINITY PREDICTED BY RF-SCORE:    0.00 PKD
ROOT
HETATM    1  O   UNL     1      -7.382  14.186  67.764  1.00  0.00    -0.133 OA 
HETATM    2  H   UNL     1      -7.031  14.855  67.189  1.00  0.00     0.000 HD 
HETATM    3  C   UNL     1      -8.790  14.073  67.619  1.00  0.00    -0.190 C  
ENDROOT
BRANCH   3   4
HETATM    4  C   UNL     1      -9.356  12.992  68.548  1.00  0.00    -0.078 C  
BRANCH   4   5
HETATM    5  N   UNL     1     -10.347  12.080  67.933  1.00  0.00    -0.192 N  
HETATM    6  C   UNL     1     -11.291  12.461  66.974  1.00  0.00    -0.327 C  
HETATM    7  O   UNL     1     -11.981  11.637  66.354  1.00  0.00    -0.433 OA 
BRANCH   5   8
HETATM    8  C   UNL     1     -10.193  10.668  68.186  1.00  0.00    -0.168 A  
HETATM    9  C   UNL     1     -10.858  10.038  69.275  1.00  0.00    -0.230 A  
HETATM   10  C   UNL     1      -9.304   9.906  67.391  1.00  0.00    -0.137 A  
HETATM   11  I   UNL     1     -12.275  11.210  70.443  1.00  0.00    -0.407 I  
HETATM   12  C   UNL     1     -10.674   8.655  69.556  1.00  0.00    -0.189 A  
HETATM   13  I   UNL     1      -7.903  10.937  66.096  1.00  0.00     0.004 I  
HETATM   14  I   UNL     1      -9.947   5.709  68.742  1.00  0.00    -0.274 I  
HETATM   15  C   UNL     1      -9.240   8.503  67.533  1.00  0.00    -0.151 A  
HETATM   16  C   UNL     1      -9.935   7.880  68.618  1.00  0.00    -0.191 A  
BRANCH  12  17
HETATM   17  C   UNL     1     -11.097   8.140  70.912  1.00  0.00    -0.258 C  
HETATM   18  N   UNL     1     -10.167   8.055  71.921  1.00  0.00    -0.201 N  
HETATM   19  H   UNL     1      -9.186   8.238  71.710  1.00  0.00     0.000 HD 
HETATM   20  O   UNL     1     -12.266   7.822  71.099  1.00  0.00    -0.308 OA 
BRANCH  18  21
HETATM   21  C   UNL     1     -10.549   7.709  73.291  1.00  0.00    -0.352 C  
BRANCH  21  22
HETATM   22  C   UNL     1     -10.377   6.203  73.519  1.00  0.00    -0.250 C  
HETATM   23  O   UNL     1     -11.561   5.519  73.081  1.00  0.00    -0.507 OA 
HETATM   24  H   UNL     1     -11.454   4.586  73.222  1.00  0.00     0.000 HD 
BRANCH  22  25
HETATM   25  C   UNL     1      -9.139   5.638  72.809  1.00  0.00    -0.130 C  
HETATM   26  H   UNL     1      -8.582   3.926  71.997  1.00  0.00     0.000 HD 
HETATM   27  O   UNL     1      -9.348   4.275  72.437  1.00  0.00    -0.115 OA 
ENDBRANCH  22  25
ENDBRANCH  21  22
ENDBRANCH  18  21
ENDBRANCH  12  17
BRANCH  15  28
HETATM   28  C   UNL     1      -8.428   7.672  66.586  1.00  0.00    -0.130 C  
HETATM   29  O   UNL     1      -8.882   7.340  65.497  1.00  0.00    -0.087 OA 
HETATM   30  H   UNL     1      -6.783   7.601  67.888  1.00  0.00     0.000 HD 
HETATM   31  N   UNL     1      -7.150   7.307  66.983  1.00  0.00    -0.084 N  
BRANCH  31  32
HETATM   32  C   UNL     1      -6.342   6.494  66.081  1.00  0.00    -0.042 C  
BRANCH  32  33
HETATM   33  C   UNL     1      -5.942   5.140  66.678  1.00  0.00    -0.023 C  
HETATM   34  H   UNL     1      -5.637   4.406  68.479  1.00  0.00     0.000 HD 
HETATM   35  O   UNL     1      -5.885   5.245  68.109  1.00  0.00    -0.016 OA 
BRANCH  33  36
HETATM   36  C   UNL     1      -6.942   4.050  66.257  1.00  0.00    -0.063 C  
HETATM   37  O   UNL     1      -7.742   4.467  65.152  1.00  0.00    -0.083 OA 
HETATM   38  H   UNL     1      -8.360   3.794  64.892  1.00  0.00     0.000 HD 
ENDBRANCH  33  36
ENDBRANCH  32  33
ENDBRANCH  31  32
ENDBRANCH  15  28
ENDBRANCH   5   8
BRANCH   6  39
HETATM   39  C   UNL     1     -11.447  13.957  66.661  1.00  0.00    -0.355 C  
HETATM   40  O   UNL     1     -12.217  14.655  67.635  1.00  0.00    -0.593 OA 
HETATM   41  H   UNL     1     -12.313  15.581  67.441  1.00  0.00     0.000 HD 
ENDBRANCH   6  39
ENDBRANCH   4   5
ENDBRANCH   3   4
TORSDOF 12
ENDMDL
MODEL       82
REMARK 921   NORMALIZED FREE ENERGY PREDICTED BY IDOCK:   -4.07 KCAL/MOL
REMARK 922        TOTAL FREE ENERGY PREDICTED BY IDOCK:   -7.21 KCAL/MOL
REMARK 923 INTER-LIGAND FREE ENERGY PREDICTED BY IDOCK:   -8.98 KCAL/MOL
REMARK 924 INTRA-LIGAND FREE ENERGY PREDICTED BY IDOCK:    1.77 KCAL/MOL
REMARK 927      BINDING AFFINITY PREDICTED BY RF-SCORE:    0.00 PKD
ROOT
HETATM    1  O   UNL     1      -6.676  11.406  65.893  1.00  0.00    -0.364 OA 
HETATM    2  H   UNL     1      -5.860  11.878  66.008  1.00  0.00     0.000 HD 
HETATM    3  C   UNL     1      -7.649  11.827  66.838  1.00  0.00    -0.119 C  
ENDROOT
BRANCH   3   4
HETATM    4  C   UNL     1      -8.966  11.065  66.651  1.00  0.00    -0.168 C  
BRANCH   4   5
HETATM    5  N   UNL     1     -10.176  11.910  66.518  1.00  0.00    -0.200 N  
HETATM    6  C   UNL     1     -11.057  11.871  65.433  1.00  0.00    -0.306 C  
HETATM    7  O   UNL     1     -12.149  12.460  65.440  1.00  0.00    -0.448 OA 
BRANCH   5   8
HETATM    8  C   UNL     1     -10.581  12.672  67.674  1.00  0.00    -0.218 A  
HETATM    9  C   UNL     1     -10.260  14.053  67.796  1.00  0.00    -0.240 A  
HETATM   10  C   UNL     1     -11.239  12.023  68.746  1.00  0.00    -0.263 A  
HETATM   11  I   UNL     1      -9.308  15.049  66.108  1.00  0.00    -0.082 I  
HETATM   12  C   UNL     1     -10.617  14.798  68.955  1.00  0.00    -0.250 A  
HETATM   13  I   UNL     1     -11.260   9.856  68.811  1.00  0.00     0.132 I  
HETATM   14  I   UNL     1     -12.382  15.337  71.497  1.00  0.00    -0.599 I  
HETATM   15  C   UNL     1     -11.763  12.772  69.822  1.00  0.00    -0.352 A  
HETATM   16  C   UNL     1     -11.452  14.166  69.918  1.00  0.00    -0.226 A  
BRANCH  12  17
HETATM   17  C   UNL     1      -9.938  16.127  69.186  1.00  0.00    -0.251 C  
HETATM   18  N   UNL     1     -10.574  17.285  68.805  1.00  0.00    -0.332 N  
HETATM   19  H   UNL     1     -11.444  17.223  68.277  1.00  0.00     0.000 HD 
HETATM   20  O   UNL     1      -8.837  16.157  69.726  1.00  0.00     0.031 OA 
BRANCH  18  21
HETATM   21  C   UNL     1     -10.034  18.604  69.139  1.00  0.00    -0.193 C  
BRANCH  21  22
HETATM   22  C   UNL     1      -9.355  19.220  67.911  1.00  0.00    -0.316 C  
HETATM   23  O   UNL     1      -9.950  20.496  67.631  1.00  0.00    -0.409 OA 
HETATM   24  H   UNL     1      -9.529  20.878  66.870  1.00  0.00     0.000 HD 
BRANCH  22  25
HETATM   25  C   UNL     1      -7.837  19.364  68.088  1.00  0.00    -0.308 C  
HETATM   26  H   UNL     1      -6.588  19.984  69.487  1.00  0.00     0.000 HD 
HETATM   27  O   UNL     1      -7.527  19.895  69.377  1.00  0.00    -0.244 OA 
ENDBRANCH  22  25
ENDBRANCH  21  22
ENDBRANCH  18  21
ENDBRANCH  12  17
BRANCH  15  28
HETATM   28  C   UNL     1     -12.605  12.116  70.875  1.00  0.00    -0.247 C  
HETATM   29  O   UNL     1     -13.444  12.758  71.496  1.00  0.00    -0.241 OA 
HETATM   30  H   UNL     1     -11.712  10.240  70.574  1.00  0.00     0.000 HD 
HETATM   31  N   UNL     1     -12.406  10.763  71.108  1.00  0.00    -0.382 N  
BRANCH  31  32
HETATM   32  C   UNL     1     -13.209  10.104  72.131  1.00  0.00    -0.362 C  
BRANCH  32  33
HETATM   33  C   UNL     1     -12.991   8.587  72.190  1.00  0.00    -0.363 C  
HETATM   34  H   UNL     1     -13.435   7.034  71.063  1.00  0.00     0.000 HD 
HETATM   35  O   UNL     1     -13.570   7.974  71.027  1.00  0.00    -0.077 OA 
BRANCH  33  36
HETATM   36  C   UNL     1     -11.490   8.263  72.280  1.00  0.00    -0.384 C  
HETATM   37  O   UNL     1     -11.216   7.315  73.309  1.00  0.00    -0.554 OA 
HETATM   38  H   UNL     1     -10.289   7.115  73.365  1.00  0.00     0.000 HD 
ENDBRANCH  33  36
ENDBRANCH  32  33
ENDBRANCH  31  32
ENDBRANCH  15  28
ENDBRANCH   5   8
BRANCH   6  39
HETATM   39  C   UNL     1     -10.663  11.036  64.205  1.00  0.00    -0.278 C  
HETATM   40  O   UNL     1      -9.722  11.691  63.362  1.00  0.00    -0.369 OA 
HETATM   41  H   UNL     1      -9.478  11.174  62.602  1.00  0.00     0.000 HD 
ENDBRANCH   6  39
ENDBRANCH   4   5
ENDBRANCH   3   4
TORSDOF 12
ENDMDL
MODEL       83
REMARK 921   NORMALIZED FREE ENERGY PREDICTED BY IDOCK:   -4.04 KCAL/MOL
REMARK 922        TOTAL FREE ENERGY PREDICTED BY IDOCK:   -7.14 KCAL/MOL
REMARK 923 INTER-LIGAND FREE ENERGY PREDICTED BY IDOCK:   -6.59 KCAL/MOL
REMARK 924 INTRA-LIGAND FREE ENERGY PREDICTED BY IDOCK:   -0.55 KCAL/MOL
REMARK 927      BINDING AFFINITY PREDICTED BY RF-SCORE:    0.00 PKD
ROOT
HETATM    1  O   UNL     1      -7.003   5.395  73.337  1.00  0.00    -0.080 OA 
HETATM    2  H   UNL     1      -6.560   4.569  73.491  1.00  0.00     0.000 HD 
HETATM    3  C   UNL     1      -7.945   5.282  72.281  1.00  0.00    -0.106 C  
ENDROOT
BRANCH   3   4
HETATM    4  C   UNL     1      -8.661   6.615  72.032  1.00  0.00    -0.123 C  
BRANCH   4   5
HETATM    5  N   UNL     1      -9.663   6.605  70.942  1.00  0.00    -0.179 N  
HETATM    6  C   UNL     1     -10.850   5.866  70.960  1.00  0.00    -0.273 C  
HETATM    7  O   UNL     1     -11.745   6.021  70.114  1.00  0.00    -0.217 OA 
BRANCH   5   8
HETATM    8  C   UNL     1      -9.504   7.578  69.889  1.00  0.00    -0.160 A  
HETATM    9  C   UNL     1     -10.195   8.822  69.924  1.00  0.00    -0.200 A  
HETATM   10  C   UNL     1      -8.711   7.266  68.759  1.00  0.00    -0.125 A  
HETATM   11  I   UNL     1     -11.355   9.313  71.702  1.00  0.00    -0.233 I  
HETATM   12  C   UNL     1     -10.077   9.767  68.866  1.00  0.00    -0.194 A  
HETATM   13  I   UNL     1      -8.095   5.212  68.442  1.00  0.00    -0.084 I  
HETATM   14  I   UNL     1      -8.574  11.063  66.432  1.00  0.00    -0.158 I  
HETATM   15  C   UNL     1      -8.432   8.250  67.787  1.00  0.00    -0.131 A  
HETATM   16  C   UNL     1      -9.117   9.506  67.849  1.00  0.00    -0.125 A  
BRANCH  12  17
HETATM   17  C   UNL     1     -11.101  10.875  68.781  1.00  0.00    -0.256 C  
HETATM   18  N   UNL     1     -10.859  12.066  69.422  1.00  0.00    -0.452 N  
HETATM   19  H   UNL     1     -10.045  12.147  70.032  1.00  0.00     0.000 HD 
HETATM   20  O   UNL     1     -12.124  10.702  68.128  1.00  0.00    -0.403 OA 
BRANCH  18  21
HETATM   21  C   UNL     1     -11.739  13.224  69.252  1.00  0.00    -0.326 C  
BRANCH  21  22
HETATM   22  C   UNL     1     -11.226  14.111  68.112  1.00  0.00    -0.276 C  
HETATM   23  O   UNL     1     -12.329  14.493  67.277  1.00  0.00    -0.602 OA 
HETATM   24  H   UNL     1     -12.011  15.043  66.570  1.00  0.00     0.000 HD 
BRANCH  22  25
HETATM   25  C   UNL     1     -10.485  15.354  68.622  1.00  0.00    -0.237 C  
HETATM   26  H   UNL     1     -10.584  17.311  68.375  1.00  0.00     0.000 HD 
HETATM   27  O   UNL     1     -11.042  16.541  68.059  1.00  0.00    -0.345 OA 
ENDBRANCH  22  25
ENDBRANCH  21  22
ENDBRANCH  18  21
ENDBRANCH  12  17
BRANCH  15  28
HETATM   28  C   UNL     1      -7.460   7.979  66.677  1.00  0.00    -0.089 C  
HETATM   29  O   UNL     1      -6.259   8.154  66.841  1.00  0.00    -0.052 OA 
HETATM   30  H   UNL     1      -8.973   7.364  65.357  1.00  0.00     0.000 HD 
HETATM   31  N   UNL     1      -7.971   7.515  65.474  1.00  0.00    -0.114 N  
BRANCH  31  32
HETATM   32  C   UNL     1      -7.046   7.249  64.378  1.00  0.00    -0.062 C  
BRANCH  32  33
HETATM   33  C   UNL     1      -6.887   5.756  64.067  1.00  0.00    -0.049 C  
HETATM   34  H   UNL     1      -5.930   4.226  64.856  1.00  0.00     0.000 HD 
HETATM   35  O   UNL     1      -6.029   5.151  65.048  1.00  0.00    -0.024 OA 
BRANCH  33  36
HETATM   36  C   UNL     1      -8.259   5.061  64.050  1.00  0.00    -0.125 C  
HETATM   37  O   UNL     1      -9.067   5.518  62.968  1.00  0.00    -0.341 OA 
HETATM   38  H   UNL     1      -9.915   5.089  62.957  1.00  0.00     0.000 HD 
ENDBRANCH  33  36
ENDBRANCH  32  33
ENDBRANCH  31  32
ENDBRANCH  15  28
ENDBRANCH   5   8
BRANCH   6  39
HETATM   39  C   UNL     1     -11.057   4.849  72.093  1.00  0.00     0.074 C  
HETATM   40  O   UNL     1     -11.990   5.288  73.074  1.00  0.00    -0.526 OA 
HETATM   41  H   UNL     1     -12.118   4.659  73.776  1.00  0.00     0.000 HD 
ENDBRANCH   6  39
ENDBRANCH   4   5
ENDBRANCH   3   4
TORSDOF 12
ENDMDL
MODEL       84
REMARK 921   NORMALIZED FREE ENERGY PREDICTED BY IDOCK:   -4.01 KCAL/MOL
REMARK 922        TOTAL FREE ENERGY PREDICTED BY IDOCK:   -7.10 KCAL/MOL
REMARK 923 INTER-LIGAND FREE ENERGY PREDICTED BY IDOCK:   -6.27 KCAL/MOL
REMARK 924 INTRA-LIGAND FREE ENERGY PREDICTED BY IDOCK:   -0.83 KCAL/MOL
REMARK 927      BINDING AFFINITY PREDICTED BY RF-SCORE:    0.00 PKD
ROOT
HETATM    1  O   UNL     1     -11.833  10.064  71.350  1.00  0.00    -0.370 OA 
HETATM    2  H   UNL     1     -12.251  10.906  71.483  1.00  0.00     0.000 HD 
HETATM    3  C   UNL     1     -11.653   9.794  69.967  1.00  0.00    -0.130 C  
ENDROOT
BRANCH   3   4
HETATM    4  C   UNL     1     -10.980   8.434  69.752  1.00  0.00    -0.127 C  
BRANCH   4   5
HETATM    5  N   UNL     1      -9.546   8.485  69.382  1.00  0.00    -0.169 N  
HETATM    6  C   UNL     1      -8.488   8.456  70.295  1.00  0.00    -0.126 C  
HETATM    7  O   UNL     1      -7.306   8.320  69.942  1.00  0.00    -0.061 OA 
BRANCH   5   8
HETATM    8  C   UNL     1      -9.220   8.349  67.984  1.00  0.00    -0.136 A  
HETATM    9  C   UNL     1      -8.934   7.076  67.415  1.00  0.00    -0.117 A  
HETATM   10  C   UNL     1      -9.102   9.504  67.175  1.00  0.00    -0.134 A  
HETATM   11  I   UNL     1      -9.188   5.304  68.657  1.00  0.00    -0.183 I  
HETATM   12  C   UNL     1      -8.567   6.940  66.046  1.00  0.00    -0.150 A  
HETATM   13  I   UNL     1      -9.008  11.450  68.127  1.00  0.00    -0.175 I  
HETATM   14  I   UNL     1      -8.518   7.905  63.057  1.00  0.00     0.550 I  
HETATM   15  C   UNL     1      -8.918   9.385  65.780  1.00  0.00    -0.227 A  
HETATM   16  C   UNL     1      -8.656   8.095  65.219  1.00  0.00    -0.106 A  
BRANCH  12  17
HETATM   17  C   UNL     1      -7.925   5.646  65.604  1.00  0.00    -0.111 C  
HETATM   18  N   UNL     1      -8.701   4.676  65.016  1.00  0.00    -0.137 N  
HETATM   19  H   UNL     1      -9.713   4.800  64.984  1.00  0.00     0.000 HD 
HETATM   20  O   UNL     1      -6.719   5.486  65.760  1.00  0.00    -0.052 OA 
BRANCH  18  21
HETATM   21  C   UNL     1      -8.111   3.469  64.433  1.00  0.00    -0.086 C  
BRANCH  21  22
HETATM   22  C   UNL     1      -9.215   2.558  63.884  1.00  0.00    -0.110 C  
HETATM   23  O   UNL     1      -9.764   1.780  64.958  1.00  0.00    -0.333 OA 
HETATM   24  H   UNL     1     -10.448   1.216  64.618  1.00  0.00     0.000 HD 
BRANCH  22  25
HETATM   25  C   UNL     1     -10.324   3.343  63.170  1.00  0.00    -0.193 C  
HETATM   26  H   UNL     1     -11.931   4.376  63.672  1.00  0.00     0.000 HD 
HETATM   27  O   UNL     1     -11.244   3.890  64.114  1.00  0.00    -0.328 OA 
ENDBRANCH  22  25
ENDBRANCH  21  22
ENDBRANCH  18  21
ENDBRANCH  12  17
BRANCH  15  28
HETATM   28  C   UNL     1      -8.959  10.595  64.895  1.00  0.00    -0.199 C  
HETATM   29  O   UNL     1      -7.929  11.192  64.604  1.00  0.00     0.318 OA 
HETATM   30  H   UNL     1     -11.042  10.486  64.659  1.00  0.00     0.000 HD 
HETATM   31  N   UNL     1     -10.196  11.001  64.416  1.00  0.00    -0.322 N  
BRANCH  31  32
HETATM   32  C   UNL     1     -10.261  12.178  63.558  1.00  0.00    -0.424 C  
BRANCH  32  33
HETATM   33  C   UNL     1     -11.687  12.706  63.359  1.00  0.00    -0.498 C  
HETATM   34  H   UNL     1     -13.503  11.944  63.337  1.00  0.00     0.000 HD 
HETATM   35  O   UNL     1     -12.619  11.618  63.460  1.00  0.00    -0.447 OA 
BRANCH  33  36
HETATM   36  C   UNL     1     -12.009  13.789  64.402  1.00  0.00    -0.445 C  
HETATM   37  O   UNL     1     -12.148  15.075  63.801  1.00  0.00    -0.918 OA 
HETATM   38  H   UNL     1     -12.347  15.744  64.445  1.00  0.00     0.000 HD 
ENDBRANCH  33  36
ENDBRANCH  32  33
ENDBRANCH  31  32
ENDBRANCH  15  28
ENDBRANCH   5   8
BRANCH   6  39
HETATM   39  C   UNL     1      -8.816   8.563  71.793  1.00  0.00    -0.211 C  
HETATM   40  O   UNL     1      -8.572   7.355  72.506  1.00  0.00    -0.109 OA 
HETATM   41  H   UNL     1      -8.775   7.421  73.432  1.00  0.00     0.000 HD 
ENDBRANCH   6  39
ENDBRANCH   4   5
ENDBRANCH   3   4
TORSDOF 12
ENDMDL
MODEL       85
REMARK 921   NORMALIZED FREE ENERGY PREDICTED BY IDOCK:   -3.97 KCAL/MOL
REMARK 922        TOTAL FREE ENERGY PREDICTED BY IDOCK:   -7.03 KCAL/MOL
REMARK 923 INTER-LIGAND FREE ENERGY PREDICTED BY IDOCK:   -7.36 KCAL/MOL
REMARK 924 INTRA-LIGAND FREE ENERGY PREDICTED BY IDOCK:    0.33 KCAL/MOL
REMARK 927      BINDING AFFINITY PREDICTED BY RF-SCORE:    0.00 PKD
ROOT
HETATM    1  O   UNL     1      -9.866   9.684  62.361  1.00  0.00    -0.511 OA 
HETATM    2  H   UNL     1      -9.787  10.095  61.508  1.00  0.00     0.000 HD 
HETATM    3  C   UNL     1      -8.603   9.592  63.004  1.00  0.00    -0.207 C  
ENDROOT
BRANCH   3   4
HETATM    4  C   UNL     1      -8.731   8.929  64.381  1.00  0.00    -0.066 C  
BRANCH   4   5
HETATM    5  N   UNL     1      -8.052   9.634  65.492  1.00  0.00    -0.118 N  
HETATM    6  C   UNL     1      -6.803  10.256  65.394  1.00  0.00    -0.140 C  
HETATM    7  O   UNL     1      -6.351  10.986  66.290  1.00  0.00    -0.127 OA 
BRANCH   5   8
HETATM    8  C   UNL     1      -8.819   9.871  66.691  1.00  0.00    -0.135 A  
HETATM    9  C   UNL     1      -9.598  11.051  66.845  1.00  0.00    -0.182 A  
HETATM   10  C   UNL     1      -8.737   8.957  67.768  1.00  0.00    -0.125 A  
HETATM   11  I   UNL     1      -9.767  12.411  65.152  1.00  0.00     0.197 I  
HETATM   12  C   UNL     1     -10.321  11.311  68.044  1.00  0.00    -0.204 A  
HETATM   13  I   UNL     1      -7.169   7.459  67.760  1.00  0.00    -0.096 I  
HETATM   14  I   UNL     1     -11.777  10.417  70.679  1.00  0.00    -0.413 I  
HETATM   15  C   UNL     1      -9.580   9.097  68.891  1.00  0.00    -0.152 A  
HETATM   16  C   UNL     1     -10.377  10.278  69.021  1.00  0.00    -0.211 A  
BRANCH  12  17
HETATM   17  C   UNL     1     -10.812  12.718  68.290  1.00  0.00    -0.248 C  
HETATM   18  N   UNL     1      -9.953  13.648  68.826  1.00  0.00    -0.394 N  
HETATM   19  H   UNL     1      -9.033  13.347  69.149  1.00  0.00     0.000 HD 
HETATM   20  O   UNL     1     -11.964  13.017  67.992  1.00  0.00    -0.350 OA 
BRANCH  18  21
HETATM   21  C   UNL     1     -10.324  15.059  68.946  1.00  0.00    -0.244 C  
BRANCH  21  22
HETATM   22  C   UNL     1     -11.282  15.448  67.815  1.00  0.00    -0.321 C  
HETATM   23  O   UNL     1     -12.409  16.144  68.369  1.00  0.00    -0.101 OA 
HETATM   24  H   UNL     1     -13.003  16.385  67.668  1.00  0.00     0.000 HD 
BRANCH  22  25
HETATM   25  C   UNL     1     -10.603  16.302  66.736  1.00  0.00    -0.257 C  
HETATM   26  H   UNL     1      -8.794  16.512  65.971  1.00  0.00     0.000 HD 
HETATM   27  O   UNL     1      -9.214  15.983  66.639  1.00  0.00    -0.213 OA 
ENDBRANCH  22  25
ENDBRANCH  21  22
ENDBRANCH  18  21
ENDBRANCH  12  17
BRANCH  15  28
HETATM   28  C   UNL     1      -9.619   8.043  69.958  1.00  0.00    -0.171 C  
HETATM   29  O   UNL     1      -8.816   8.060  70.883  1.00  0.00    -0.134 OA 
HETATM   30  H   UNL     1     -11.267   7.073  69.092  1.00  0.00     0.000 HD 
HETATM   31  N   UNL     1     -10.599   7.066  69.862  1.00  0.00    -0.221 N  
BRANCH  31  32
HETATM   32  C   UNL     1     -10.653   6.028  70.885  1.00  0.00    -0.251 C  
BRANCH  32  33
HETATM   33  C   UNL     1     -11.696   6.304  71.975  1.00  0.00    -0.322 C  
HETATM   34  H   UNL     1     -11.791   7.374  73.625  1.00  0.00     0.000 HD 
HETATM   35  O   UNL     1     -11.145   7.203  72.950  1.00  0.00    -0.292 OA 
BRANCH  33  36
HETATM   36  C   UNL     1     -12.974   6.896  71.358  1.00  0.00    -0.280 C  
HETATM   37  O   UNL     1     -13.849   7.419  72.355  1.00  0.00    -0.496 OA 
HETATM   38  H   UNL     1     -14.638   7.784  71.974  1.00  0.00     0.000 HD 
ENDBRANCH  33  36
ENDBRANCH  32  33
ENDBRANCH  31  32
ENDBRANCH  15  28
ENDBRANCH   5   8
BRANCH   6  39
HETATM   39  C   UNL     1      -5.985  10.048  64.111  1.00  0.00    -0.130 C  
HETATM   40  O   UNL     1      -5.285  11.217  63.698  1.00  0.00    -0.443 OA 
HETATM   41  H   UNL     1      -4.778  11.088  62.904  1.00  0.00     0.000 HD 
ENDBRANCH   6  39
ENDBRANCH   4   5
ENDBRANCH   3   4
TORSDOF 12
ENDMDL
MODEL       86
REMARK 921   NORMALIZED FREE ENERGY PREDICTED BY IDOCK:   -3.97 KCAL/MOL
REMARK 922        TOTAL FREE ENERGY PREDICTED BY IDOCK:   -7.02 KCAL/MOL
REMARK 923 INTER-LIGAND FREE ENERGY PREDICTED BY IDOCK:   -6.38 KCAL/MOL
REMARK 924 INTRA-LIGAND FREE ENERGY PREDICTED BY IDOCK:   -0.65 KCAL/MOL
REMARK 927      BINDING AFFINITY PREDICTED BY RF-SCORE:    0.00 PKD
ROOT
HETATM    1  O   UNL     1     -12.496  10.643  68.644  1.00  0.00    -0.788 OA 
HETATM    2  H   UNL     1     -12.969  11.243  69.208  1.00  0.00     0.000 HD 
HETATM    3  C   UNL     1     -11.313  11.243  68.136  1.00  0.00    -0.303 C  
ENDROOT
BRANCH   3   4
HETATM    4  C   UNL     1     -10.550  10.275  67.224  1.00  0.00    -0.267 C  
BRANCH   4   5
HETATM    5  N   UNL     1      -9.148  10.003  67.617  1.00  0.00    -0.134 N  
HETATM    6  C   UNL     1      -8.234  10.979  68.026  1.00  0.00    -0.123 C  
HETATM    7  O   UNL     1      -7.130  10.694  68.516  1.00  0.00    -0.065 OA 
BRANCH   5   8
HETATM    8  C   UNL     1      -8.764   8.623  67.786  1.00  0.00    -0.137 A  
HETATM    9  C   UNL     1      -8.835   7.989  69.058  1.00  0.00    -0.145 A  
HETATM   10  C   UNL     1      -8.233   7.903  66.689  1.00  0.00    -0.119 A  
HETATM   11  I   UNL     1      -9.720   9.089  70.717  1.00  0.00    -0.347 I  
HETATM   12  C   UNL     1      -8.415   6.640  69.239  1.00  0.00    -0.124 A  
HETATM   13  I   UNL     1      -7.629   8.989  64.912  1.00  0.00    -0.125 I  
HETATM   14  I   UNL     1      -7.828   3.733  68.205  1.00  0.00    -0.077 I  
HETATM   15  C   UNL     1      -7.980   6.519  66.797  1.00  0.00    -0.108 A  
HETATM   16  C   UNL     1      -8.079   5.889  68.078  1.00  0.00    -0.105 A  
BRANCH  12  17
HETATM   17  C   UNL     1      -8.165   6.154  70.647  1.00  0.00    -0.121 C  
HETATM   18  N   UNL     1      -9.147   5.450  71.302  1.00  0.00    -0.141 N  
HETATM   19  H   UNL     1     -10.066   5.359  70.869  1.00  0.00     0.000 HD 
HETATM   20  O   UNL     1      -7.083   6.379  71.181  1.00  0.00    -0.073 OA 
BRANCH  18  21
HETATM   21  C   UNL     1      -8.908   4.826  72.605  1.00  0.00    -0.114 C  
BRANCH  21  22
HETATM   22  C   UNL     1      -9.950   5.312  73.618  1.00  0.00    -0.178 C  
HETATM   23  O   UNL     1      -9.791   6.724  73.820  1.00  0.00    -0.203 OA 
HETATM   24  H   UNL     1     -10.437   7.026  74.448  1.00  0.00     0.000 HD 
BRANCH  22  25
HETATM   25  C   UNL     1     -11.387   4.991  73.184  1.00  0.00    -0.321 C  
HETATM   26  H   UNL     1     -12.785   5.815  72.058  1.00  0.00     0.000 HD 
HETATM   27  O   UNL     1     -11.896   6.013  72.327  1.00  0.00    -0.319 OA 
ENDBRANCH  22  25
ENDBRANCH  21  22
ENDBRANCH  18  21
ENDBRANCH  12  17
BRANCH  15  28
HETATM   28  C   UNL     1      -7.576   5.717  65.595  1.00  0.00    -0.086 C  
HETATM   29  O   UNL     1      -6.394   5.501  65.355  1.00  0.00    -0.036 OA 
HETATM   30  H   UNL     1      -9.565   5.403  65.001  1.00  0.00     0.000 HD 
HETATM   31  N   UNL     1      -8.586   5.225  64.781  1.00  0.00    -0.149 N  
BRANCH  31  32
HETATM   32  C   UNL     1      -8.217   4.446  63.604  1.00  0.00    -0.099 C  
BRANCH  32  33
HETATM   33  C   UNL     1      -9.032   3.156  63.451  1.00  0.00    -0.092 C  
HETATM   34  H   UNL     1      -9.471   1.600  64.575  1.00  0.00     0.000 HD 
HETATM   35  O   UNL     1      -8.967   2.400  64.670  1.00  0.00    -0.109 OA 
BRANCH  33  36
HETATM   36  C   UNL     1     -10.492   3.482  63.096  1.00  0.00    -0.223 C  
HETATM   37  O   UNL     1     -11.386   3.098  64.138  1.00  0.00    -0.558 OA 
HETATM   38  H   UNL     1     -12.289   3.299  63.919  1.00  0.00     0.000 HD 
ENDBRANCH  33  36
ENDBRANCH  32  33
ENDBRANCH  31  32
ENDBRANCH  15  28
ENDBRANCH   5   8
BRANCH   6  39
HETATM   39  C   UNL     1      -8.636  12.456  67.890  1.00  0.00    -0.171 C  
HETATM   40  O   UNL     1      -8.370  12.990  66.597  1.00  0.00    -0.417 OA 
HETATM   41  H   UNL     1      -8.619  13.904  66.513  1.00  0.00     0.000 HD 
ENDBRANCH   6  39
ENDBRANCH   4   5
ENDBRANCH   3   4
TORSDOF 12
ENDMDL
MODEL       87
REMARK 921   NORMALIZED FREE ENERGY PREDICTED BY IDOCK:   -3.95 KCAL/MOL
REMARK 922        TOTAL FREE ENERGY PREDICTED BY IDOCK:   -6.99 KCAL/MOL
REMARK 923 INTER-LIGAND FREE ENERGY PREDICTED BY IDOCK:   -7.21 KCAL/MOL
REMARK 924 INTRA-LIGAND FREE ENERGY PREDICTED BY IDOCK:    0.22 KCAL/MOL
REMARK 927      BINDING AFFINITY PREDICTED BY RF-SCORE:    0.00 PKD
ROOT
HETATM    1  O   UNL     1     -11.567  14.564  65.311  1.00  0.00    -0.341 OA 
HETATM    2  H   UNL     1     -12.211  14.013  64.881  1.00  0.00     0.000 HD 
HETATM    3  C   UNL     1     -10.340  13.873  65.491  1.00  0.00    -0.333 C  
ENDROOT
BRANCH   3   4
HETATM    4  C   UNL     1      -9.301  14.763  66.183  1.00  0.00    -0.257 C  
BRANCH   4   5
HETATM    5  N   UNL     1      -9.166  14.563  67.645  1.00  0.00    -0.190 N  
HETATM    6  C   UNL     1      -9.029  15.594  68.579  1.00  0.00    -0.192 C  
HETATM    7  O   UNL     1      -9.098  15.398  69.803  1.00  0.00    -0.243 OA 
BRANCH   5   8
HETATM    8  C   UNL     1      -9.397  13.233  68.154  1.00  0.00    -0.220 A  
HETATM    9  C   UNL     1     -10.637  12.880  68.757  1.00  0.00    -0.190 A  
HETATM   10  C   UNL     1      -8.351  12.280  68.129  1.00  0.00    -0.174 A  
HETATM   11  I   UNL     1     -12.257  14.336  68.724  1.00  0.00     0.278 I  
HETATM   12  C   UNL     1     -10.855  11.583  69.301  1.00  0.00    -0.217 A  
HETATM   13  I   UNL     1      -6.331  12.947  67.713  1.00  0.00    -0.137 I  
HETATM   14  I   UNL     1     -10.274   8.503  69.503  1.00  0.00    -0.213 I  
HETATM   15  C   UNL     1      -8.596  10.939  68.494  1.00  0.00    -0.152 A  
HETATM   16  C   UNL     1      -9.856  10.594  69.077  1.00  0.00    -0.205 A  
BRANCH  12  17
HETATM   17  C   UNL     1     -12.023  11.390  70.240  1.00  0.00    -0.373 C  
HETATM   18  N   UNL     1     -12.779  10.246  70.149  1.00  0.00    -0.557 N  
HETATM   19  H   UNL     1     -12.608   9.596  69.381  1.00  0.00     0.000 HD 
HETATM   20  O   UNL     1     -12.269  12.248  71.081  1.00  0.00    -0.243 OA 
BRANCH  18  21
HETATM   21  C   UNL     1     -13.825   9.935  71.125  1.00  0.00     0.076 C  
BRANCH  21  22
HETATM   22  C   UNL     1     -13.346   8.832  72.074  1.00  0.00    -0.413 C  
HETATM   23  O   UNL     1     -14.025   8.962  73.332  1.00  0.00    -1.236 OA 
HETATM   24  H   UNL     1     -13.728   8.278  73.921  1.00  0.00     0.000 HD 
BRANCH  22  25
HETATM   25  C   UNL     1     -13.556   7.426  71.496  1.00  0.00    -0.370 C  
HETATM   26  H   UNL     1     -12.629   5.682  71.535  1.00  0.00     0.000 HD 
HETATM   27  O   UNL     1     -12.498   6.552  71.893  1.00  0.00    -0.347 OA 
ENDBRANCH  22  25
ENDBRANCH  21  22
ENDBRANCH  18  21
ENDBRANCH  12  17
BRANCH  15  28
HETATM   28  C   UNL     1      -7.540   9.889  68.313  1.00  0.00    -0.080 C  
HETATM   29  O   UNL     1      -7.446   9.272  67.258  1.00  0.00    -0.090 OA 
HETATM   30  H   UNL     1      -6.761  10.185  70.239  1.00  0.00     0.000 HD 
HETATM   31  N   UNL     1      -6.676   9.655  69.372  1.00  0.00    -0.051 N  
BRANCH  31  32
HETATM   32  C   UNL     1      -5.645   8.635  69.221  1.00  0.00    -0.035 C  
BRANCH  32  33
HETATM   33  C   UNL     1      -5.875   7.403  70.105  1.00  0.00    -0.024 C  
HETATM   34  H   UNL     1      -7.066   6.916  71.595  1.00  0.00     0.000 HD 
HETATM   35  O   UNL     1      -6.923   7.679  71.047  1.00  0.00    -0.049 OA 
BRANCH  33  36
HETATM   36  C   UNL     1      -6.232   6.182  69.242  1.00  0.00    -0.033 C  
HETATM   37  O   UNL     1      -7.208   6.502  68.253  1.00  0.00    -0.080 OA 
HETATM   38  H   UNL     1      -7.429   5.748  67.720  1.00  0.00     0.000 HD 
ENDBRANCH  33  36
ENDBRANCH  32  33
ENDBRANCH  31  32
ENDBRANCH  15  28
ENDBRANCH   5   8
BRANCH   6  39
HETATM   39  C   UNL     1      -8.818  17.024  68.059  1.00  0.00    -0.223 C  
HETATM   40  O   UNL     1     -10.017  17.791  68.032  1.00  0.00    -0.300 OA 
HETATM   41  H   UNL     1      -9.887  18.676  67.710  1.00  0.00     0.000 HD 
ENDBRANCH   6  39
ENDBRANCH   4   5
ENDBRANCH   3   4
TORSDOF 12
ENDMDL
MODEL       88
REMARK 921   NORMALIZED FREE ENERGY PREDICTED BY IDOCK:   -3.87 KCAL/MOL
REMARK 922        TOTAL FREE ENERGY PREDICTED BY IDOCK:   -6.86 KCAL/MOL
REMARK 923 INTER-LIGAND FREE ENERGY PREDICTED BY IDOCK:   -7.75 KCAL/MOL
REMARK 924 INTRA-LIGAND FREE ENERGY PREDICTED BY IDOCK:    0.89 KCAL/MOL
REMARK 927      BINDING AFFINITY PREDICTED BY RF-SCORE:    0.00 PKD
ROOT
HETATM    1  O   UNL     1     -12.266  11.998  67.631  1.00  0.00    -0.484 OA 
HETATM    2  H   UNL     1     -12.473  11.671  68.499  1.00  0.00     0.000 HD 
HETATM    3  C   UNL     1     -12.414  13.408  67.566  1.00  0.00     0.211 C  
ENDROOT
BRANCH   3   4
HETATM    4  C   UNL     1     -12.081  13.935  66.165  1.00  0.00    -0.448 C  
BRANCH   4   5
HETATM    5  N   UNL     1     -10.891  13.328  65.524  1.00  0.00    -0.281 N  
HETATM    6  C   UNL     1     -10.821  12.942  64.182  1.00  0.00    -0.416 C  
HETATM    7  O   UNL     1      -9.757  12.605  63.640  1.00  0.00    -0.225 OA 
BRANCH   5   8
HETATM    8  C   UNL     1      -9.662  13.327  66.279  1.00  0.00    -0.268 A  
HETATM    9  C   UNL     1      -9.094  12.114  66.759  1.00  0.00    -0.205 A  
HETATM   10  C   UNL     1      -9.047  14.555  66.622  1.00  0.00    -0.251 A  
HETATM   11  I   UNL     1     -10.014  10.231  66.164  1.00  0.00    -0.276 I  
HETATM   12  C   UNL     1      -7.905  12.110  67.543  1.00  0.00    -0.162 A  
HETATM   13  I   UNL     1     -10.163  16.396  66.366  1.00  0.00    -0.315 I  
HETATM   14  I   UNL     1      -5.194  13.363  68.513  1.00  0.00    -0.099 I  
HETATM   15  C   UNL     1      -7.779  14.572  67.240  1.00  0.00    -0.177 A  
HETATM   16  C   UNL     1      -7.208  13.341  67.695  1.00  0.00    -0.162 A  
BRANCH  12  17
HETATM   17  C   UNL     1      -7.567  10.859  68.320  1.00  0.00    -0.100 C  
HETATM   18  N   UNL     1      -6.867   9.850  67.703  1.00  0.00    -0.083 N  
HETATM   19  H   UNL     1      -6.681   9.915  66.702  1.00  0.00     0.000 HD 
HETATM   20  O   UNL     1      -7.906  10.769  69.496  1.00  0.00    -0.127 OA 
BRANCH  18  21
HETATM   21  C   UNL     1      -6.382   8.685  68.445  1.00  0.00    -0.055 C  
BRANCH  21  22
HETATM   22  C   UNL     1      -7.429   7.567  68.409  1.00  0.00    -0.108 C  
HETATM   23  O   UNL     1      -6.822   6.367  67.905  1.00  0.00    -0.068 OA 
HETATM   24  H   UNL     1      -7.471   5.673  67.883  1.00  0.00     0.000 HD 
BRANCH  22  25
HETATM   25  C   UNL     1      -8.063   7.309  69.783  1.00  0.00    -0.128 C  
HETATM   26  H   UNL     1      -7.680   7.755  71.668  1.00  0.00     0.000 HD 
HETATM   27  O   UNL     1      -7.288   7.914  70.818  1.00  0.00    -0.059 OA 
ENDBRANCH  22  25
ENDBRANCH  21  22
ENDBRANCH  18  21
ENDBRANCH  12  17
BRANCH  15  28
HETATM   28  C   UNL     1      -7.047  15.864  67.454  1.00  0.00    -0.197 C  
HETATM   29  O   UNL     1      -6.288  16.303  66.598  1.00  0.00    -0.281 OA 
HETATM   30  H   UNL     1      -7.914  16.166  69.342  1.00  0.00     0.000 HD 
HETATM   31  N   UNL     1      -7.271  16.540  68.644  1.00  0.00    -0.175 N  
BRANCH  31  32
HETATM   32  C   UNL     1      -6.567  17.796  68.878  1.00  0.00    -0.229 C  
BRANCH  32  33
HETATM   33  C   UNL     1      -7.465  19.030  68.734  1.00  0.00    -0.333 C  
HETATM   34  H   UNL     1      -7.215  20.983  68.696  1.00  0.00     0.000 HD 
HETATM   35  O   UNL     1      -6.659  20.218  68.786  1.00  0.00    -0.310 OA 
BRANCH  33  36
HETATM   36  C   UNL     1      -8.254  18.971  67.415  1.00  0.00    -0.275 C  
HETATM   37  O   UNL     1      -7.396  19.088  66.282  1.00  0.00    -0.238 OA 
HETATM   38  H   UNL     1      -7.883  19.052  65.468  1.00  0.00     0.000 HD 
ENDBRANCH  33  36
ENDBRANCH  32  33
ENDBRANCH  31  32
ENDBRANCH  15  28
ENDBRANCH   5   8
BRANCH   6  39
HETATM   39  C   UNL     1     -12.112  12.971  63.348  1.00  0.00    -0.515 C  
HETATM   40  O   UNL     1     -12.546  11.676  62.945  1.00  0.00    -0.914 OA 
HETATM   41  H   UNL     1     -13.344  11.695  62.429  1.00  0.00     0.000 HD 
ENDBRANCH   6  39
ENDBRANCH   4   5
ENDBRANCH   3   4
TORSDOF 12
ENDMDL
MODEL       89
REMARK 921   NORMALIZED FREE ENERGY PREDICTED BY IDOCK:   -3.82 KCAL/MOL
REMARK 922        TOTAL FREE ENERGY PREDICTED BY IDOCK:   -6.78 KCAL/MOL
REMARK 923 INTER-LIGAND FREE ENERGY PREDICTED BY IDOCK:   -6.29 KCAL/MOL
REMARK 924 INTRA-LIGAND FREE ENERGY PREDICTED BY IDOCK:   -0.49 KCAL/MOL
REMARK 927      BINDING AFFINITY PREDICTED BY RF-SCORE:    0.00 PKD
ROOT
HETATM    1  O   UNL     1      -8.925  17.765  65.707  1.00  0.00    -0.509 OA 
HETATM    2  H   UNL     1      -8.370  18.457  65.368  1.00  0.00     0.000 HD 
HETATM    3  C   UNL     1      -8.163  16.610  66.029  1.00  0.00    -0.111 C  
ENDROOT
BRANCH   3   4
HETATM    4  C   UNL     1      -9.059  15.492  66.577  1.00  0.00    -0.302 C  
BRANCH   4   5
HETATM    5  N   UNL     1      -8.698  14.989  67.922  1.00  0.00    -0.152 N  
HETATM    6  C   UNL     1      -8.425  15.800  69.028  1.00  0.00    -0.242 C  
HETATM    7  O   UNL     1      -8.303  15.344  70.175  1.00  0.00     0.134 OA 
BRANCH   5   8
HETATM    8  C   UNL     1      -8.837  13.573  68.157  1.00  0.00    -0.179 A  
HETATM    9  C   UNL     1      -7.727  12.692  68.032  1.00  0.00    -0.139 A  
HETATM   10  C   UNL     1     -10.114  13.031  68.440  1.00  0.00    -0.225 A  
HETATM   11  I   UNL     1      -5.758  13.551  67.666  1.00  0.00     0.269 I  
HETATM   12  C   UNL     1      -7.868  11.288  68.219  1.00  0.00    -0.130 A  
HETATM   13  I   UNL     1     -11.872  14.256  68.111  1.00  0.00    -0.221 I  
HETATM   14  I   UNL     1      -9.304   8.757  69.401  1.00  0.00    -0.165 I  
HETATM   15  C   UNL     1     -10.251  11.675  68.806  1.00  0.00    -0.190 A  
HETATM   16  C   UNL     1      -9.119  10.806  68.698  1.00  0.00    -0.173 A  
BRANCH  12  17
HETATM   17  C   UNL     1      -6.766  10.386  67.716  1.00  0.00    -0.070 C  
HETATM   18  N   UNL     1      -6.648  10.153  66.366  1.00  0.00    -0.079 N  
HETATM   19  H   UNL     1      -7.370  10.504  65.737  1.00  0.00     0.000 HD 
HETATM   20  O   UNL     1      -5.980   9.889  68.516  1.00  0.00    -0.042 OA 
BRANCH  18  21
HETATM   21  C   UNL     1      -5.514   9.413  65.810  1.00  0.00    -0.040 C  
BRANCH  21  22
HETATM   22  C   UNL     1      -5.888   7.939  65.627  1.00  0.00    -0.038 C  
HETATM   23  O   UNL     1      -6.092   7.339  66.915  1.00  0.00    -0.039 OA 
HETATM   24  H   UNL     1      -6.324   6.425  66.802  1.00  0.00     0.000 HD 
BRANCH  22  25
HETATM   25  C   UNL     1      -7.132   7.752  64.747  1.00  0.00    -0.060 C  
HETATM   26  H   UNL     1      -9.093   7.825  64.964  1.00  0.00     0.000 HD 
HETATM   27  O   UNL     1      -8.324   7.940  65.509  1.00  0.00    -0.135 OA 
ENDBRANCH  22  25
ENDBRANCH  21  22
ENDBRANCH  18  21
ENDBRANCH  12  17
BRANCH  15  28
HETATM   28  C   UNL     1     -11.571  11.134  69.267  1.00  0.00    -0.318 C  
HETATM   29  O   UNL     1     -12.357  10.637  68.469  1.00  0.00    -0.317 OA 
HETATM   30  H   UNL     1     -11.190  11.615  71.275  1.00  0.00     0.000 HD 
HETATM   31  N   UNL     1     -11.860  11.209  70.622  1.00  0.00    -0.337 N  
BRANCH  31  32
HETATM   32  C   UNL     1     -13.140  10.694  71.094  1.00  0.00    -0.322 C  
BRANCH  32  33
HETATM   33  C   UNL     1     -12.999   9.538  72.092  1.00  0.00    -0.412 C  
HETATM   34  H   UNL     1     -14.150   8.642  73.414  1.00  0.00     0.000 HD 
HETATM   35  O   UNL     1     -14.237   9.358  72.796  1.00  0.00    -0.428 OA 
BRANCH  33  36
HETATM   36  C   UNL     1     -12.600   8.244  71.362  1.00  0.00    -0.275 C  
HETATM   37  O   UNL     1     -13.115   7.088  72.020  1.00  0.00    -0.516 OA 
HETATM   38  H   UNL     1     -12.869   6.289  71.569  1.00  0.00     0.000 HD 
ENDBRANCH  33  36
ENDBRANCH  32  33
ENDBRANCH  31  32
ENDBRANCH  15  28
ENDBRANCH   5   8
BRANCH   6  39
HETATM   39  C   UNL     1      -8.309  17.316  68.807  1.00  0.00    -0.228 C  
HETATM   40  O   UNL     1      -9.556  17.994  68.913  1.00  0.00    -0.297 OA 
HETATM   41  H   UNL     1      -9.484  18.932  68.776  1.00  0.00     0.000 HD 
ENDBRANCH   6  39
ENDBRANCH   4   5
ENDBRANCH   3   4
TORSDOF 12
ENDMDL
MODEL       90
REMARK 921   NORMALIZED FREE ENERGY PREDICTED BY IDOCK:   -3.79 KCAL/MOL
REMARK 922        TOTAL FREE ENERGY PREDICTED BY IDOCK:   -6.73 KCAL/MOL
REMARK 923 INTER-LIGAND FREE ENERGY PREDICTED BY IDOCK:   -6.02 KCAL/MOL
REMARK 924 INTRA-LIGAND FREE ENERGY PREDICTED BY IDOCK:   -0.71 KCAL/MOL
REMARK 927      BINDING AFFINITY PREDICTED BY RF-SCORE:    0.00 PKD
ROOT
HETATM    1  O   UNL     1      -8.276  14.869  69.332  1.00  0.00    -0.312 OA 
HETATM    2  H   UNL     1      -7.661  15.460  68.914  1.00  0.00     0.000 HD 
HETATM    3  C   UNL     1      -9.378  14.589  68.481  1.00  0.00    -0.203 C  
ENDROOT
BRANCH   3   4
HETATM    4  C   UNL     1     -10.370  13.636  69.157  1.00  0.00     0.063 C  
BRANCH   4   5
HETATM    5  N   UNL     1     -10.685  12.403  68.399  1.00  0.00    -0.228 N  
HETATM    6  C   UNL     1     -11.376  12.372  67.184  1.00  0.00    -0.329 C  
HETATM    7  O   UNL     1     -11.463  11.344  66.493  1.00  0.00    -0.384 OA 
BRANCH   5   8
HETATM    8  C   UNL     1     -10.059  11.180  68.838  1.00  0.00    -0.186 A  
HETATM    9  C   UNL     1      -8.867  10.701  68.226  1.00  0.00    -0.139 A  
HETATM   10  C   UNL     1     -10.679  10.395  69.840  1.00  0.00    -0.279 A  
HETATM   11  I   UNL     1      -7.891  11.955  66.735  1.00  0.00     0.162 I  
HETATM   12  C   UNL     1      -8.270   9.471  68.625  1.00  0.00    -0.112 A  
HETATM   13  I   UNL     1     -12.730  10.826  70.394  1.00  0.00    -0.043 I  
HETATM   14  I   UNL     1      -7.724   7.171  70.692  1.00  0.00    -0.096 I  
HETATM   15  C   UNL     1     -10.018   9.270  70.378  1.00  0.00    -0.287 A  
HETATM   16  C   UNL     1      -8.807   8.814  69.768  1.00  0.00    -0.142 A  
BRANCH  12  17
HETATM   17  C   UNL     1      -7.246   8.845  67.707  1.00  0.00    -0.084 C  
HETATM   18  N   UNL     1      -7.670   8.068  66.655  1.00  0.00    -0.093 N  
HETATM   19  H   UNL     1      -8.661   7.840  66.573  1.00  0.00     0.000 HD 
HETATM   20  O   UNL     1      -6.054   9.051  67.904  1.00  0.00    -0.049 OA 
BRANCH  18  21
HETATM   21  C   UNL     1      -6.735   7.561  65.649  1.00  0.00    -0.045 C  
BRANCH  21  22
HETATM   22  C   UNL     1      -7.434   6.532  64.754  1.00  0.00    -0.091 C  
HETATM   23  O   UNL     1      -8.772   6.976  64.478  1.00  0.00    -0.334 OA 
HETATM   24  H   UNL     1      -9.205   6.338  63.924  1.00  0.00     0.000 HD 
BRANCH  22  25
HETATM   25  C   UNL     1      -6.675   6.277  63.445  1.00  0.00    -0.040 C  
HETATM   26  H   UNL     1      -6.505   7.129  61.672  1.00  0.00     0.000 HD 
HETATM   27  O   UNL     1      -6.975   7.287  62.482  1.00  0.00    -0.069 OA 
ENDBRANCH  22  25
ENDBRANCH  21  22
ENDBRANCH  18  21
ENDBRANCH  12  17
BRANCH  15  28
HETATM   28  C   UNL     1     -10.591   8.533  71.552  1.00  0.00    -0.263 C  
HETATM   29  O   UNL     1     -10.412   8.939  72.694  1.00  0.00    -0.055 OA 
HETATM   30  H   UNL     1     -11.483   7.072  70.337  1.00  0.00     0.000 HD 
HETATM   31  N   UNL     1     -11.334   7.390  71.294  1.00  0.00    -0.259 N  
BRANCH  31  32
HETATM   32  C   UNL     1     -11.897   6.653  72.420  1.00  0.00    -0.191 C  
BRANCH  32  33
HETATM   33  C   UNL     1     -11.182   5.324  72.694  1.00  0.00    -0.248 C  
HETATM   34  H   UNL     1     -10.223   3.972  71.632  1.00  0.00     0.000 HD 
HETATM   35  O   UNL     1     -10.666   4.795  71.462  1.00  0.00    -0.071 OA 
BRANCH  33  36
HETATM   36  C   UNL     1     -10.047   5.525  73.712  1.00  0.00    -0.207 C  
HETATM   37  O   UNL     1     -10.219   6.724  74.464  1.00  0.00    -0.443 OA 
HETATM   38  H   UNL     1      -9.517   6.848  75.093  1.00  0.00     0.000 HD 
ENDBRANCH  33  36
ENDBRANCH  32  33
ENDBRANCH  31  32
ENDBRANCH  15  28
ENDBRANCH   5   8
BRANCH   6  39
HETATM   39  C   UNL     1     -12.019  13.672  66.678  1.00  0.00    -0.415 C  
HETATM   40  O   UNL     1     -12.791  13.492  65.496  1.00  0.00    -0.549 OA 
HETATM   41  H   UNL     1     -13.189  14.296  65.183  1.00  0.00     0.000 HD 
ENDBRANCH   6  39
ENDBRANCH   4   5
ENDBRANCH   3   4
TORSDOF 12
ENDMDL
MODEL       91
REMARK 921   NORMALIZED FREE ENERGY PREDICTED BY IDOCK:   -3.79 KCAL/MOL
REMARK 922        TOTAL FREE ENERGY PREDICTED BY IDOCK:   -6.73 KCAL/MOL
REMARK 923 INTER-LIGAND FREE ENERGY PREDICTED BY IDOCK:   -7.11 KCAL/MOL
REMARK 924 INTRA-LIGAND FREE ENERGY PREDICTED BY IDOCK:    0.38 KCAL/MOL
REMARK 927      BINDING AFFINITY PREDICTED BY RF-SCORE:    0.00 PKD
ROOT
HETATM    1  O   UNL     1     -11.097  11.276  63.102  1.00  0.00    -0.811 OA 
HETATM    2  H   UNL     1     -11.811  10.956  62.563  1.00  0.00     0.000 HD 
HETATM    3  C   UNL     1     -11.288  12.639  63.450  1.00  0.00    -0.394 C  
ENDROOT
BRANCH   3   4
HETATM    4  C   UNL     1     -10.136  13.154  64.320  1.00  0.00    -0.140 C  
BRANCH   4   5
HETATM    5  N   UNL     1     -10.429  13.253  65.769  1.00  0.00    -0.280 N  
HETATM    6  C   UNL     1     -11.696  13.090  66.337  1.00  0.00    -0.390 C  
HETATM    7  O   UNL     1     -11.871  13.003  67.563  1.00  0.00    -0.358 OA 
BRANCH   5   8
HETATM    8  C   UNL     1      -9.302  13.316  66.668  1.00  0.00    -0.242 A  
HETATM    9  C   UNL     1      -8.856  14.556  67.205  1.00  0.00    -0.229 A  
HETATM   10  C   UNL     1      -8.574  12.139  66.963  1.00  0.00    -0.191 A  
HETATM   11  I   UNL     1     -10.031  16.345  66.795  1.00  0.00    -0.324 I  
HETATM   12  C   UNL     1      -7.718  14.630  68.056  1.00  0.00    -0.136 A  
HETATM   13  I   UNL     1      -8.903  10.368  65.757  1.00  0.00    -0.229 I  
HETATM   14  I   UNL     1      -5.673  13.403  70.100  1.00  0.00    -0.127 I  
HETATM   15  C   UNL     1      -7.557  12.154  67.942  1.00  0.00    -0.123 A  
HETATM   16  C   UNL     1      -7.136  13.406  68.492  1.00  0.00    -0.108 A  
BRANCH  12  17
HETATM   17  C   UNL     1      -7.084  15.982  68.284  1.00  0.00    -0.120 C  
HETATM   18  N   UNL     1      -6.252  16.507  67.324  1.00  0.00    -0.161 N  
HETATM   19  H   UNL     1      -5.992  15.932  66.523  1.00  0.00     0.000 HD 
HETATM   20  O   UNL     1      -7.332  16.600  69.314  1.00  0.00    -0.240 OA 
BRANCH  18  21
HETATM   21  C   UNL     1      -5.731  17.872  67.420  1.00  0.00    -0.147 C  
BRANCH  21  22
HETATM   22  C   UNL     1      -6.301  18.733  66.288  1.00  0.00    -0.185 C  
HETATM   23  O   UNL     1      -6.990  17.889  65.353  1.00  0.00    -0.434 OA 
HETATM   24  H   UNL     1      -7.344  18.422  64.651  1.00  0.00     0.000 HD 
BRANCH  22  25
HETATM   25  C   UNL     1      -7.236  19.837  66.802  1.00  0.00    -0.227 C  
HETATM   26  H   UNL     1      -8.465  20.112  68.323  1.00  0.00     0.000 HD 
HETATM   27  O   UNL     1      -7.887  19.428  68.005  1.00  0.00    -0.283 OA 
ENDBRANCH  22  25
ENDBRANCH  21  22
ENDBRANCH  18  21
ENDBRANCH  12  17
BRANCH  15  28
HETATM   28  C   UNL     1      -6.895  10.881  68.380  1.00  0.00    -0.068 C  
HETATM   29  O   UNL     1      -5.901  10.461  67.800  1.00  0.00    -0.044 OA 
HETATM   30  H   UNL     1      -8.263  10.581  69.945  1.00  0.00     0.000 HD 
HETATM   31  N   UNL     1      -7.442  10.212  69.466  1.00  0.00    -0.117 N  
BRANCH  31  32
HETATM   32  C   UNL     1      -6.819   8.969  69.907  1.00  0.00    -0.047 C  
BRANCH  32  33
HETATM   33  C   UNL     1      -7.761   7.761  69.839  1.00  0.00    -0.095 C  
HETATM   34  H   UNL     1      -9.327   7.227  68.772  1.00  0.00     0.000 HD 
HETATM   35  O   UNL     1      -8.744   7.976  68.814  1.00  0.00    -0.131 OA 
BRANCH  33  36
HETATM   36  C   UNL     1      -6.965   6.474  69.561  1.00  0.00    -0.067 C  
HETATM   37  O   UNL     1      -7.825   5.372  69.285  1.00  0.00    -0.086 OA 
HETATM   38  H   UNL     1      -7.334   4.577  69.113  1.00  0.00     0.000 HD 
ENDBRANCH  33  36
ENDBRANCH  32  33
ENDBRANCH  31  32
ENDBRANCH  15  28
ENDBRANCH   5   8
BRANCH   6  39
HETATM   39  C   UNL     1     -12.906  12.984  65.397  1.00  0.00    -0.142 C  
HETATM   40  O   UNL     1     -13.714  14.156  65.390  1.00  0.00    -0.440 OA 
HETATM   41  H   UNL     1     -14.463  14.090  64.809  1.00  0.00     0.000 HD 
ENDBRANCH   6  39
ENDBRANCH   4   5
ENDBRANCH   3   4
TORSDOF 12
ENDMDL
MODEL       92
REMARK 921   NORMALIZED FREE ENERGY PREDICTED BY IDOCK:   -3.79 KCAL/MOL
REMARK 922        TOTAL FREE ENERGY PREDICTED BY IDOCK:   -6.72 KCAL/MOL
REMARK 923 INTER-LIGAND FREE ENERGY PREDICTED BY IDOCK:   -7.23 KCAL/MOL
REMARK 924 INTRA-LIGAND FREE ENERGY PREDICTED BY IDOCK:    0.51 KCAL/MOL
REMARK 927      BINDING AFFINITY PREDICTED BY RF-SCORE:    0.00 PKD
ROOT
HETATM    1  O   UNL     1     -10.438   8.871  71.914  1.00  0.00    -0.326 OA 
HETATM    2  H   UNL     1     -11.038   8.236  72.287  1.00  0.00     0.000 HD 
HETATM    3  C   UNL     1      -9.165   8.292  71.668  1.00  0.00    -0.185 C  
ENDROOT
BRANCH   3   4
HETATM    4  C   UNL     1      -8.198   9.318  71.066  1.00  0.00    -0.068 C  
BRANCH   4   5
HETATM    5  N   UNL     1      -8.253   9.455  69.592  1.00  0.00    -0.123 N  
HETATM    6  C   UNL     1      -8.403   8.389  68.699  1.00  0.00    -0.120 C  
HETATM    7  O   UNL     1      -8.624   8.559  67.490  1.00  0.00    -0.127 OA 
BRANCH   5   8
HETATM    8  C   UNL     1      -8.366  10.790  69.056  1.00  0.00    -0.136 A  
HETATM    9  C   UNL     1      -7.245  11.665  69.017  1.00  0.00    -0.094 A  
HETATM   10  C   UNL     1      -9.628  11.271  68.632  1.00  0.00    -0.190 A  
HETATM   11  I   UNL     1      -5.298  10.884  69.607  1.00  0.00    -0.049 I  
HETATM   12  C   UNL     1      -7.361  12.998  68.531  1.00  0.00    -0.115 A  
HETATM   13  I   UNL     1     -11.411  10.163  69.172  1.00  0.00     0.066 I  
HETATM   14  I   UNL     1      -8.732  15.232  66.799  1.00  0.00    -0.228 I  
HETATM   15  C   UNL     1      -9.736  12.519  67.981  1.00  0.00    -0.215 A  
HETATM   16  C   UNL     1      -8.593  13.379  67.928  1.00  0.00    -0.184 A  
BRANCH  12  17
HETATM   17  C   UNL     1      -6.256  13.975  68.856  1.00  0.00    -0.089 C  
HETATM   18  N   UNL     1      -6.374  14.782  69.963  1.00  0.00    -0.156 N  
HETATM   19  H   UNL     1      -7.250  14.784  70.486  1.00  0.00     0.000 HD 
HETATM   20  O   UNL     1      -5.262  14.024  68.139  1.00  0.00    -0.105 OA 
BRANCH  18  21
HETATM   21  C   UNL     1      -5.273  15.637  70.412  1.00  0.00    -0.147 C  
BRANCH  21  22
HETATM   22  C   UNL     1      -5.704  17.107  70.380  1.00  0.00    -0.115 C  
HETATM   23  O   UNL     1      -5.160  17.785  71.523  1.00  0.00    -0.504 OA 
HETATM   24  H   UNL     1      -5.427  18.696  71.504  1.00  0.00     0.000 HD 
BRANCH  22  25
HETATM   25  C   UNL     1      -5.281  17.816  69.087  1.00  0.00    -0.177 C  
HETATM   26  H   UNL     1      -5.588  17.611  67.147  1.00  0.00     0.000 HD 
HETATM   27  O   UNL     1      -5.850  17.172  67.947  1.00  0.00    -0.118 OA 
ENDBRANCH  22  25
ENDBRANCH  21  22
ENDBRANCH  18  21
ENDBRANCH  12  17
BRANCH  15  28
HETATM   28  C   UNL     1     -11.037  12.962  67.382  1.00  0.00    -0.273 C  
HETATM   29  O   UNL     1     -11.760  13.756  67.973  1.00  0.00    -0.315 OA 
HETATM   30  H   UNL     1     -10.763  11.798  65.657  1.00  0.00     0.000 HD 
HETATM   31  N   UNL     1     -11.381  12.449  66.140  1.00  0.00    -0.333 N  
BRANCH  31  32
HETATM   32  C   UNL     1     -12.645  12.861  65.540  1.00  0.00    -0.296 C  
BRANCH  32  33
HETATM   33  C   UNL     1     -12.511  13.276  64.069  1.00  0.00    -0.257 C  
HETATM   34  H   UNL     1     -12.397  14.966  63.065  1.00  0.00     0.000 HD 
HETATM   35  O   UNL     1     -12.480  14.709  63.976  1.00  0.00    -0.796 OA 
BRANCH  33  36
HETATM   36  C   UNL     1     -11.240  12.668  63.453  1.00  0.00    -0.344 C  
HETATM   37  O   UNL     1     -11.458  11.331  63.008  1.00  0.00    -0.852 OA 
HETATM   38  H   UNL     1     -10.672  10.956  62.627  1.00  0.00     0.000 HD 
ENDBRANCH  33  36
ENDBRANCH  32  33
ENDBRANCH  31  32
ENDBRANCH  15  28
ENDBRANCH   5   8
BRANCH   6  39
HETATM   39  C   UNL     1      -8.323   6.959  69.254  1.00  0.00    -0.129 C  
HETATM   40  O   UNL     1      -9.560   6.259  69.176  1.00  0.00    -0.135 OA 
HETATM   41  H   UNL     1      -9.511   5.374  69.519  1.00  0.00     0.000 HD 
ENDBRANCH   6  39
ENDBRANCH   4   5
ENDBRANCH   3   4
TORSDOF 12
ENDMDL
MODEL       93
REMARK 921   NORMALIZED FREE ENERGY PREDICTED BY IDOCK:   -3.76 KCAL/MOL
REMARK 922        TOTAL FREE ENERGY PREDICTED BY IDOCK:   -6.67 KCAL/MOL
REMARK 923 INTER-LIGAND FREE ENERGY PREDICTED BY IDOCK:   -5.59 KCAL/MOL
REMARK 924 INTRA-LIGAND FREE ENERGY PREDICTED BY IDOCK:   -1.08 KCAL/MOL
REMARK 927      BINDING AFFINITY PREDICTED BY RF-SCORE:    0.00 PKD
ROOT
HETATM    1  O   UNL     1     -11.553   6.646  66.750  1.00  0.00    -0.718 OA 
HETATM    2  H   UNL     1     -12.082   6.835  67.516  1.00  0.00     0.000 HD 
HETATM    3  C   UNL     1     -10.337   6.008  67.113  1.00  0.00    -0.230 C  
ENDROOT
BRANCH   3   4
HETATM    4  C   UNL     1      -9.483   5.703  65.876  1.00  0.00    -0.067 C  
BRANCH   4   5
HETATM    5  N   UNL     1      -8.066   6.128  65.961  1.00  0.00    -0.113 N  
HETATM    6  C   UNL     1      -7.079   5.796  65.028  1.00  0.00    -0.064 C  
HETATM    7  O   UNL     1      -5.952   6.316  65.037  1.00  0.00    -0.025 OA 
BRANCH   5   8
HETATM    8  C   UNL     1      -7.731   7.115  66.958  1.00  0.00    -0.107 A  
HETATM    9  C   UNL     1      -7.346   6.733  68.274  1.00  0.00    -0.093 A  
HETATM   10  C   UNL     1      -7.862   8.491  66.655  1.00  0.00    -0.090 A  
HETATM   11  I   UNL     1      -7.083   4.613  68.702  1.00  0.00    -0.053 I  
HETATM   12  C   UNL     1      -7.058   7.703  69.274  1.00  0.00    -0.076 A  
HETATM   13  I   UNL     1      -8.939   9.076  64.866  1.00  0.00     0.116 I  
HETATM   14  I   UNL     1      -6.177  10.566  70.219  1.00  0.00    -0.072 I  
HETATM   15  C   UNL     1      -7.411   9.471  67.565  1.00  0.00    -0.091 A  
HETATM   16  C   UNL     1      -7.004   9.069  68.877  1.00  0.00    -0.065 A  
BRANCH  12  17
HETATM   17  C   UNL     1      -7.023   7.253  70.716  1.00  0.00    -0.056 C  
HETATM   18  N   UNL     1      -8.205   7.041  71.385  1.00  0.00    -0.109 N  
HETATM   19  H   UNL     1      -9.084   7.293  70.933  1.00  0.00     0.000 HD 
HETATM   20  O   UNL     1      -5.942   7.067  71.265  1.00  0.00    -0.035 OA 
BRANCH  18  21
HETATM   21  C   UNL     1      -8.235   6.462  72.729  1.00  0.00    -0.107 C  
BRANCH  21  22
HETATM   22  C   UNL     1      -9.013   7.380  73.678  1.00  0.00    -0.215 C  
HETATM   23  O   UNL     1      -8.378   8.667  73.719  1.00  0.00    -0.363 OA 
HETATM   24  H   UNL     1      -8.861   9.236  74.307  1.00  0.00     0.000 HD 
BRANCH  22  25
HETATM   25  C   UNL     1     -10.489   7.524  73.279  1.00  0.00    -0.371 C  
HETATM   26  H   UNL     1     -11.576   8.703  72.128  1.00  0.00     0.000 HD 
HETATM   27  O   UNL     1     -10.664   8.615  72.375  1.00  0.00    -0.339 OA 
ENDBRANCH  22  25
ENDBRANCH  21  22
ENDBRANCH  18  21
ENDBRANCH  12  17
BRANCH  15  28
HETATM   28  C   UNL     1      -7.392  10.922  67.185  1.00  0.00    -0.105 C  
HETATM   29  O   UNL     1      -6.413  11.411  66.634  1.00  0.00    -0.132 OA 
HETATM   30  H   UNL     1      -9.332  11.250  67.916  1.00  0.00     0.000 HD 
HETATM   31  N   UNL     1      -8.521  11.676  67.468  1.00  0.00    -0.144 N  
BRANCH  31  32
HETATM   32  C   UNL     1      -8.524  13.090  67.111  1.00  0.00    -0.174 C  
BRANCH  32  33
HETATM   33  C   UNL     1      -9.890  13.591  66.626  1.00  0.00    -0.279 C  
HETATM   34  H   UNL     1     -10.679  15.320  66.113  1.00  0.00     0.000 HD 
HETATM   35  O   UNL     1      -9.833  15.010  66.414  1.00  0.00    -0.245 OA 
BRANCH  33  36
HETATM   36  C   UNL     1     -10.297  12.869  65.330  1.00  0.00    -0.296 C  
HETATM   37  O   UNL     1     -10.055  13.675  64.179  1.00  0.00    -0.757 OA 
HETATM   38  H   UNL     1     -10.307  13.229  63.379  1.00  0.00     0.000 HD 
ENDBRANCH  33  36
ENDBRANCH  32  33
ENDBRANCH  31  32
ENDBRANCH  15  28
ENDBRANCH   5   8
BRANCH   6  39
HETATM   39  C   UNL     1      -7.426   4.774  63.934  1.00  0.00    -0.059 C  
HETATM   40  O   UNL     1      -7.201   3.427  64.337  1.00  0.00    -0.056 OA 
HETATM   41  H   UNL     1      -7.415   2.795  63.660  1.00  0.00     0.000 HD 
ENDBRANCH   6  39
ENDBRANCH   4   5
ENDBRANCH   3   4
TORSDOF 12
ENDMDL
MODEL       94
REMARK 921   NORMALIZED FREE ENERGY PREDICTED BY IDOCK:   -3.75 KCAL/MOL
REMARK 922        TOTAL FREE ENERGY PREDICTED BY IDOCK:   -6.65 KCAL/MOL
REMARK 923 INTER-LIGAND FREE ENERGY PREDICTED BY IDOCK:   -6.67 KCAL/MOL
REMARK 924 INTRA-LIGAND FREE ENERGY PREDICTED BY IDOCK:    0.02 KCAL/MOL
REMARK 927      BINDING AFFINITY PREDICTED BY RF-SCORE:    0.00 PKD
ROOT
HETATM    1  O   UNL     1     -10.033  13.468  64.794  1.00  0.00    -0.599 OA 
HETATM    2  H   UNL     1     -10.557  14.198  65.103  1.00  0.00     0.000 HD 
HETATM    3  C   UNL     1      -9.814  12.520  65.828  1.00  0.00    -0.234 C  
ENDROOT
BRANCH   3   4
HETATM    4  C   UNL     1      -8.969  11.342  65.328  1.00  0.00    -0.008 C  
BRANCH   4   5
HETATM    5  N   UNL     1      -8.213  10.614  66.373  1.00  0.00    -0.140 N  
HETATM    6  C   UNL     1      -7.391  11.220  67.328  1.00  0.00    -0.122 C  
HETATM    7  O   UNL     1      -6.919  10.598  68.293  1.00  0.00    -0.070 OA 
BRANCH   5   8
HETATM    8  C   UNL     1      -8.505   9.212  66.543  1.00  0.00    -0.123 A  
HETATM    9  C   UNL     1      -7.869   8.223  65.742  1.00  0.00    -0.098 A  
HETATM   10  C   UNL     1      -9.499   8.810  67.467  1.00  0.00    -0.141 A  
HETATM   11  I   UNL     1      -6.293   8.854  64.376  1.00  0.00    -0.072 I  
HETATM   12  C   UNL     1      -8.186   6.842  65.875  1.00  0.00    -0.132 A  
HETATM   13  I   UNL     1     -10.832  10.306  68.295  1.00  0.00    -0.282 I  
HETATM   14  I   UNL     1      -9.249   4.361  67.482  1.00  0.00    -0.218 I  
HETATM   15  C   UNL     1      -9.704   7.442  67.747  1.00  0.00    -0.171 A  
HETATM   16  C   UNL     1      -9.038   6.459  66.949  1.00  0.00    -0.133 A  
BRANCH  12  17
HETATM   17  C   UNL     1      -7.768   5.903  64.768  1.00  0.00    -0.099 C  
HETATM   18  N   UNL     1      -8.615   5.694  63.705  1.00  0.00    -0.334 N  
HETATM   19  H   UNL     1      -9.554   6.090  63.733  1.00  0.00     0.000 HD 
HETATM   20  O   UNL     1      -6.672   5.355  64.822  1.00  0.00    -0.045 OA 
BRANCH  18  21
HETATM   21  C   UNL     1      -8.203   4.917  62.535  1.00  0.00    -0.089 C  
BRANCH  21  22
HETATM   22  C   UNL     1      -9.060   3.653  62.416  1.00  0.00    -0.091 C  
HETATM   23  O   UNL     1      -8.538   2.643  63.292  1.00  0.00    -0.085 OA 
HETATM   24  H   UNL     1      -9.069   1.859  63.219  1.00  0.00     0.000 HD 
BRANCH  22  25
HETATM   25  C   UNL     1     -10.541   3.915  62.723  1.00  0.00    -0.180 C  
HETATM   26  H   UNL     1     -11.671   4.173  64.322  1.00  0.00     0.000 HD 
HETATM   27  O   UNL     1     -10.755   4.011  64.132  1.00  0.00    -0.250 OA 
ENDBRANCH  22  25
ENDBRANCH  21  22
ENDBRANCH  18  21
ENDBRANCH  12  17
BRANCH  15  28
HETATM   28  C   UNL     1     -10.635   7.014  68.843  1.00  0.00    -0.215 C  
HETATM   29  O   UNL     1     -11.654   6.382  68.587  1.00  0.00    -0.142 OA 
HETATM   30  H   UNL     1      -9.437   7.865  70.342  1.00  0.00     0.000 HD 
HETATM   31  N   UNL     1     -10.294   7.349  70.145  1.00  0.00    -0.210 N  
BRANCH  31  32
HETATM   32  C   UNL     1     -11.187   6.949  71.226  1.00  0.00    -0.268 C  
BRANCH  32  33
HETATM   33  C   UNL     1     -11.466   8.074  72.231  1.00  0.00    -0.360 C  
HETATM   34  H   UNL     1     -10.632   9.787  72.727  1.00  0.00     0.000 HD 
HETATM   35  O   UNL     1     -10.459   9.090  72.105  1.00  0.00    -0.321 OA 
BRANCH  33  36
HETATM   36  C   UNL     1     -12.865   8.668  71.997  1.00  0.00    -0.379 C  
HETATM   37  O   UNL     1     -13.472   9.084  73.218  1.00  0.00    -0.945 OA 
HETATM   38  H   UNL     1     -14.336   9.452  73.073  1.00  0.00     0.000 HD 
ENDBRANCH  33  36
ENDBRANCH  32  33
ENDBRANCH  31  32
ENDBRANCH  15  28
ENDBRANCH   5   8
BRANCH   6  39
HETATM   39  C   UNL     1      -7.096  12.721  67.187  1.00  0.00     0.006 C  
HETATM   40  O   UNL     1      -7.748  13.515  68.173  1.00  0.00    -0.115 OA 
HETATM   41  H   UNL     1      -7.565  14.443  68.085  1.00  0.00     0.000 HD 
ENDBRANCH   6  39
ENDBRANCH   4   5
ENDBRANCH   3   4
TORSDOF 12
ENDMDL
MODEL       95
REMARK 921   NORMALIZED FREE ENERGY PREDICTED BY IDOCK:   -3.74 KCAL/MOL
REMARK 922        TOTAL FREE ENERGY PREDICTED BY IDOCK:   -6.64 KCAL/MOL
REMARK 923 INTER-LIGAND FREE ENERGY PREDICTED BY IDOCK:   -5.36 KCAL/MOL
REMARK 924 INTRA-LIGAND FREE ENERGY PREDICTED BY IDOCK:   -1.28 KCAL/MOL
REMARK 927      BINDING AFFINITY PREDICTED BY RF-SCORE:    0.00 PKD
ROOT
HETATM    1  O   UNL     1     -11.536   6.116  68.470  1.00  0.00    -0.364 OA 
HETATM    2  H   UNL     1     -11.999   6.630  69.121  1.00  0.00     0.000 HD 
HETATM    3  C   UNL     1     -11.008   6.945  67.445  1.00  0.00    -0.304 C  
ENDROOT
BRANCH   3   4
HETATM    4  C   UNL     1     -10.260   6.115  66.395  1.00  0.00    -0.046 C  
BRANCH   4   5
HETATM    5  N   UNL     1      -8.790   6.298  66.369  1.00  0.00    -0.139 N  
HETATM    6  C   UNL     1      -7.950   5.841  65.349  1.00  0.00    -0.117 C  
HETATM    7  O   UNL     1      -6.755   6.168  65.273  1.00  0.00    -0.045 OA 
BRANCH   5   8
HETATM    8  C   UNL     1      -8.217   7.182  67.354  1.00  0.00    -0.116 A  
HETATM    9  C   UNL     1      -7.912   6.724  68.666  1.00  0.00    -0.119 A  
HETATM   10  C   UNL     1      -8.025   8.549  67.042  1.00  0.00    -0.100 A  
HETATM   11  I   UNL     1      -8.149   4.603  69.105  1.00  0.00    -0.080 I  
HETATM   12  C   UNL     1      -7.388   7.603  69.656  1.00  0.00    -0.089 A  
HETATM   13  I   UNL     1      -8.962   9.365  65.265  1.00  0.00    -0.236 I  
HETATM   14  I   UNL     1      -5.844  10.182  70.568  1.00  0.00    -0.098 I  
HETATM   15  C   UNL     1      -7.342   9.399  67.940  1.00  0.00    -0.083 A  
HETATM   16  C   UNL     1      -7.021   8.916  69.248  1.00  0.00    -0.057 A  
BRANCH  12  17
HETATM   17  C   UNL     1      -7.438   7.163  71.100  1.00  0.00    -0.080 C  
HETATM   18  N   UNL     1      -8.612   7.293  71.804  1.00  0.00    -0.116 N  
HETATM   19  H   UNL     1      -9.397   7.782  71.375  1.00  0.00     0.000 HD 
HETATM   20  O   UNL     1      -6.438   6.680  71.619  1.00  0.00    -0.045 OA 
BRANCH  18  21
HETATM   21  C   UNL     1      -8.763   6.747  73.154  1.00  0.00    -0.122 C  
BRANCH  21  22
HETATM   22  C   UNL     1     -10.181   6.198  73.343  1.00  0.00    -0.217 C  
HETATM   23  O   UNL     1     -11.042   7.257  73.790  1.00  0.00    -0.557 OA 
HETATM   24  H   UNL     1     -11.921   6.917  73.907  1.00  0.00     0.000 HD 
BRANCH  22  25
HETATM   25  C   UNL     1     -10.740   5.559  72.064  1.00  0.00    -0.234 C  
HETATM   26  H   UNL     1     -11.837   6.115  70.519  1.00  0.00     0.000 HD 
HETATM   27  O   UNL     1     -11.492   6.511  71.310  1.00  0.00    -0.290 OA 
ENDBRANCH  22  25
ENDBRANCH  21  22
ENDBRANCH  18  21
ENDBRANCH  12  17
BRANCH  15  28
HETATM   28  C   UNL     1      -6.988  10.803  67.549  1.00  0.00    -0.084 C  
HETATM   29  O   UNL     1      -5.969  11.036  66.910  1.00  0.00    -0.066 OA 
HETATM   30  H   UNL     1      -8.709  11.602  68.447  1.00  0.00     0.000 HD 
HETATM   31  N   UNL     1      -7.859  11.815  67.926  1.00  0.00    -0.126 N  
BRANCH  31  32
HETATM   32  C   UNL     1      -7.533  13.189  67.561  1.00  0.00    -0.160 C  
BRANCH  32  33
HETATM   33  C   UNL     1      -8.606  14.199  67.986  1.00  0.00    -0.172 C  
HETATM   34  H   UNL     1      -9.212  15.975  67.390  1.00  0.00     0.000 HD 
HETATM   35  O   UNL     1      -8.548  15.349  67.127  1.00  0.00    -0.179 OA 
BRANCH  33  36
HETATM   36  C   UNL     1     -10.002  13.556  67.932  1.00  0.00    -0.245 C  
HETATM   37  O   UNL     1     -10.642  13.579  69.206  1.00  0.00    -0.431 OA 
HETATM   38  H   UNL     1     -11.504  13.182  69.173  1.00  0.00     0.000 HD 
ENDBRANCH  33  36
ENDBRANCH  32  33
ENDBRANCH  31  32
ENDBRANCH  15  28
ENDBRANCH   5   8
BRANCH   6  39
HETATM   39  C   UNL     1      -8.548   4.928  64.268  1.00  0.00    -0.141 C  
HETATM   40  O   UNL     1      -8.628   3.564  64.669  1.00  0.00    -0.099 OA 
HETATM   41  H   UNL     1      -8.998   2.999  64.000  1.00  0.00     0.000 HD 
ENDBRANCH   6  39
ENDBRANCH   4   5
ENDBRANCH   3   4
TORSDOF 12
ENDMDL
MODEL       96
REMARK 921   NORMALIZED FREE ENERGY PREDICTED BY IDOCK:   -3.74 KCAL/MOL
REMARK 922        TOTAL FREE ENERGY PREDICTED BY IDOCK:   -6.63 KCAL/MOL
REMARK 923 INTER-LIGAND FREE ENERGY PREDICTED BY IDOCK:   -5.90 KCAL/MOL
REMARK 924 INTRA-LIGAND FREE ENERGY PREDICTED BY IDOCK:   -0.74 KCAL/MOL
REMARK 927      BINDING AFFINITY PREDICTED BY RF-SCORE:    0.00 PKD
ROOT
HETATM    1  O   UNL     1      -8.691   2.756  62.377  1.00  0.00    -0.074 OA 
HETATM    2  H   UNL     1      -8.988   3.008  61.510  1.00  0.00     0.000 HD 
HETATM    3  C   UNL     1      -9.380   3.482  63.385  1.00  0.00    -0.103 C  
ENDROOT
BRANCH   3   4
HETATM    4  C   UNL     1      -8.900   3.075  64.783  1.00  0.00    -0.113 C  
BRANCH   4   5
HETATM    5  N   UNL     1      -7.850   3.939  65.372  1.00  0.00    -0.088 N  
HETATM    6  C   UNL     1      -6.476   3.705  65.264  1.00  0.00    -0.036 C  
HETATM    7  O   UNL     1      -5.628   4.542  65.614  1.00  0.00    -0.016 OA 
BRANCH   5   8
HETATM    8  C   UNL     1      -8.267   5.210  65.912  1.00  0.00    -0.115 A  
HETATM    9  C   UNL     1      -8.202   6.399  65.133  1.00  0.00    -0.134 A  
HETATM   10  C   UNL     1      -8.672   5.298  67.265  1.00  0.00    -0.107 A  
HETATM   11  I   UNL     1      -7.643   6.233  63.033  1.00  0.00    -0.087 I  
HETATM   12  C   UNL     1      -8.569   7.663  65.675  1.00  0.00    -0.142 A  
HETATM   13  I   UNL     1      -8.273   3.631  68.593  1.00  0.00    -0.103 I  
HETATM   14  I   UNL     1     -10.122   9.488  67.705  1.00  0.00    -0.296 I  
HETATM   15  C   UNL     1      -9.211   6.500  67.774  1.00  0.00    -0.113 A  
HETATM   16  C   UNL     1      -9.162   7.682  66.969  1.00  0.00    -0.138 A  
BRANCH  12  17
HETATM   17  C   UNL     1      -8.134   8.908  64.940  1.00  0.00    -0.144 C  
HETATM   18  N   UNL     1      -9.024   9.547  64.110  1.00  0.00    -0.338 N  
HETATM   19  H   UNL     1      -9.927   9.112  63.920  1.00  0.00     0.000 HD 
HETATM   20  O   UNL     1      -6.999   9.342  65.107  1.00  0.00    -0.087 OA 
BRANCH  18  21
HETATM   21  C   UNL     1      -8.709  10.836  63.491  1.00  0.00    -0.106 C  
BRANCH  21  22
HETATM   22  C   UNL     1      -9.996  11.636  63.261  1.00  0.00    -0.419 C  
HETATM   23  O   UNL     1     -11.064  10.732  62.938  1.00  0.00    -0.478 OA 
HETATM   24  H   UNL     1     -11.861  11.228  62.796  1.00  0.00     0.000 HD 
BRANCH  22  25
HETATM   25  C   UNL     1     -10.375  12.501  64.472  1.00  0.00    -0.336 C  
HETATM   26  H   UNL     1     -11.459  12.313  66.112  1.00  0.00     0.000 HD 
HETATM   27  O   UNL     1     -11.225  11.778  65.363  1.00  0.00    -0.304 OA 
ENDBRANCH  22  25
ENDBRANCH  21  22
ENDBRANCH  18  21
ENDBRANCH  12  17
BRANCH  15  28
HETATM   28  C   UNL     1      -9.795   6.555  69.154  1.00  0.00    -0.144 C  
HETATM   29  O   UNL     1      -9.083   6.769  70.128  1.00  0.00    -0.154 OA 
HETATM   30  H   UNL     1     -11.745   6.199  68.460  1.00  0.00     0.000 HD 
HETATM   31  N   UNL     1     -11.164   6.365  69.281  1.00  0.00    -0.378 N  
BRANCH  31  32
HETATM   32  C   UNL     1     -11.755   6.409  70.614  1.00  0.00    -0.311 C  
BRANCH  32  33
HETATM   33  C   UNL     1     -12.196   7.816  71.036  1.00  0.00    -0.215 C  
HETATM   34  H   UNL     1     -13.902   8.728  71.407  1.00  0.00     0.000 HD 
HETATM   35  O   UNL     1     -13.628   7.857  71.145  1.00  0.00    -0.190 OA 
BRANCH  33  36
HETATM   36  C   UNL     1     -11.542   8.206  72.372  1.00  0.00    -0.399 C  
HETATM   37  O   UNL     1     -10.272   7.582  72.539  1.00  0.00    -0.202 OA 
HETATM   38  H   UNL     1      -9.868   7.823  73.365  1.00  0.00     0.000 HD 
ENDBRANCH  33  36
ENDBRANCH  32  33
ENDBRANCH  31  32
ENDBRANCH  15  28
ENDBRANCH   5   8
BRANCH   6  39
HETATM   39  C   UNL     1      -6.010   2.373  64.657  1.00  0.00    -0.018 C  
HETATM   40  O   UNL     1      -5.881   2.419  63.240  1.00  0.00    -0.009 OA 
HETATM   41  H   UNL     1      -5.592   1.594  62.865  1.00  0.00     0.000 HD 
ENDBRANCH   6  39
ENDBRANCH   4   5
ENDBRANCH   3   4
TORSDOF 12
ENDMDL
MODEL       97
REMARK 921   NORMALIZED FREE ENERGY PREDICTED BY IDOCK:   -3.71 KCAL/MOL
REMARK 922        TOTAL FREE ENERGY PREDICTED BY IDOCK:   -6.59 KCAL/MOL
REMARK 923 INTER-LIGAND FREE ENERGY PREDICTED BY IDOCK:   -7.30 KCAL/MOL
REMARK 924 INTRA-LIGAND FREE ENERGY PREDICTED BY IDOCK:    0.71 KCAL/MOL
REMARK 927      BINDING AFFINITY PREDICTED BY RF-SCORE:    0.00 PKD
ROOT
HETATM    1  O   UNL     1      -6.110  19.530  70.084  1.00  0.00    -0.262 OA 
HETATM    2  H   UNL     1      -5.496  20.252  70.022  1.00  0.00     0.000 HD 
HETATM    3  C   UNL     1      -5.670  18.416  69.322  1.00  0.00    -0.227 C  
ENDROOT
BRANCH   3   4
HETATM    4  C   UNL     1      -6.662  17.250  69.421  1.00  0.00    -0.193 C  
BRANCH   4   5
HETATM    5  N   UNL     1      -7.311  16.858  68.149  1.00  0.00    -0.173 N  
HETATM    6  C   UNL     1      -7.051  17.447  66.909  1.00  0.00    -0.194 C  
HETATM    7  O   UNL     1      -7.479  16.975  65.843  1.00  0.00    -0.296 OA 
BRANCH   5   8
HETATM    8  C   UNL     1      -8.108  15.656  68.158  1.00  0.00    -0.136 A  
HETATM    9  C   UNL     1      -9.526  15.712  68.269  1.00  0.00    -0.200 A  
HETATM   10  C   UNL     1      -7.472  14.392  68.137  1.00  0.00    -0.128 A  
HETATM   11  I   UNL     1     -10.492  17.665  68.230  1.00  0.00    -0.229 I  
HETATM   12  C   UNL     1     -10.314  14.528  68.323  1.00  0.00    -0.236 A  
HETATM   13  I   UNL     1      -5.338  14.283  68.503  1.00  0.00    -0.120 I  
HETATM   14  I   UNL     1     -10.824  11.482  67.752  1.00  0.00    -0.345 I  
HETATM   15  C   UNL     1      -8.233  13.210  68.008  1.00  0.00    -0.158 A  
HETATM   16  C   UNL     1      -9.659  13.285  68.096  1.00  0.00    -0.227 A  
BRANCH  12  17
HETATM   17  C   UNL     1     -11.740  14.641  68.808  1.00  0.00    -0.324 C  
HETATM   18  N   UNL     1     -11.986  14.781  70.154  1.00  0.00    -0.292 N  
HETATM   19  H   UNL     1     -11.211  14.699  70.812  1.00  0.00     0.000 HD 
HETATM   20  O   UNL     1     -12.658  14.625  67.995  1.00  0.00     0.130 OA 
BRANCH  18  21
HETATM   21  C   UNL     1     -13.331  15.046  70.666  1.00  0.00    -0.237 C  
BRANCH  21  22
HETATM   22  C   UNL     1     -13.305  15.121  72.197  1.00  0.00    -0.403 C  
HETATM   23  O   UNL     1     -13.953  13.960  72.738  1.00  0.00    -0.697 OA 
HETATM   24  H   UNL     1     -13.937  14.006  73.687  1.00  0.00     0.000 HD 
BRANCH  22  25
HETATM   25  C   UNL     1     -11.880  15.247  72.755  1.00  0.00    -0.415 C  
HETATM   26  H   UNL     1     -10.989  15.114  74.512  1.00  0.00     0.000 HD 
HETATM   27  O   UNL     1     -11.870  15.036  74.167  1.00  0.00    -0.412 OA 
ENDBRANCH  22  25
ENDBRANCH  21  22
ENDBRANCH  18  21
ENDBRANCH  12  17
BRANCH  15  28
HETATM   28  C   UNL     1      -7.561  11.882  67.817  1.00  0.00    -0.130 C  
HETATM   29  O   UNL     1      -7.226  11.206  68.782  1.00  0.00    -0.083 OA 
HETATM   30  H   UNL     1      -7.643  12.020  65.724  1.00  0.00     0.000 HD 
HETATM   31  N   UNL     1      -7.347  11.450  66.516  1.00  0.00    -0.106 N  
BRANCH  31  32
HETATM   32  C   UNL     1      -6.691  10.165  66.305  1.00  0.00    -0.102 C  
BRANCH  32  33
HETATM   33  C   UNL     1      -6.877   9.614  64.886  1.00  0.00    -0.109 C  
HETATM   34  H   UNL     1      -8.045   9.993  63.347  1.00  0.00     0.000 HD 
HETATM   35  O   UNL     1      -7.930  10.334  64.227  1.00  0.00    -0.160 OA 
BRANCH  33  36
HETATM   36  C   UNL     1      -5.566   9.727  64.090  1.00  0.00    -0.083 C  
HETATM   37  O   UNL     1      -5.336  11.060  63.640  1.00  0.00    -0.371 OA 
HETATM   38  H   UNL     1      -4.526  11.129  63.148  1.00  0.00     0.000 HD 
ENDBRANCH  33  36
ENDBRANCH  32  33
ENDBRANCH  31  32
ENDBRANCH  15  28
ENDBRANCH   5   8
BRANCH   6  39
HETATM   39  C   UNL     1      -6.174  18.708  66.871  1.00  0.00    -0.177 C  
HETATM   40  O   UNL     1      -6.912  19.896  66.604  1.00  0.00    -0.210 OA 
HETATM   41  H   UNL     1      -6.369  20.675  66.581  1.00  0.00     0.000 HD 
ENDBRANCH   6  39
ENDBRANCH   4   5
ENDBRANCH   3   4
TORSDOF 12
ENDMDL
MODEL       98
REMARK 921   NORMALIZED FREE ENERGY PREDICTED BY IDOCK:   -3.61 KCAL/MOL
REMARK 922        TOTAL FREE ENERGY PREDICTED BY IDOCK:   -6.43 KCAL/MOL
REMARK 923 INTER-LIGAND FREE ENERGY PREDICTED BY IDOCK:   -6.36 KCAL/MOL
REMARK 924 INTRA-LIGAND FREE ENERGY PREDICTED BY IDOCK:   -0.07 KCAL/MOL
REMARK 927      BINDING AFFINITY PREDICTED BY RF-SCORE:    0.00 PKD
ROOT
HETATM    1  O   UNL     1      -7.344  13.859  67.123  1.00  0.00    -0.333 OA 
HETATM    2  H   UNL     1      -7.133  14.607  66.577  1.00  0.00     0.000 HD 
HETATM    3  C   UNL     1      -8.694  13.908  67.559  1.00  0.00    -0.193 C  
ENDROOT
BRANCH   3   4
HETATM    4  C   UNL     1      -9.034  12.701  68.441  1.00  0.00    -0.125 C  
BRANCH   4   5
HETATM    5  N   UNL     1     -10.091  11.806  67.914  1.00  0.00    -0.182 N  
HETATM    6  C   UNL     1     -11.083  12.194  67.009  1.00  0.00    -0.294 C  
HETATM    7  O   UNL     1     -11.837  11.378  66.455  1.00  0.00    -0.352 OA 
BRANCH   5   8
HETATM    8  C   UNL     1      -9.963  10.397  68.194  1.00  0.00    -0.149 A  
HETATM    9  C   UNL     1      -9.243   9.535  67.321  1.00  0.00    -0.134 A  
HETATM   10  C   UNL     1     -10.629   9.840  69.312  1.00  0.00    -0.221 A  
HETATM   11  I   UNL     1      -8.167  10.419  65.645  1.00  0.00    -0.135 I  
HETATM   12  C   UNL     1      -9.152   8.136  67.568  1.00  0.00    -0.147 A  
HETATM   13  I   UNL     1     -12.139  11.017  70.330  1.00  0.00    -0.456 I  
HETATM   14  I   UNL     1      -9.205   5.621  69.449  1.00  0.00    -0.176 I  
HETATM   15  C   UNL     1     -10.408   8.496  69.681  1.00  0.00    -0.218 A  
HETATM   16  C   UNL     1      -9.661   7.647  68.804  1.00  0.00    -0.153 A  
BRANCH  12  17
HETATM   17  C   UNL     1      -8.707   7.239  66.437  1.00  0.00    -0.142 C  
HETATM   18  N   UNL     1      -7.386   6.867  66.351  1.00  0.00    -0.072 N  
HETATM   19  H   UNL     1      -6.709   7.287  66.988  1.00  0.00     0.000 HD 
HETATM   20  O   UNL     1      -9.532   6.840  65.622  1.00  0.00     0.170 OA 
BRANCH  18  21
HETATM   21  C   UNL     1      -6.926   5.883  65.370  1.00  0.00    -0.063 C  
BRANCH  21  22
HETATM   22  C   UNL     1      -7.067   4.467  65.940  1.00  0.00    -0.071 C  
HETATM   23  O   UNL     1      -8.406   3.998  65.716  1.00  0.00    -0.108 OA 
HETATM   24  H   UNL     1      -8.493   3.121  66.070  1.00  0.00     0.000 HD 
BRANCH  22  25
HETATM   25  C   UNL     1      -6.050   3.487  65.341  1.00  0.00    -0.023 C  
HETATM   26  H   UNL     1      -5.691   2.653  63.587  1.00  0.00     0.000 HD 
HETATM   27  O   UNL     1      -6.321   3.260  63.958  1.00  0.00    -0.022 OA 
ENDBRANCH  22  25
ENDBRANCH  21  22
ENDBRANCH  18  21
ENDBRANCH  12  17
BRANCH  15  28
HETATM   28  C   UNL     1     -10.977   7.946  70.955  1.00  0.00    -0.243 C  
HETATM   29  O   UNL     1     -12.063   7.378  70.962  1.00  0.00    -0.312 OA 
HETATM   30  H   UNL     1      -9.318   8.559  72.087  1.00  0.00     0.000 HD 
HETATM   31  N   UNL     1     -10.226   8.094  72.111  1.00  0.00    -0.237 N  
BRANCH  31  32
HETATM   32  C   UNL     1     -10.760   7.572  73.364  1.00  0.00    -0.332 C  
BRANCH  32  33
HETATM   33  C   UNL     1      -9.835   6.552  74.040  1.00  0.00    -0.273 C  
HETATM   34  H   UNL     1      -9.956   4.672  74.612  1.00  0.00     0.000 HD 
HETATM   35  O   UNL     1     -10.529   5.304  74.194  1.00  0.00    -0.259 OA 
BRANCH  33  36
HETATM   36  C   UNL     1      -8.553   6.359  73.213  1.00  0.00    -0.121 C  
HETATM   37  O   UNL     1      -7.505   7.218  73.657  1.00  0.00    -0.096 OA 
HETATM   38  H   UNL     1      -6.713   7.099  73.146  1.00  0.00     0.000 HD 
ENDBRANCH  33  36
ENDBRANCH  32  33
ENDBRANCH  31  32
ENDBRANCH  15  28
ENDBRANCH   5   8
BRANCH   6  39
HETATM   39  C   UNL     1     -11.213  13.687  66.668  1.00  0.00    -0.313 C  
HETATM   40  O   UNL     1     -12.272  14.330  67.369  1.00  0.00    -0.572 OA 
HETATM   41  H   UNL     1     -12.353  15.254  67.157  1.00  0.00     0.000 HD 
ENDBRANCH   6  39
ENDBRANCH   4   5
ENDBRANCH   3   4
TORSDOF 12
ENDMDL
MODEL       99
REMARK 921   NORMALIZED FREE ENERGY PREDICTED BY IDOCK:   -3.59 KCAL/MOL
REMARK 922        TOTAL FREE ENERGY PREDICTED BY IDOCK:   -6.39 KCAL/MOL
REMARK 923 INTER-LIGAND FREE ENERGY PREDICTED BY IDOCK:   -5.66 KCAL/MOL
REMARK 924 INTRA-LIGAND FREE ENERGY PREDICTED BY IDOCK:   -0.73 KCAL/MOL
REMARK 927      BINDING AFFINITY PREDICTED BY RF-SCORE:    0.00 PKD
ROOT
HETATM    1  O   UNL     1     -11.746   7.780  73.321  1.00  0.00    -0.659 OA 
HETATM    2  H   UNL     1     -12.086   8.614  73.624  1.00  0.00     0.000 HD 
HETATM    3  C   UNL     1     -11.108   7.915  72.060  1.00  0.00    -0.278 C  
ENDROOT
BRANCH   3   4
HETATM    4  C   UNL     1     -10.559   6.569  71.572  1.00  0.00    -0.229 C  
BRANCH   4   5
HETATM    5  N   UNL     1      -9.137   6.576  71.156  1.00  0.00    -0.152 N  
HETATM    6  C   UNL     1      -8.053   6.459  72.031  1.00  0.00    -0.108 C  
HETATM    7  O   UNL     1      -6.890   6.289  71.632  1.00  0.00    -0.061 OA 
BRANCH   5   8
HETATM    8  C   UNL     1      -8.862   6.488  69.743  1.00  0.00    -0.143 A  
HETATM    9  C   UNL     1      -8.742   5.229  69.092  1.00  0.00    -0.100 A  
HETATM   10  C   UNL     1      -8.626   7.670  69.000  1.00  0.00    -0.136 A  
HETATM   11  I   UNL     1      -9.177   3.426  70.235  1.00  0.00    -0.232 I  
HETATM   12  C   UNL     1      -8.426   5.136  67.707  1.00  0.00    -0.104 A  
HETATM   13  I   UNL     1      -8.280   9.528  70.062  1.00  0.00    -0.199 I  
HETATM   14  I   UNL     1      -8.332   6.272  64.780  1.00  0.00     0.174 I  
HETATM   15  C   UNL     1      -8.490   7.617  67.596  1.00  0.00    -0.117 A  
HETATM   16  C   UNL     1      -8.396   6.343  66.952  1.00  0.00    -0.110 A  
BRANCH  12  17
HETATM   17  C   UNL     1      -7.953   3.806  67.170  1.00  0.00    -0.091 C  
HETATM   18  N   UNL     1      -8.876   2.903  66.697  1.00  0.00    -0.139 N  
HETATM   19  H   UNL     1      -9.870   3.101  66.814  1.00  0.00     0.000 HD 
HETATM   20  O   UNL     1      -6.752   3.556  67.147  1.00  0.00    -0.044 OA 
BRANCH  18  21
HETATM   21  C   UNL     1      -8.468   1.666  66.030  1.00  0.00    -0.102 C  
BRANCH  21  22
HETATM   22  C   UNL     1      -9.138   1.566  64.655  1.00  0.00    -0.122 C  
HETATM   23  O   UNL     1     -10.090   2.632  64.514  1.00  0.00    -0.347 OA 
HETATM   24  H   UNL     1     -10.506   2.570  63.662  1.00  0.00     0.000 HD 
BRANCH  22  25
HETATM   25  C   UNL     1      -8.125   1.598  63.503  1.00  0.00    -0.061 C  
HETATM   26  H   UNL     1      -7.314   2.952  62.315  1.00  0.00     0.000 HD 
HETATM   27  O   UNL     1      -7.941   2.932  63.028  1.00  0.00    -0.067 OA 
ENDBRANCH  22  25
ENDBRANCH  21  22
ENDBRANCH  18  21
ENDBRANCH  12  17
BRANCH  15  28
HETATM   28  C   UNL     1      -8.407   8.876  66.785  1.00  0.00    -0.111 C  
HETATM   29  O   UNL     1      -7.340   9.244  66.308  1.00  0.00    -0.090 OA 
HETATM   30  H   UNL     1     -10.460   9.268  66.984  1.00  0.00     0.000 HD 
HETATM   31  N   UNL     1      -9.577   9.594  66.590  1.00  0.00    -0.175 N  
BRANCH  31  32
HETATM   32  C   UNL     1      -9.521  10.825  65.809  1.00  0.00    -0.204 C  
BRANCH  32  33
HETATM   33  C   UNL     1     -10.320  10.752  64.502  1.00  0.00    -0.331 C  
HETATM   34  H   UNL     1     -11.620  11.888  63.556  1.00  0.00     0.000 HD 
HETATM   35  O   UNL     1     -11.125  11.933  64.366  1.00  0.00    -0.306 OA 
BRANCH  33  36
HETATM   36  C   UNL     1      -9.372  10.603  63.300  1.00  0.00    -0.306 C  
HETATM   37  O   UNL     1      -8.911   9.262  63.154  1.00  0.00    -0.385 OA 
HETATM   38  H   UNL     1      -8.326   9.171  62.412  1.00  0.00     0.000 HD 
ENDBRANCH  33  36
ENDBRANCH  32  33
ENDBRANCH  31  32
ENDBRANCH  15  28
ENDBRANCH   5   8
BRANCH   6  39
HETATM   39  C   UNL     1      -8.328   6.512  73.542  1.00  0.00    -0.118 C  
HETATM   40  O   UNL     1      -8.536   7.835  74.026  1.00  0.00    -0.207 OA 
HETATM   41  H   UNL     1      -8.705   7.868  74.961  1.00  0.00     0.000 HD 
ENDBRANCH   6  39
ENDBRANCH   4   5
ENDBRANCH   3   4
TORSDOF 12
ENDMDL
MODEL      100
REMARK 921   NORMALIZED FREE ENERGY PREDICTED BY IDOCK:   -3.54 KCAL/MOL
REMARK 922        TOTAL FREE ENERGY PREDICTED BY IDOCK:   -6.30 KCAL/MOL
REMARK 923 INTER-LIGAND FREE ENERGY PREDICTED BY IDOCK:   -6.00 KCAL/MOL
REMARK 924 INTRA-LIGAND FREE ENERGY PREDICTED BY IDOCK:   -0.30 KCAL/MOL
REMARK 927      BINDING AFFINITY PREDICTED BY RF-SCORE:    0.00 PKD
ROOT
HETATM    1  O   UNL     1     -12.982  12.758  64.821  1.00  0.00    -0.768 OA 
HETATM    2  H   UNL     1     -13.046  12.855  63.878  1.00  0.00     0.000 HD 
HETATM    3  C   UNL     1     -11.666  12.395  65.211  1.00  0.00    -0.390 C  
ENDROOT
BRANCH   3   4
HETATM    4  C   UNL     1     -11.564  12.238  66.733  1.00  0.00    -0.369 C  
BRANCH   4   5
HETATM    5  N   UNL     1     -10.191  12.089  67.266  1.00  0.00    -0.203 N  
HETATM    6  C   UNL     1      -9.323  13.152  67.534  1.00  0.00    -0.207 C  
HETATM    7  O   UNL     1      -8.253  13.001  68.145  1.00  0.00    -0.142 OA 
BRANCH   5   8
HETATM    8  C   UNL     1      -9.801  10.781  67.731  1.00  0.00    -0.166 A  
HETATM    9  C   UNL     1      -8.957   9.942  66.950  1.00  0.00    -0.138 A  
HETATM   10  C   UNL     1     -10.325  10.283  68.948  1.00  0.00    -0.204 A  
HETATM   11  I   UNL     1      -8.104  10.750  65.116  1.00  0.00     0.294 I  
HETATM   12  C   UNL     1      -8.605   8.632  67.384  1.00  0.00    -0.134 A  
HETATM   13  I   UNL     1     -11.999  11.309  69.869  1.00  0.00    -0.427 I  
HETATM   14  I   UNL     1      -8.151   6.449  69.596  1.00  0.00    -0.128 I  
HETATM   15  C   UNL     1      -9.853   9.068  69.488  1.00  0.00    -0.181 A  
HETATM   16  C   UNL     1      -8.985   8.246  68.700  1.00  0.00    -0.137 A  
BRANCH  12  17
HETATM   17  C   UNL     1      -8.033   7.674  66.367  1.00  0.00    -0.107 C  
HETATM   18  N   UNL     1      -8.810   7.272  65.307  1.00  0.00    -0.367 N  
HETATM   19  H   UNL     1      -9.793   7.542  65.281  1.00  0.00     0.000 HD 
HETATM   20  O   UNL     1      -6.878   7.281  66.491  1.00  0.00    -0.058 OA 
BRANCH  18  21
HETATM   21  C   UNL     1      -8.262   6.467  64.213  1.00  0.00     0.013 C  
BRANCH  21  22
HETATM   22  C   UNL     1      -8.240   7.287  62.918  1.00  0.00     0.016 C  
HETATM   23  O   UNL     1      -9.205   8.346  63.012  1.00  0.00    -0.037 OA 
HETATM   24  H   UNL     1      -9.192   8.854  62.210  1.00  0.00     0.000 HD 
BRANCH  22  25
HETATM   25  C   UNL     1      -6.849   7.857  62.607  1.00  0.00    -0.085 C  
HETATM   26  H   UNL     1      -5.006   7.648  63.284  1.00  0.00     0.000 HD 
HETATM   27  O   UNL     1      -5.866   7.295  63.477  1.00  0.00    -0.039 OA 
ENDBRANCH  22  25
ENDBRANCH  21  22
ENDBRANCH  18  21
ENDBRANCH  12  17
BRANCH  15  28
HETATM   28  C   UNL     1     -10.279   8.617  70.853  1.00  0.00    -0.209 C  
HETATM   29  O   UNL     1      -9.728   9.054  71.857  1.00  0.00    -0.299 OA 
HETATM   30  H   UNL     1     -11.776   7.358  70.089  1.00  0.00     0.000 HD 
HETATM   31  N   UNL     1     -11.320   7.703  70.933  1.00  0.00    -0.273 N  
BRANCH  31  32
HETATM   32  C   UNL     1     -11.749   7.246  72.250  1.00  0.00    -0.265 C  
BRANCH  32  33
HETATM   33  C   UNL     1     -13.198   7.624  72.581  1.00  0.00     0.520 C  
HETATM   34  H   UNL     1     -14.135   9.195  73.310  1.00  0.00     0.000 HD 
HETATM   35  O   UNL     1     -13.237   8.960  73.105  1.00  0.00    -0.221 OA 
BRANCH  33  36
HETATM   36  C   UNL     1     -14.083   7.510  71.328  1.00  0.00    -0.285 C  
HETATM   37  O   UNL     1     -14.359   8.788  70.760  1.00  0.00    -0.553 OA 
HETATM   38  H   UNL     1     -14.906   8.717  69.986  1.00  0.00     0.000 HD 
ENDBRANCH  33  36
ENDBRANCH  32  33
ENDBRANCH  31  32
ENDBRANCH  15  28
ENDBRANCH   5   8
BRANCH   6  39
HETATM   39  C   UNL     1      -9.735  14.561  67.080  1.00  0.00    -0.240 C  
HETATM   40  O   UNL     1      -9.853  15.483  68.158  1.00  0.00    -0.214 OA 
HETATM   41  H   UNL     1     -10.108  16.355  67.877  1.00  0.00     0.000 HD 
ENDBRANCH   6  39
ENDBRANCH   4   5
ENDBRANCH   3   4
TORSDOF 12
ENDMDL
MODEL      101
REMARK 921   NORMALIZED FREE ENERGY PREDICTED BY IDOCK:   -3.53 KCAL/MOL
REMARK 922        TOTAL FREE ENERGY PREDICTED BY IDOCK:   -6.29 KCAL/MOL
REMARK 923 INTER-LIGAND FREE ENERGY PREDICTED BY IDOCK:   -5.53 KCAL/MOL
REMARK 924 INTRA-LIGAND FREE ENERGY PREDICTED BY IDOCK:   -0.76 KCAL/MOL
REMARK 927      BINDING AFFINITY PREDICTED BY RF-SCORE:    0.00 PKD
ROOT
HETATM    1  O   UNL     1      -7.866  13.685  67.058  1.00  0.00    -0.368 OA 
HETATM    2  H   UNL     1      -7.336  14.035  66.351  1.00  0.00     0.000 HD 
HETATM    3  C   UNL     1      -7.680  12.284  67.191  1.00  0.00    -0.134 C  
ENDROOT
BRANCH   3   4
HETATM    4  C   UNL     1      -8.536  11.719  68.332  1.00  0.00    -0.156 C  
BRANCH   4   5
HETATM    5  N   UNL     1      -9.431  10.598  67.961  1.00  0.00    -0.155 N  
HETATM    6  C   UNL     1     -10.652  10.742  67.295  1.00  0.00    -0.257 C  
HETATM    7  O   UNL     1     -11.284   9.774  66.845  1.00  0.00     0.080 OA 
BRANCH   5   8
HETATM    8  C   UNL     1      -8.911   9.261  68.112  1.00  0.00    -0.128 A  
HETATM    9  C   UNL     1      -8.296   8.582  67.024  1.00  0.00    -0.110 A  
HETATM   10  C   UNL     1      -9.084   8.576  69.339  1.00  0.00    -0.150 A  
HETATM   11  I   UNL     1      -7.978   9.675  65.166  1.00  0.00    -0.148 I  
HETATM   12  C   UNL     1      -7.823   7.245  67.155  1.00  0.00    -0.110 A  
HETATM   13  I   UNL     1     -10.464   9.378  70.806  1.00  0.00    -0.362 I  
HETATM   14  I   UNL     1      -6.761   4.809  68.828  1.00  0.00    -0.053 I  
HETATM   15  C   UNL     1      -8.467   7.325  69.552  1.00  0.00    -0.133 A  
HETATM   16  C   UNL     1      -7.830   6.664  68.454  1.00  0.00    -0.107 A  
BRANCH  12  17
HETATM   17  C   UNL     1      -7.530   6.465  65.895  1.00  0.00    -0.082 C  
HETATM   18  N   UNL     1      -8.568   5.887  65.203  1.00  0.00    -0.264 N  
HETATM   19  H   UNL     1      -9.504   5.902  65.608  1.00  0.00     0.000 HD 
HETATM   20  O   UNL     1      -6.374   6.373  65.496  1.00  0.00    -0.036 OA 
BRANCH  18  21
HETATM   21  C   UNL     1      -8.364   5.250  63.901  1.00  0.00    -0.122 C  
BRANCH  21  22
HETATM   22  C   UNL     1      -8.247   3.732  64.072  1.00  0.00    -0.090 C  
HETATM   23  O   UNL     1      -6.970   3.417  64.648  1.00  0.00    -0.050 OA 
HETATM   24  H   UNL     1      -6.898   2.476  64.754  1.00  0.00     0.000 HD 
BRANCH  22  25
HETATM   25  C   UNL     1      -9.379   3.147  64.929  1.00  0.00    -0.149 C  
HETATM   26  H   UNL     1     -11.328   3.393  65.129  1.00  0.00     0.000 HD 
HETATM   27  O   UNL     1     -10.628   3.755  64.599  1.00  0.00    -0.194 OA 
ENDBRANCH  22  25
ENDBRANCH  21  22
ENDBRANCH  18  21
ENDBRANCH  12  17
BRANCH  15  28
HETATM   28  C   UNL     1      -8.505   6.671  70.902  1.00  0.00    -0.133 C  
HETATM   29  O   UNL     1      -7.669   6.946  71.754  1.00  0.00    -0.093 OA 
HETATM   30  H   UNL     1     -10.216   5.550  70.430  1.00  0.00     0.000 HD 
HETATM   31  N   UNL     1      -9.522   5.759  71.146  1.00  0.00    -0.156 N  
BRANCH  31  32
HETATM   32  C   UNL     1      -9.577   5.106  72.449  1.00  0.00    -0.148 C  
BRANCH  32  33
HETATM   33  C   UNL     1     -10.955   5.196  73.115  1.00  0.00    -0.307 C  
HETATM   34  H   UNL     1     -12.695   6.019  72.696  1.00  0.00     0.000 HD 
HETATM   35  O   UNL     1     -11.840   5.963  72.284  1.00  0.00    -0.303 OA 
BRANCH  33  36
HETATM   36  C   UNL     1     -11.528   3.789  73.357  1.00  0.00    -0.063 C  
HETATM   37  O   UNL     1     -10.752   3.060  74.305  1.00  0.00    -0.178 OA 
HETATM   38  H   UNL     1     -11.105   2.191  74.455  1.00  0.00     0.000 HD 
ENDBRANCH  33  36
ENDBRANCH  32  33
ENDBRANCH  31  32
ENDBRANCH  15  28
ENDBRANCH   5   8
BRANCH   6  39
HETATM   39  C   UNL     1     -11.206  12.160  67.090  1.00  0.00    -0.314 C  
HETATM   40  O   UNL     1     -11.985  12.290  65.906  1.00  0.00    -0.555 OA 
HETATM   41  H   UNL     1     -12.328  13.168  65.779  1.00  0.00     0.000 HD 
ENDBRANCH   6  39
ENDBRANCH   4   5
ENDBRANCH   3   4
TORSDOF 12
ENDMDL
MODEL      102
REMARK 921   NORMALIZED FREE ENERGY PREDICTED BY IDOCK:   -3.50 KCAL/MOL
REMARK 922        TOTAL FREE ENERGY PREDICTED BY IDOCK:   -6.23 KCAL/MOL
REMARK 923 INTER-LIGAND FREE ENERGY PREDICTED BY IDOCK:   -6.37 KCAL/MOL
REMARK 924 INTRA-LIGAND FREE ENERGY PREDICTED BY IDOCK:    0.13 KCAL/MOL
REMARK 927      BINDING AFFINITY PREDICTED BY RF-SCORE:    0.00 PKD
ROOT
HETATM    1  O   UNL     1     -13.583  11.554  72.379  1.00  0.00    -0.544 OA 
HETATM    2  H   UNL     1     -14.307  12.049  72.017  1.00  0.00     0.000 HD 
HETATM    3  C   UNL     1     -13.727  10.167  72.115  1.00  0.00    -0.088 C  
ENDROOT
BRANCH   3   4
HETATM    4  C   UNL     1     -12.557   9.367  72.701  1.00  0.00     0.014 C  
BRANCH   4   5
HETATM    5  N   UNL     1     -11.916   8.407  71.774  1.00  0.00    -0.304 N  
HETATM    6  C   UNL     1     -12.604   7.460  71.009  1.00  0.00    -0.226 C  
HETATM    7  O   UNL     1     -12.053   6.797  70.115  1.00  0.00    -0.289 OA 
BRANCH   5   8
HETATM    8  C   UNL     1     -10.515   8.598  71.488  1.00  0.00    -0.274 A  
HETATM    9  C   UNL     1     -10.087   9.488  70.463  1.00  0.00    -0.285 A  
HETATM   10  C   UNL     1      -9.546   7.833  72.180  1.00  0.00    -0.176 A  
HETATM   11  I   UNL     1     -11.586  10.708  69.457  1.00  0.00    -0.340 I  
HETATM   12  C   UNL     1      -8.708   9.648  70.147  1.00  0.00    -0.263 A  
HETATM   13  I   UNL     1     -10.193   6.121  73.342  1.00  0.00    -0.312 I  
HETATM   14  I   UNL     1      -5.648   9.530  70.847  1.00  0.00    -0.073 I  
HETATM   15  C   UNL     1      -8.170   8.101  72.015  1.00  0.00    -0.192 A  
HETATM   16  C   UNL     1      -7.756   9.017  70.997  1.00  0.00    -0.125 A  
BRANCH  12  17
HETATM   17  C   UNL     1      -8.348  10.302  68.834  1.00  0.00    -0.136 C  
HETATM   18  N   UNL     1      -7.875  11.593  68.831  1.00  0.00    -0.295 N  
HETATM   19  H   UNL     1      -7.876  12.124  69.702  1.00  0.00     0.000 HD 
HETATM   20  O   UNL     1      -8.466   9.668  67.791  1.00  0.00    -0.124 OA 
BRANCH  18  21
HETATM   21  C   UNL     1      -7.370  12.224  67.610  1.00  0.00    -0.127 C  
BRANCH  21  22
HETATM   22  C   UNL     1      -8.493  13.007  66.921  1.00  0.00    -0.078 C  
HETATM   23  O   UNL     1      -9.017  12.226  65.836  1.00  0.00    -0.424 OA 
HETATM   24  H   UNL     1      -9.713  12.712  65.409  1.00  0.00     0.000 HD 
BRANCH  22  25
HETATM   25  C   UNL     1      -9.617  13.399  67.890  1.00  0.00    -0.216 C  
HETATM   26  H   UNL     1     -10.701  15.000  68.291  1.00  0.00     0.000 HD 
HETATM   27  O   UNL     1     -10.005  14.758  67.692  1.00  0.00    -0.225 OA 
ENDBRANCH  22  25
ENDBRANCH  21  22
ENDBRANCH  18  21
ENDBRANCH  12  17
BRANCH  15  28
HETATM   28  C   UNL     1      -7.146   7.411  72.866  1.00  0.00    -0.069 C  
HETATM   29  O   UNL     1      -6.843   7.858  73.966  1.00  0.00    -0.097 OA 
HETATM   30  H   UNL     1      -6.842   5.887  71.455  1.00  0.00     0.000 HD 
HETATM   31  N   UNL     1      -6.570   6.252  72.367  1.00  0.00    -0.065 N  
BRANCH  31  32
HETATM   32  C   UNL     1      -5.568   5.566  73.175  1.00  0.00    -0.023 C  
BRANCH  32  33
HETATM   33  C   UNL     1      -5.984   4.146  73.580  1.00  0.00    -0.012 C  
HETATM   34  H   UNL     1      -7.587   3.286  74.333  1.00  0.00     0.000 HD 
HETATM   35  O   UNL     1      -7.329   4.165  74.082  1.00  0.00    -0.065 OA 
BRANCH  33  36
HETATM   36  C   UNL     1      -5.869   3.190  72.381  1.00  0.00    -0.008 C  
HETATM   37  O   UNL     1      -5.578   1.857  72.796  1.00  0.00     0.000 OA 
HETATM   38  H   UNL     1      -5.507   1.267  72.055  1.00  0.00     0.000 HD 
ENDBRANCH  33  36
ENDBRANCH  32  33
ENDBRANCH  31  32
ENDBRANCH  15  28
ENDBRANCH   5   8
BRANCH   6  39
HETATM   39  C   UNL     1     -14.105   7.265  71.270  1.00  0.00    -0.223 C  
HETATM   40  O   UNL     1     -14.374   6.501  72.442  1.00  0.00    -0.701 OA 
HETATM   41  H   UNL     1     -15.303   6.380  72.603  1.00  0.00     0.000 HD 
ENDBRANCH   6  39
ENDBRANCH   4   5
ENDBRANCH   3   4
TORSDOF 12
ENDMDL
MODEL      103
REMARK 921   NORMALIZED FREE ENERGY PREDICTED BY IDOCK:   -3.48 KCAL/MOL
REMARK 922        TOTAL FREE ENERGY PREDICTED BY IDOCK:   -6.20 KCAL/MOL
REMARK 923 INTER-LIGAND FREE ENERGY PREDICTED BY IDOCK:   -5.27 KCAL/MOL
REMARK 924 INTRA-LIGAND FREE ENERGY PREDICTED BY IDOCK:   -0.93 KCAL/MOL
REMARK 927      BINDING AFFINITY PREDICTED BY RF-SCORE:    0.00 PKD
ROOT
HETATM    1  O   UNL     1     -11.786  13.342  66.134  1.00  0.00    -0.348 OA 
HETATM    2  H   UNL     1     -12.387  13.879  66.637  1.00  0.00     0.000 HD 
HETATM    3  C   UNL     1     -11.001  12.518  66.983  1.00  0.00    -0.267 C  
ENDROOT
BRANCH   3   4
HETATM    4  C   UNL     1     -10.030  11.653  66.170  1.00  0.00    -0.221 C  
BRANCH   4   5
HETATM    5  N   UNL     1      -8.984  10.960  66.957  1.00  0.00    -0.142 N  
HETATM    6  C   UNL     1      -8.084  11.597  67.817  1.00  0.00    -0.139 C  
HETATM    7  O   UNL     1      -7.345  10.969  68.591  1.00  0.00    -0.088 OA 
BRANCH   5   8
HETATM    8  C   UNL     1      -9.033   9.519  66.996  1.00  0.00    -0.134 A  
HETATM    9  C   UNL     1      -9.776   8.834  67.997  1.00  0.00    -0.157 A  
HETATM   10  C   UNL     1      -8.267   8.766  66.075  1.00  0.00    -0.118 A  
HETATM   11  I   UNL     1     -11.004  10.007  69.362  1.00  0.00    -0.248 I  
HETATM   12  C   UNL     1      -9.791   7.412  68.067  1.00  0.00    -0.172 A  
HETATM   13  I   UNL     1      -6.739   9.770  64.909  1.00  0.00    -0.127 I  
HETATM   14  I   UNL     1      -9.500   4.549  66.810  1.00  0.00    -0.243 I  
HETATM   15  C   UNL     1      -8.405   7.363  66.007  1.00  0.00    -0.143 A  
HETATM   16  C   UNL     1      -9.176   6.690  67.007  1.00  0.00    -0.135 A  
BRANCH  12  17
HETATM   17  C   UNL     1     -10.277   6.766  69.343  1.00  0.00    -0.187 C  
HETATM   18  N   UNL     1      -9.377   6.490  70.345  1.00  0.00    -0.162 N  
HETATM   19  H   UNL     1      -8.381   6.627  70.170  1.00  0.00     0.000 HD 
HETATM   20  O   UNL     1     -11.470   6.512  69.476  1.00  0.00    -0.371 OA 
BRANCH  18  21
HETATM   21  C   UNL     1      -9.810   6.006  71.657  1.00  0.00    -0.170 C  
BRANCH  21  22
HETATM   22  C   UNL     1      -8.892   6.561  72.751  1.00  0.00    -0.123 C  
HETATM   23  O   UNL     1      -7.540   6.585  72.267  1.00  0.00    -0.094 OA 
HETATM   24  H   UNL     1      -6.971   6.929  72.945  1.00  0.00     0.000 HD 
BRANCH  22  25
HETATM   25  C   UNL     1      -9.316   7.959  73.222  1.00  0.00    -0.286 C  
HETATM   26  H   UNL     1     -10.806   9.214  72.896  1.00  0.00     0.000 HD 
HETATM   27  O   UNL     1     -10.543   8.349  72.604  1.00  0.00    -0.332 OA 
ENDBRANCH  22  25
ENDBRANCH  21  22
ENDBRANCH  18  21
ENDBRANCH  12  17
BRANCH  15  28
HETATM   28  C   UNL     1      -7.725   6.576  64.926  1.00  0.00    -0.105 C  
HETATM   29  O   UNL     1      -8.217   6.495  63.807  1.00  0.00    -0.059 OA 
HETATM   30  H   UNL     1      -6.121   6.046  66.172  1.00  0.00     0.000 HD 
HETATM   31  N   UNL     1      -6.522   5.959  65.239  1.00  0.00    -0.041 N  
BRANCH  31  32
HETATM   32  C   UNL     1      -5.845   5.184  64.206  1.00  0.00    -0.017 C  
BRANCH  32  33
HETATM   33  C   UNL     1      -5.857   3.674  64.475  1.00  0.00    -0.018 C  
HETATM   34  H   UNL     1      -5.872   2.504  66.058  1.00  0.00     0.000 HD 
HETATM   35  O   UNL     1      -5.864   3.439  65.891  1.00  0.00    -0.018 OA 
BRANCH  33  36
HETATM   36  C   UNL     1      -7.081   3.020  63.813  1.00  0.00    -0.049 C  
HETATM   37  O   UNL     1      -7.592   3.817  62.747  1.00  0.00    -0.055 OA 
HETATM   38  H   UNL     1      -8.349   3.413  62.338  1.00  0.00     0.000 HD 
ENDBRANCH  33  36
ENDBRANCH  32  33
ENDBRANCH  31  32
ENDBRANCH  15  28
ENDBRANCH   5   8
BRANCH   6  39
HETATM   39  C   UNL     1      -8.041  13.133  67.819  1.00  0.00    -0.165 C  
HETATM   40  O   UNL     1      -8.150  13.693  69.123  1.00  0.00    -0.335 OA 
HETATM   41  H   UNL     1      -8.123  14.644  69.124  1.00  0.00     0.000 HD 
ENDBRANCH   6  39
ENDBRANCH   4   5
ENDBRANCH   3   4
TORSDOF 12
ENDMDL
MODEL      104
REMARK 921   NORMALIZED FREE ENERGY PREDICTED BY IDOCK:   -3.47 KCAL/MOL
REMARK 922        TOTAL FREE ENERGY PREDICTED BY IDOCK:   -6.18 KCAL/MOL
REMARK 923 INTER-LIGAND FREE ENERGY PREDICTED BY IDOCK:   -6.87 KCAL/MOL
REMARK 924 INTRA-LIGAND FREE ENERGY PREDICTED BY IDOCK:    0.68 KCAL/MOL
REMARK 927      BINDING AFFINITY PREDICTED BY RF-SCORE:    0.00 PKD
ROOT
HETATM    1  O   UNL     1      -8.977  15.818  67.893  1.00  0.00    -0.179 OA 
HETATM    2  H   UNL     1      -9.179  16.707  67.625  1.00  0.00     0.000 HD 
HETATM    3  C   UNL     1      -9.142  14.909  66.815  1.00  0.00    -0.270 C  
ENDROOT
BRANCH   3   4
HETATM    4  C   UNL     1      -8.816  13.474  67.248  1.00  0.00    -0.224 C  
BRANCH   4   5
HETATM    5  N   UNL     1      -9.876  12.474  66.985  1.00  0.00    -0.213 N  
HETATM    6  C   UNL     1     -10.407  12.193  65.722  1.00  0.00    -0.258 C  
HETATM    7  O   UNL     1     -11.161  11.228  65.516  1.00  0.00    -0.148 OA 
BRANCH   5   8
HETATM    8  C   UNL     1     -10.235  11.591  68.067  1.00  0.00    -0.191 A  
HETATM    9  C   UNL     1     -11.307  11.904  68.949  1.00  0.00    -0.278 A  
HETATM   10  C   UNL     1      -9.462  10.430  68.312  1.00  0.00    -0.148 A  
HETATM   11  I   UNL     1     -12.528  13.655  68.516  1.00  0.00     1.250 I  
HETATM   12  C   UNL     1     -11.637  11.058  70.046  1.00  0.00    -0.427 A  
HETATM   13  I   UNL     1      -7.540  10.221  67.331  1.00  0.00    -0.095 I  
HETATM   14  I   UNL     1     -11.689   8.285  71.519  1.00  0.00    -0.420 I  
HETATM   15  C   UNL     1      -9.876   9.485  69.275  1.00  0.00    -0.184 A  
HETATM   16  C   UNL     1     -10.971   9.804  70.139  1.00  0.00    -0.291 A  
BRANCH  12  17
HETATM   17  C   UNL     1     -12.516  11.618  71.139  1.00  0.00    -0.307 C  
HETATM   18  N   UNL     1     -12.353  12.925  71.531  1.00  0.00    -0.161 N  
HETATM   19  H   UNL     1     -11.573  13.464  71.155  1.00  0.00     0.000 HD 
HETATM   20  O   UNL     1     -13.373  10.905  71.649  1.00  0.00    -0.363 OA 
BRANCH  18  21
HETATM   21  C   UNL     1     -13.271  13.565  72.476  1.00  0.00    -0.448 C  
BRANCH  21  22
HETATM   22  C   UNL     1     -12.677  14.887  72.972  1.00  0.00    -0.459 C  
HETATM   23  O   UNL     1     -12.246  14.730  74.333  1.00  0.00    -0.694 OA 
HETATM   24  H   UNL     1     -11.877  15.550  74.641  1.00  0.00     0.000 HD 
BRANCH  22  25
HETATM   25  C   UNL     1     -11.514  15.375  72.097  1.00  0.00    -0.433 C  
HETATM   26  H   UNL     1     -10.935  17.067  71.258  1.00  0.00     0.000 HD 
HETATM   27  O   UNL     1     -11.654  16.765  71.800  1.00  0.00    -0.242 OA 
ENDBRANCH  22  25
ENDBRANCH  21  22
ENDBRANCH  18  21
ENDBRANCH  12  17
BRANCH  15  28
HETATM   28  C   UNL     1      -9.157   8.177  69.424  1.00  0.00    -0.148 C  
HETATM   29  O   UNL     1      -8.256   8.048  70.244  1.00  0.00    -0.118 OA 
HETATM   30  H   UNL     1     -10.319   7.247  67.943  1.00  0.00     0.000 HD 
HETATM   31  N   UNL     1      -9.559   7.126  68.612  1.00  0.00    -0.140 N  
BRANCH  31  32
HETATM   32  C   UNL     1      -8.872   5.846  68.735  1.00  0.00    -0.111 C  
BRANCH  32  33
HETATM   33  C   UNL     1      -9.229   4.856  67.619  1.00  0.00    -0.124 C  
HETATM   34  H   UNL     1     -10.592   4.728  66.204  1.00  0.00     0.000 HD 
HETATM   35  O   UNL     1     -10.371   5.340  66.896  1.00  0.00    -0.216 OA 
BRANCH  33  36
HETATM   36  C   UNL     1      -8.033   4.662  66.671  1.00  0.00    -0.103 C  
HETATM   37  O   UNL     1      -7.173   3.615  67.115  1.00  0.00    -0.062 OA 
HETATM   38  H   UNL     1      -6.435   3.495  66.529  1.00  0.00     0.000 HD 
ENDBRANCH  33  36
ENDBRANCH  32  33
ENDBRANCH  31  32
ENDBRANCH  15  28
ENDBRANCH   5   8
BRANCH   6  39
HETATM   39  C   UNL     1     -10.009  13.098  64.547  1.00  0.00    -0.110 C  
HETATM   40  O   UNL     1     -11.124  13.729  63.925  1.00  0.00    -0.553 OA 
HETATM   41  H   UNL     1     -10.878  14.289  63.197  1.00  0.00     0.000 HD 
ENDBRANCH   6  39
ENDBRANCH   4   5
ENDBRANCH   3   4
TORSDOF 12
ENDMDL
MODEL      105
REMARK 921   NORMALIZED FREE ENERGY PREDICTED BY IDOCK:   -3.47 KCAL/MOL
REMARK 922        TOTAL FREE ENERGY PREDICTED BY IDOCK:   -6.17 KCAL/MOL
REMARK 923 INTER-LIGAND FREE ENERGY PREDICTED BY IDOCK:   -5.92 KCAL/MOL
REMARK 924 INTRA-LIGAND FREE ENERGY PREDICTED BY IDOCK:   -0.25 KCAL/MOL
REMARK 927      BINDING AFFINITY PREDICTED BY RF-SCORE:    0.00 PKD
ROOT
HETATM    1  O   UNL     1      -7.732   8.923  73.857  1.00  0.00    -0.401 OA 
HETATM    2  H   UNL     1      -7.426   9.150  74.727  1.00  0.00     0.000 HD 
HETATM    3  C   UNL     1      -8.231   7.594  73.820  1.00  0.00    -0.178 C  
ENDROOT
BRANCH   3   4
HETATM    4  C   UNL     1      -8.724   7.227  72.415  1.00  0.00    -0.119 C  
BRANCH   4   5
HETATM    5  N   UNL     1      -7.665   6.876  71.441  1.00  0.00    -0.091 N  
HETATM    6  C   UNL     1      -6.532   6.114  71.739  1.00  0.00    -0.054 C  
HETATM    7  O   UNL     1      -5.763   5.691  70.862  1.00  0.00    -0.015 OA 
BRANCH   5   8
HETATM    8  C   UNL     1      -7.924   7.163  70.052  1.00  0.00    -0.118 A  
HETATM    9  C   UNL     1      -7.511   8.392  69.464  1.00  0.00    -0.088 A  
HETATM   10  C   UNL     1      -8.671   6.248  69.273  1.00  0.00    -0.124 A  
HETATM   11  I   UNL     1      -6.303   9.757  70.657  1.00  0.00    -0.046 I  
HETATM   12  C   UNL     1      -7.803   8.700  68.105  1.00  0.00    -0.103 A  
HETATM   13  I   UNL     1      -9.748   4.652  70.271  1.00  0.00    -0.290 I  
HETATM   14  I   UNL     1      -8.476   7.905  65.142  1.00  0.00     0.108 I  
HETATM   15  C   UNL     1      -8.818   6.443  67.883  1.00  0.00    -0.113 A  
HETATM   16  C   UNL     1      -8.376   7.674  67.301  1.00  0.00    -0.115 A  
BRANCH  12  17
HETATM   17  C   UNL     1      -7.675  10.136  67.655  1.00  0.00    -0.091 C  
HETATM   18  N   UNL     1      -8.769  10.966  67.728  1.00  0.00    -0.127 N  
HETATM   19  H   UNL     1      -9.675  10.572  67.982  1.00  0.00     0.000 HD 
HETATM   20  O   UNL     1      -6.593  10.547  67.248  1.00  0.00    -0.069 OA 
BRANCH  18  21
HETATM   21  C   UNL     1      -8.666  12.399  67.450  1.00  0.00    -0.183 C  
BRANCH  21  22
HETATM   22  C   UNL     1      -9.996  12.924  66.898  1.00  0.00    -0.238 C  
HETATM   23  O   UNL     1      -9.778  13.491  65.597  1.00  0.00    -0.456 OA 
HETATM   24  H   UNL     1     -10.603  13.816  65.255  1.00  0.00     0.000 HD 
BRANCH  22  25
HETATM   25  C   UNL     1     -11.076  11.835  66.833  1.00  0.00    -0.307 C  
HETATM   26  H   UNL     1     -12.898  11.634  66.098  1.00  0.00     0.000 HD 
HETATM   27  O   UNL     1     -12.230  12.308  66.138  1.00  0.00    -0.647 OA 
ENDBRANCH  22  25
ENDBRANCH  21  22
ENDBRANCH  18  21
ENDBRANCH  12  17
BRANCH  15  28
HETATM   28  C   UNL     1      -9.464   5.396  67.024  1.00  0.00    -0.132 C  
HETATM   29  O   UNL     1     -10.668   5.427  66.799  1.00  0.00    -0.284 OA 
HETATM   30  H   UNL     1      -7.646   4.404  66.680  1.00  0.00     0.000 HD 
HETATM   31  N   UNL     1      -8.648   4.408  66.492  1.00  0.00    -0.112 N  
BRANCH  31  32
HETATM   32  C   UNL     1      -9.253   3.376  65.659  1.00  0.00    -0.154 C  
BRANCH  32  33
HETATM   33  C   UNL     1      -9.279   3.738  64.168  1.00  0.00    -0.140 C  
HETATM   34  H   UNL     1      -8.454   3.053  62.517  1.00  0.00     0.000 HD 
HETATM   35  O   UNL     1      -8.438   2.829  63.440  1.00  0.00    -0.085 OA 
BRANCH  33  36
HETATM   36  C   UNL     1     -10.718   3.690  63.629  1.00  0.00    -0.251 C  
HETATM   37  O   UNL     1     -11.649   4.232  64.563  1.00  0.00    -0.798 OA 
HETATM   38  H   UNL     1     -12.539   4.202  64.229  1.00  0.00     0.000 HD 
ENDBRANCH  33  36
ENDBRANCH  32  33
ENDBRANCH  31  32
ENDBRANCH  15  28
ENDBRANCH   5   8
BRANCH   6  39
HETATM   39  C   UNL     1      -6.256   5.764  73.210  1.00  0.00    -0.058 C  
HETATM   40  O   UNL     1      -6.614   4.427  73.543  1.00  0.00    -0.048 OA 
HETATM   41  H   UNL     1      -6.443   4.211  74.453  1.00  0.00     0.000 HD 
ENDBRANCH   6  39
ENDBRANCH   4   5
ENDBRANCH   3   4
TORSDOF 12
ENDMDL
MODEL      106
REMARK 921   NORMALIZED FREE ENERGY PREDICTED BY IDOCK:   -3.46 KCAL/MOL
REMARK 922        TOTAL FREE ENERGY PREDICTED BY IDOCK:   -6.17 KCAL/MOL
REMARK 923 INTER-LIGAND FREE ENERGY PREDICTED BY IDOCK:   -5.79 KCAL/MOL
REMARK 924 INTRA-LIGAND FREE ENERGY PREDICTED BY IDOCK:   -0.38 KCAL/MOL
REMARK 927      BINDING AFFINITY PREDICTED BY RF-SCORE:    0.00 PKD
ROOT
HETATM    1  O   UNL     1      -6.055  18.256  64.914  1.00  0.00    -0.235 OA 
HETATM    2  H   UNL     1      -5.858  17.848  64.080  1.00  0.00     0.000 HD 
HETATM    3  C   UNL     1      -6.578  17.312  65.836  1.00  0.00     0.078 C  
ENDROOT
BRANCH   3   4
HETATM    4  C   UNL     1      -6.896  17.971  67.183  1.00  0.00    -0.187 C  
BRANCH   4   5
HETATM    5  N   UNL     1      -6.869  17.067  68.356  1.00  0.00    -0.163 N  
HETATM    6  C   UNL     1      -6.129  17.296  69.520  1.00  0.00    -0.247 C  
HETATM    7  O   UNL     1      -6.270  16.612  70.545  1.00  0.00     0.131 OA 
BRANCH   5   8
HETATM    8  C   UNL     1      -7.827  15.988  68.381  1.00  0.00    -0.149 A  
HETATM    9  C   UNL     1      -7.434  14.648  68.108  1.00  0.00    -0.123 A  
HETATM   10  C   UNL     1      -9.196  16.271  68.602  1.00  0.00    -0.227 A  
HETATM   11  I   UNL     1      -5.314  14.223  67.840  1.00  0.00     0.130 I  
HETATM   12  C   UNL     1      -8.383  13.587  68.087  1.00  0.00    -0.167 A  
HETATM   13  I   UNL     1      -9.878  18.326  68.489  1.00  0.00    -0.384 I  
HETATM   14  I   UNL     1     -11.109  12.258  68.906  1.00  0.00    -0.251 I  
HETATM   15  C   UNL     1     -10.126  15.221  68.766  1.00  0.00    -0.219 A  
HETATM   16  C   UNL     1      -9.710  13.876  68.511  1.00  0.00    -0.202 A  
BRANCH  12  17
HETATM   17  C   UNL     1      -7.981  12.283  67.438  1.00  0.00    -0.171 C  
HETATM   18  N   UNL     1      -7.623  11.218  68.230  1.00  0.00    -0.107 N  
HETATM   19  H   UNL     1      -7.531  11.355  69.236  1.00  0.00     0.000 HD 
HETATM   20  O   UNL     1      -7.997  12.188  66.215  1.00  0.00     0.168 OA 
BRANCH  18  21
HETATM   21  C   UNL     1      -7.371   9.891  67.665  1.00  0.00    -0.090 C  
BRANCH  21  22
HETATM   22  C   UNL     1      -7.933   8.810  68.594  1.00  0.00    -0.107 C  
HETATM   23  O   UNL     1      -8.260   9.399  69.862  1.00  0.00    -0.114 OA 
HETATM   24  H   UNL     1      -8.608   8.729  70.438  1.00  0.00     0.000 HD 
BRANCH  22  25
HETATM   25  C   UNL     1      -9.160   8.104  68.001  1.00  0.00    -0.133 C  
HETATM   26  H   UNL     1     -10.799   7.226  68.668  1.00  0.00     0.000 HD 
HETATM   27  O   UNL     1     -10.039   7.663  69.035  1.00  0.00    -0.187 OA 
ENDBRANCH  22  25
ENDBRANCH  21  22
ENDBRANCH  18  21
ENDBRANCH  12  17
BRANCH  15  28
HETATM   28  C   UNL     1     -11.543  15.507  69.164  1.00  0.00    -0.362 C  
HETATM   29  O   UNL     1     -12.372  15.846  68.328  1.00  0.00     0.257 OA 
HETATM   30  H   UNL     1     -11.178  15.068  71.184  1.00  0.00     0.000 HD 
HETATM   31  N   UNL     1     -11.877  15.363  70.503  1.00  0.00    -0.308 N  
BRANCH  31  32
HETATM   32  C   UNL     1     -13.248  15.640  70.915  1.00  0.00    -0.296 C  
BRANCH  32  33
HETATM   33  C   UNL     1     -13.682  14.843  72.152  1.00  0.00    -0.444 C  
HETATM   34  H   UNL     1     -13.644  12.960  72.725  1.00  0.00     0.000 HD 
HETATM   35  O   UNL     1     -13.375  13.454  71.959  1.00  0.00    -0.415 OA 
BRANCH  33  36
HETATM   36  C   UNL     1     -12.982  15.381  73.411  1.00  0.00    -0.538 C  
HETATM   37  O   UNL     1     -13.833  16.247  74.158  1.00  0.00    -0.323 OA 
HETATM   38  H   UNL     1     -13.400  16.579  74.936  1.00  0.00     0.000 HD 
ENDBRANCH  33  36
ENDBRANCH  32  33
ENDBRANCH  31  32
ENDBRANCH  15  28
ENDBRANCH   5   8
BRANCH   6  39
HETATM   39  C   UNL     1      -5.129  18.463  69.528  1.00  0.00    -0.185 C  
HETATM   40  O   UNL     1      -5.594  19.592  70.261  1.00  0.00    -0.221 OA 
HETATM   41  H   UNL     1      -4.975  20.314  70.266  1.00  0.00     0.000 HD 
ENDBRANCH   6  39
ENDBRANCH   4   5
ENDBRANCH   3   4
TORSDOF 12
ENDMDL
MODEL      107
REMARK 921   NORMALIZED FREE ENERGY PREDICTED BY IDOCK:   -3.43 KCAL/MOL
REMARK 922        TOTAL FREE ENERGY PREDICTED BY IDOCK:   -6.12 KCAL/MOL
REMARK 923 INTER-LIGAND FREE ENERGY PREDICTED BY IDOCK:   -6.37 KCAL/MOL
REMARK 924 INTRA-LIGAND FREE ENERGY PREDICTED BY IDOCK:    0.25 KCAL/MOL
REMARK 927      BINDING AFFINITY PREDICTED BY RF-SCORE:    0.00 PKD
ROOT
HETATM    1  O   UNL     1      -5.143   9.196  68.017  1.00  0.00    -0.034 OA 
HETATM    2  H   UNL     1      -4.379   8.650  67.870  1.00  0.00     0.000 HD 
HETATM    3  C   UNL     1      -6.094   9.037  66.974  1.00  0.00    -0.058 C  
ENDROOT
BRANCH   3   4
HETATM    4  C   UNL     1      -7.327   9.918  67.212  1.00  0.00    -0.087 C  
BRANCH   4   5
HETATM    5  N   UNL     1      -8.630   9.216  67.152  1.00  0.00    -0.120 N  
HETATM    6  C   UNL     1      -8.949   8.208  66.237  1.00  0.00    -0.177 C  
HETATM    7  O   UNL     1      -9.980   7.524  66.332  1.00  0.00    -0.164 OA 
BRANCH   5   8
HETATM    8  C   UNL     1      -9.554   9.444  68.236  1.00  0.00    -0.142 A  
HETATM    9  C   UNL     1     -10.470  10.533  68.207  1.00  0.00    -0.183 A  
HETATM   10  C   UNL     1      -9.500   8.623  69.387  1.00  0.00    -0.161 A  
HETATM   11  I   UNL     1     -10.586  11.742  66.399  1.00  0.00    -0.335 I  
HETATM   12  C   UNL     1     -11.353  10.789  69.294  1.00  0.00    -0.352 A  
HETATM   13  I   UNL     1      -7.789   7.323  69.674  1.00  0.00    -0.122 I  
HETATM   14  I   UNL     1     -13.002   9.915  71.820  1.00  0.00    -0.526 I  
HETATM   15  C   UNL     1     -10.480   8.741  70.397  1.00  0.00    -0.240 A  
HETATM   16  C   UNL     1     -11.411   9.827  70.341  1.00  0.00    -0.297 A  
BRANCH  12  17
HETATM   17  C   UNL     1     -12.019  12.142  69.368  1.00  0.00    -0.270 C  
HETATM   18  N   UNL     1     -11.535  13.085  70.244  1.00  0.00    -0.495 N  
HETATM   19  H   UNL     1     -10.804  12.821  70.905  1.00  0.00     0.000 HD 
HETATM   20  O   UNL     1     -12.971  12.388  68.635  1.00  0.00     1.157 OA 
BRANCH  18  21
HETATM   21  C   UNL     1     -12.042  14.459  70.253  1.00  0.00    -0.331 C  
BRANCH  21  22
HETATM   22  C   UNL     1     -13.047  14.640  71.395  1.00  0.00    -0.347 C  
HETATM   23  O   UNL     1     -12.821  13.629  72.389  1.00  0.00    -0.296 OA 
HETATM   24  H   UNL     1     -13.445  13.740  73.097  1.00  0.00     0.000 HD 
BRANCH  22  25
HETATM   25  C   UNL     1     -12.975  16.036  72.027  1.00  0.00    -0.255 C  
HETATM   26  H   UNL     1     -12.854  16.809  73.841  1.00  0.00     0.000 HD 
HETATM   27  O   UNL     1     -12.899  15.944  73.450  1.00  0.00    -0.479 OA 
ENDBRANCH  22  25
ENDBRANCH  21  22
ENDBRANCH  18  21
ENDBRANCH  12  17
BRANCH  15  28
HETATM   28  C   UNL     1     -10.529   7.767  71.536  1.00  0.00    -0.205 C  
HETATM   29  O   UNL     1     -10.002   8.034  72.610  1.00  0.00    -0.237 OA 
HETATM   30  H   UNL     1     -11.641   6.368  70.435  1.00  0.00     0.000 HD 
HETATM   31  N   UNL     1     -11.198   6.569  71.331  1.00  0.00    -0.270 N  
BRANCH  31  32
HETATM   32  C   UNL     1     -11.254   5.604  72.423  1.00  0.00    -0.280 C  
BRANCH  32  33
HETATM   33  C   UNL     1     -10.318   4.406  72.222  1.00  0.00    -0.160 C  
HETATM   34  H   UNL     1      -8.374   4.113  72.112  1.00  0.00     0.000 HD 
HETATM   35  O   UNL     1      -8.954   4.855  72.236  1.00  0.00    -0.128 OA 
BRANCH  33  36
HETATM   36  C   UNL     1     -10.550   3.354  73.319  1.00  0.00    -0.187 C  
HETATM   37  O   UNL     1     -10.698   2.045  72.772  1.00  0.00    -0.153 OA 
HETATM   38  H   UNL     1     -10.841   1.395  73.450  1.00  0.00     0.000 HD 
ENDBRANCH  33  36
ENDBRANCH  32  33
ENDBRANCH  31  32
ENDBRANCH  15  28
ENDBRANCH   5   8
BRANCH   6  39
HETATM   39  C   UNL     1      -7.962   7.923  65.095  1.00  0.00    -0.132 C  
HETATM   40  O   UNL     1      -8.382   8.460  63.845  1.00  0.00    -0.304 OA 
HETATM   41  H   UNL     1      -7.771   8.284  63.138  1.00  0.00     0.000 HD 
ENDBRANCH   6  39
ENDBRANCH   4   5
ENDBRANCH   3   4
TORSDOF 12
ENDMDL
MODEL      108
REMARK 921   NORMALIZED FREE ENERGY PREDICTED BY IDOCK:   -3.43 KCAL/MOL
REMARK 922        TOTAL FREE ENERGY PREDICTED BY IDOCK:   -6.11 KCAL/MOL
REMARK 923 INTER-LIGAND FREE ENERGY PREDICTED BY IDOCK:   -5.33 KCAL/MOL
REMARK 924 INTRA-LIGAND FREE ENERGY PREDICTED BY IDOCK:   -0.78 KCAL/MOL
REMARK 927      BINDING AFFINITY PREDICTED BY RF-SCORE:    0.00 PKD
ROOT
HETATM    1  O   UNL     1     -13.010  13.966  65.263  1.00  0.00    -0.747 OA 
HETATM    2  H   UNL     1     -12.772  14.364  64.434  1.00  0.00     0.000 HD 
HETATM    3  C   UNL     1     -11.991  14.153  66.234  1.00  0.00    -0.429 C  
ENDROOT
BRANCH   3   4
HETATM    4  C   UNL     1     -12.376  13.510  67.571  1.00  0.00    -0.040 C  
BRANCH   4   5
HETATM    5  N   UNL     1     -11.305  13.480  68.594  1.00  0.00    -0.268 N  
HETATM    6  C   UNL     1     -11.186  14.391  69.647  1.00  0.00    -0.232 C  
HETATM    7  O   UNL     1     -10.385  14.229  70.582  1.00  0.00     0.922 OA 
BRANCH   5   8
HETATM    8  C   UNL     1     -10.453  12.316  68.625  1.00  0.00    -0.208 A  
HETATM    9  C   UNL     1      -9.273  12.246  67.833  1.00  0.00    -0.190 A  
HETATM   10  C   UNL     1     -10.833  11.188  69.391  1.00  0.00    -0.216 A  
HETATM   11  I   UNL     1      -8.668  14.015  66.715  1.00  0.00     0.181 I  
HETATM   12  C   UNL     1      -8.452  11.082  67.826  1.00  0.00    -0.122 A  
HETATM   13  I   UNL     1     -12.856  11.074  70.163  1.00  0.00     0.425 I  
HETATM   14  I   UNL     1      -7.337   8.440  69.107  1.00  0.00    -0.083 I  
HETATM   15  C   UNL     1      -9.951  10.097  69.543  1.00  0.00    -0.257 A  
HETATM   16  C   UNL     1      -8.755  10.052  68.759  1.00  0.00    -0.136 A  
BRANCH  12  17
HETATM   17  C   UNL     1      -7.446  10.926  66.710  1.00  0.00    -0.134 C  
HETATM   18  N   UNL     1      -7.798  10.233  65.576  1.00  0.00    -0.148 N  
HETATM   19  H   UNL     1      -8.693   9.744  65.550  1.00  0.00     0.000 HD 
HETATM   20  O   UNL     1      -6.335  11.435  66.822  1.00  0.00    -0.123 OA 
BRANCH  18  21
HETATM   21  C   UNL     1      -6.922  10.178  64.405  1.00  0.00    -0.106 C  
BRANCH  21  22
HETATM   22  C   UNL     1      -7.691   9.625  63.200  1.00  0.00    -0.128 C  
HETATM   23  O   UNL     1      -8.633   8.640  63.651  1.00  0.00    -0.390 OA 
HETATM   24  H   UNL     1      -9.109   8.297  62.904  1.00  0.00     0.000 HD 
BRANCH  22  25
HETATM   25  C   UNL     1      -8.407  10.725  62.404  1.00  0.00    -0.247 C  
HETATM   26  H   UNL     1      -9.998  11.875  62.619  1.00  0.00     0.000 HD 
HETATM   27  O   UNL     1      -9.555  11.195  63.111  1.00  0.00    -0.299 OA 
ENDBRANCH  22  25
ENDBRANCH  21  22
ENDBRANCH  18  21
ENDBRANCH  12  17
BRANCH  15  28
HETATM   28  C   UNL     1     -10.274   8.975  70.485  1.00  0.00    -0.219 C  
HETATM   29  O   UNL     1     -10.785   7.940  70.074  1.00  0.00    -0.240 OA 
HETATM   30  H   UNL     1      -9.529  10.014  72.150  1.00  0.00     0.000 HD 
HETATM   31  N   UNL     1      -9.964   9.151  71.826  1.00  0.00    -0.283 N  
BRANCH  31  32
HETATM   32  C   UNL     1     -10.273   8.076  72.762  1.00  0.00    -0.319 C  
BRANCH  32  33
HETATM   33  C   UNL     1      -9.039   7.534  73.492  1.00  0.00    -0.235 C  
HETATM   34  H   UNL     1      -7.555   6.308  73.075  1.00  0.00     0.000 HD 
HETATM   35  O   UNL     1      -8.320   6.645  72.623  1.00  0.00    -0.109 OA 
BRANCH  33  36
HETATM   36  C   UNL     1      -8.133   8.690  73.949  1.00  0.00     0.143 C  
HETATM   37  O   UNL     1      -6.934   8.755  73.182  1.00  0.00    -0.321 OA 
HETATM   38  H   UNL     1      -6.374   9.469  73.464  1.00  0.00     0.000 HD 
ENDBRANCH  33  36
ENDBRANCH  32  33
ENDBRANCH  31  32
ENDBRANCH  15  28
ENDBRANCH   5   8
BRANCH   6  39
HETATM   39  C   UNL     1     -12.109  15.620  69.655  1.00  0.00    -0.308 C  
HETATM   40  O   UNL     1     -11.656  16.654  70.522  1.00  0.00    -0.457 OA 
HETATM   41  H   UNL     1     -12.227  17.414  70.526  1.00  0.00     0.000 HD 
ENDBRANCH   6  39
ENDBRANCH   4   5
ENDBRANCH   3   4
TORSDOF 12
ENDMDL
MODEL      109
REMARK 921   NORMALIZED FREE ENERGY PREDICTED BY IDOCK:   -3.35 KCAL/MOL
REMARK 922        TOTAL FREE ENERGY PREDICTED BY IDOCK:   -5.97 KCAL/MOL
REMARK 923 INTER-LIGAND FREE ENERGY PREDICTED BY IDOCK:   -5.83 KCAL/MOL
REMARK 924 INTRA-LIGAND FREE ENERGY PREDICTED BY IDOCK:   -0.14 KCAL/MOL
REMARK 927      BINDING AFFINITY PREDICTED BY RF-SCORE:    0.00 PKD
ROOT
HETATM    1  O   UNL     1     -12.852  13.767  65.190  1.00  0.00    -0.695 OA 
HETATM    2  H   UNL     1     -12.506  14.005  64.337  1.00  0.00     0.000 HD 
HETATM    3  C   UNL     1     -11.805  13.524  66.118  1.00  0.00    -0.389 C  
ENDROOT
BRANCH   3   4
HETATM    4  C   UNL     1     -12.364  13.141  67.493  1.00  0.00     0.072 C  
BRANCH   4   5
HETATM    5  N   UNL     1     -11.382  12.563  68.440  1.00  0.00    -0.267 N  
HETATM    6  C   UNL     1     -11.650  11.509  69.318  1.00  0.00    -0.322 C  
HETATM    7  O   UNL     1     -10.759  10.936  69.964  1.00  0.00    -0.175 OA 
BRANCH   5   8
HETATM    8  C   UNL     1     -10.007  12.975  68.299  1.00  0.00    -0.235 A  
HETATM    9  C   UNL     1      -9.565  14.242  68.772  1.00  0.00    -0.153 A  
HETATM   10  C   UNL     1      -9.092  12.143  67.610  1.00  0.00    -0.181 A  
HETATM   11  I   UNL     1     -10.968  15.477  69.891  1.00  0.00    -0.407 I  
HETATM   12  C   UNL     1      -8.220  14.673  68.596  1.00  0.00    -0.159 A  
HETATM   13  I   UNL     1      -9.854  10.486  66.438  1.00  0.00    -0.296 I  
HETATM   14  I   UNL     1      -5.153  14.151  68.161  1.00  0.00    -0.036 I  
HETATM   15  C   UNL     1      -7.717  12.463  67.579  1.00  0.00    -0.161 A  
HETATM   16  C   UNL     1      -7.285  13.731  68.081  1.00  0.00    -0.121 A  
BRANCH  12  17
HETATM   17  C   UNL     1      -7.911  16.140  68.776  1.00  0.00    -0.203 C  
HETATM   18  N   UNL     1      -8.526  17.063  67.963  1.00  0.00    -0.210 N  
HETATM   19  H   UNL     1      -9.097  16.737  67.184  1.00  0.00     0.000 HD 
HETATM   20  O   UNL     1      -7.130  16.490  69.654  1.00  0.00    -0.169 OA 
BRANCH  18  21
HETATM   21  C   UNL     1      -8.382  18.503  68.189  1.00  0.00    -0.296 C  
BRANCH  21  22
HETATM   22  C   UNL     1      -8.579  19.262  66.872  1.00  0.00    -0.298 C  
HETATM   23  O   UNL     1      -8.415  18.354  65.773  1.00  0.00    -0.468 OA 
HETATM   24  H   UNL     1      -8.538  18.824  64.957  1.00  0.00     0.000 HD 
BRANCH  22  25
HETATM   25  C   UNL     1      -9.946  19.957  66.793  1.00  0.00    -0.444 C  
HETATM   26  H   UNL     1     -11.701  19.823  67.689  1.00  0.00     0.000 HD 
HETATM   27  O   UNL     1     -10.855  19.393  67.738  1.00  0.00    -0.418 OA 
ENDBRANCH  22  25
ENDBRANCH  21  22
ENDBRANCH  18  21
ENDBRANCH  12  17
BRANCH  15  28
HETATM   28  C   UNL     1      -6.720  11.506  66.997  1.00  0.00    -0.143 C  
HETATM   29  O   UNL     1      -6.314  11.647  65.849  1.00  0.00     0.167 OA 
HETATM   30  H   UNL     1      -6.612  10.374  68.762  1.00  0.00     0.000 HD 
HETATM   31  N   UNL     1      -6.273  10.471  67.805  1.00  0.00    -0.055 N  
BRANCH  31  32
HETATM   32  C   UNL     1      -5.307   9.525  67.259  1.00  0.00    -0.036 C  
BRANCH  32  33
HETATM   33  C   UNL     1      -5.949   8.230  66.745  1.00  0.00    -0.053 C  
HETATM   34  H   UNL     1      -5.999   7.235  65.047  1.00  0.00     0.000 HD 
HETATM   35  O   UNL     1      -5.602   8.037  65.365  1.00  0.00    -0.036 OA 
BRANCH  33  36
HETATM   36  C   UNL     1      -5.488   7.031  67.590  1.00  0.00    -0.016 C  
HETATM   37  O   UNL     1      -6.101   5.817  67.161  1.00  0.00    -0.020 OA 
HETATM   38  H   UNL     1      -5.817   5.076  67.683  1.00  0.00     0.000 HD 
ENDBRANCH  33  36
ENDBRANCH  32  33
ENDBRANCH  31  32
ENDBRANCH  15  28
ENDBRANCH   5   8
BRANCH   6  39
HETATM   39  C   UNL     1     -13.103  11.029  69.456  1.00  0.00     1.000 C  
HETATM   40  O   UNL     1     -13.259   9.985  70.413  1.00  0.00    -0.603 OA 
HETATM   41  H   UNL     1     -14.158   9.688  70.498  1.00  0.00     0.000 HD 
ENDBRANCH   6  39
ENDBRANCH   4   5
ENDBRANCH   3   4
TORSDOF 12
ENDMDL
MODEL      110
REMARK 921   NORMALIZED FREE ENERGY PREDICTED BY IDOCK:   -3.33 KCAL/MOL
REMARK 922        TOTAL FREE ENERGY PREDICTED BY IDOCK:   -5.94 KCAL/MOL
REMARK 923 INTER-LIGAND FREE ENERGY PREDICTED BY IDOCK:   -5.62 KCAL/MOL
REMARK 924 INTRA-LIGAND FREE ENERGY PREDICTED BY IDOCK:   -0.32 KCAL/MOL
REMARK 927      BINDING AFFINITY PREDICTED BY RF-SCORE:    0.00 PKD
ROOT
HETATM    1  O   UNL     1     -10.985   7.843  67.772  1.00  0.00    -0.491 OA 
HETATM    2  H   UNL     1     -11.060   7.865  68.719  1.00  0.00     0.000 HD 
HETATM    3  C   UNL     1      -9.892   8.631  67.326  1.00  0.00    -0.197 C  
ENDROOT
BRANCH   3   4
HETATM    4  C   UNL     1      -9.771   8.595  65.798  1.00  0.00     0.017 C  
BRANCH   4   5
HETATM    5  N   UNL     1      -8.950   9.673  65.199  1.00  0.00    -0.192 N  
HETATM    6  C   UNL     1      -8.570   9.729  63.855  1.00  0.00    -0.199 C  
HETATM    7  O   UNL     1      -8.037  10.733  63.354  1.00  0.00    -0.056 OA 
BRANCH   5   8
HETATM    8  C   UNL     1      -8.704  10.842  66.008  1.00  0.00    -0.186 A  
HETATM    9  C   UNL     1      -9.570  11.970  65.956  1.00  0.00    -0.234 A  
HETATM   10  C   UNL     1      -7.539  10.908  66.809  1.00  0.00    -0.134 A  
HETATM   11  I   UNL     1     -11.393  11.824  64.772  1.00  0.00    -0.147 I  
HETATM   12  C   UNL     1      -9.307  13.144  66.718  1.00  0.00    -0.244 A  
HETATM   13  I   UNL     1      -5.964   9.451  66.497  1.00  0.00    -0.062 I  
HETATM   14  I   UNL     1      -8.025  14.671  69.145  1.00  0.00     0.095 I  
HETATM   15  C   UNL     1      -7.348  11.979  67.708  1.00  0.00    -0.113 A  
HETATM   16  C   UNL     1      -8.242  13.096  67.661  1.00  0.00    -0.175 A  
BRANCH  12  17
HETATM   17  C   UNL     1     -10.033  14.414  66.345  1.00  0.00    -0.294 C  
HETATM   18  N   UNL     1     -10.807  15.050  67.287  1.00  0.00    -0.303 N  
HETATM   19  H   UNL     1     -10.965  14.598  68.187  1.00  0.00     0.000 HD 
HETATM   20  O   UNL     1      -9.908  14.871  65.213  1.00  0.00    -0.327 OA 
BRANCH  18  21
HETATM   21  C   UNL     1     -11.410  16.359  67.030  1.00  0.00     0.338 C  
BRANCH  21  22
HETATM   22  C   UNL     1     -10.320  17.433  66.950  1.00  0.00    -0.317 C  
HETATM   23  O   UNL     1     -10.039  17.720  65.571  1.00  0.00    -0.548 OA 
HETATM   24  H   UNL     1      -9.364  18.385  65.521  1.00  0.00     0.000 HD 
BRANCH  22  25
HETATM   25  C   UNL     1     -10.704  18.718  67.696  1.00  0.00    -0.385 C  
HETATM   26  H   UNL     1     -10.717  20.660  67.338  1.00  0.00     0.000 HD 
HETATM   27  O   UNL     1     -10.479  19.865  66.876  1.00  0.00    -0.446 OA 
ENDBRANCH  22  25
ENDBRANCH  21  22
ENDBRANCH  18  21
ENDBRANCH  12  17
BRANCH  15  28
HETATM   28  C   UNL     1      -6.204  11.973  68.678  1.00  0.00    -0.055 C  
HETATM   29  O   UNL     1      -5.133  12.492  68.386  1.00  0.00    -0.053 OA 
HETATM   30  H   UNL     1      -7.310  10.954  70.143  1.00  0.00     0.000 HD 
HETATM   31  N   UNL     1      -6.409  11.371  69.911  1.00  0.00    -0.139 N  
BRANCH  31  32
HETATM   32  C   UNL     1      -5.310  11.348  70.869  1.00  0.00    -0.122 C  
BRANCH  32  33
HETATM   33  C   UNL     1      -5.166  10.005  71.595  1.00  0.00    -0.070 C  
HETATM   34  H   UNL     1      -5.103   9.390  73.464  1.00  0.00     0.000 HD 
HETATM   35  O   UNL     1      -5.192  10.222  73.014  1.00  0.00    -0.319 OA 
BRANCH  33  36
HETATM   36  C   UNL     1      -6.291   9.044  71.176  1.00  0.00    -0.065 C  
HETATM   37  O   UNL     1      -7.238   8.852  72.224  1.00  0.00    -0.319 OA 
HETATM   38  H   UNL     1      -7.933   8.258  71.965  1.00  0.00     0.000 HD 
ENDBRANCH  33  36
ENDBRANCH  32  33
ENDBRANCH  31  32
ENDBRANCH  15  28
ENDBRANCH   5   8
BRANCH   6  39
HETATM   39  C   UNL     1      -8.856   8.509  62.966  1.00  0.00     0.288 C  
HETATM   40  O   UNL     1      -7.912   7.458  63.139  1.00  0.00    -0.167 OA 
HETATM   41  H   UNL     1      -8.089   6.703  62.589  1.00  0.00     0.000 HD 
ENDBRANCH   6  39
ENDBRANCH   4   5
ENDBRANCH   3   4
TORSDOF 12
ENDMDL
MODEL      111
REMARK 921   NORMALIZED FREE ENERGY PREDICTED BY IDOCK:   -3.31 KCAL/MOL
REMARK 922        TOTAL FREE ENERGY PREDICTED BY IDOCK:   -5.91 KCAL/MOL
REMARK 923 INTER-LIGAND FREE ENERGY PREDICTED BY IDOCK:   -6.85 KCAL/MOL
REMARK 924 INTRA-LIGAND FREE ENERGY PREDICTED BY IDOCK:    0.94 KCAL/MOL
REMARK 927      BINDING AFFINITY PREDICTED BY RF-SCORE:    0.00 PKD
ROOT
HETATM    1  O   UNL     1      -8.994  15.975  67.567  1.00  0.00    -0.191 OA 
HETATM    2  H   UNL     1      -9.135  16.821  67.157  1.00  0.00     0.000 HD 
HETATM    3  C   UNL     1      -9.139  14.920  66.627  1.00  0.00    -0.280 C  
ENDROOT
BRANCH   3   4
HETATM    4  C   UNL     1      -8.911  13.556  67.290  1.00  0.00    -0.224 C  
BRANCH   4   5
HETATM    5  N   UNL     1      -9.931  12.525  66.989  1.00  0.00    -0.212 N  
HETATM    6  C   UNL     1     -10.383  12.204  65.706  1.00  0.00    -0.258 C  
HETATM    7  O   UNL     1     -11.102  11.217  65.480  1.00  0.00    -0.191 OA 
BRANCH   5   8
HETATM    8  C   UNL     1     -10.332  11.658  68.070  1.00  0.00    -0.192 A  
HETATM    9  C   UNL     1     -11.356  12.040  68.980  1.00  0.00    -0.275 A  
HETATM   10  C   UNL     1      -9.646  10.439  68.283  1.00  0.00    -0.144 A  
HETATM   11  I   UNL     1     -12.449  13.886  68.597  1.00  0.00     1.144 I  
HETATM   12  C   UNL     1     -11.725  11.208  70.075  1.00  0.00    -0.438 A  
HETATM   13  I   UNL     1      -7.768  10.096  67.254  1.00  0.00    -0.095 I  
HETATM   14  I   UNL     1     -11.956   8.428  71.518  1.00  0.00    -0.408 I  
HETATM   15  C   UNL     1     -10.108   9.516  69.245  1.00  0.00    -0.203 A  
HETATM   16  C   UNL     1     -11.156   9.905  70.138  1.00  0.00    -0.296 A  
BRANCH  12  17
HETATM   17  C   UNL     1     -12.533  11.819  71.196  1.00  0.00    -0.285 C  
HETATM   18  N   UNL     1     -12.287  13.118  71.573  1.00  0.00    -0.197 N  
HETATM   19  H   UNL     1     -11.494  13.613  71.165  1.00  0.00     0.000 HD 
HETATM   20  O   UNL     1     -13.408  11.155  71.742  1.00  0.00    -0.384 OA 
BRANCH  18  21
HETATM   21  C   UNL     1     -13.136  13.810  72.545  1.00  0.00    -0.419 C  
BRANCH  21  22
HETATM   22  C   UNL     1     -12.471  15.119  72.984  1.00  0.00    -0.421 C  
HETATM   23  O   UNL     1     -12.024  14.991  74.342  1.00  0.00    -0.666 OA 
HETATM   24  H   UNL     1     -11.612  15.802  74.614  1.00  0.00     0.000 HD 
BRANCH  22  25
HETATM   25  C   UNL     1     -11.304  15.521  72.072  1.00  0.00    -0.358 C  
HETATM   26  H   UNL     1     -10.967  16.825  70.628  1.00  0.00     0.000 HD 
HETATM   27  O   UNL     1     -11.689  16.577  71.192  1.00  0.00    -0.297 OA 
ENDBRANCH  22  25
ENDBRANCH  21  22
ENDBRANCH  18  21
ENDBRANCH  12  17
BRANCH  15  28
HETATM   28  C   UNL     1      -9.489   8.154  69.362  1.00  0.00    -0.162 C  
HETATM   29  O   UNL     1      -9.828   7.246  68.612  1.00  0.00    -0.155 OA 
HETATM   30  H   UNL     1      -8.240   8.739  70.945  1.00  0.00     0.000 HD 
HETATM   31  N   UNL     1      -8.519   7.970  70.336  1.00  0.00    -0.127 N  
BRANCH  31  32
HETATM   32  C   UNL     1      -7.906   6.654  70.472  1.00  0.00    -0.106 C  
BRANCH  32  33
HETATM   33  C   UNL     1      -8.686   5.715  71.402  1.00  0.00    -0.132 C  
HETATM   34  H   UNL     1      -9.009   3.777  71.532  1.00  0.00     0.000 HD 
HETATM   35  O   UNL     1      -8.526   4.359  70.956  1.00  0.00    -0.086 OA 
BRANCH  33  36
HETATM   36  C   UNL     1      -8.197   5.867  72.852  1.00  0.00    -0.118 C  
HETATM   37  O   UNL     1      -6.830   6.268  72.908  1.00  0.00    -0.075 OA 
HETATM   38  H   UNL     1      -6.529   6.362  73.804  1.00  0.00     0.000 HD 
ENDBRANCH  33  36
ENDBRANCH  32  33
ENDBRANCH  31  32
ENDBRANCH  15  28
ENDBRANCH   5   8
BRANCH   6  39
HETATM   39  C   UNL     1      -9.938  13.092  64.534  1.00  0.00    -0.110 C  
HETATM   40  O   UNL     1     -10.696  12.875  63.348  1.00  0.00    -0.492 OA 
HETATM   41  H   UNL     1     -10.421  13.425  62.623  1.00  0.00     0.000 HD 
ENDBRANCH   6  39
ENDBRANCH   4   5
ENDBRANCH   3   4
TORSDOF 12
ENDMDL
MODEL      112
REMARK 921   NORMALIZED FREE ENERGY PREDICTED BY IDOCK:   -3.30 KCAL/MOL
REMARK 922        TOTAL FREE ENERGY PREDICTED BY IDOCK:   -5.90 KCAL/MOL
REMARK 923 INTER-LIGAND FREE ENERGY PREDICTED BY IDOCK:   -5.01 KCAL/MOL
REMARK 924 INTRA-LIGAND FREE ENERGY PREDICTED BY IDOCK:   -0.89 KCAL/MOL
REMARK 927      BINDING AFFINITY PREDICTED BY RF-SCORE:    0.00 PKD
ROOT
HETATM    1  O   UNL     1     -11.776   6.381  68.366  1.00  0.00    -0.440 OA 
HETATM    2  H   UNL     1     -12.150   6.632  69.203  1.00  0.00     0.000 HD 
HETATM    3  C   UNL     1     -10.446   6.860  68.234  1.00  0.00    -0.206 C  
ENDROOT
BRANCH   3   4
HETATM    4  C   UNL     1      -9.844   6.455  66.883  1.00  0.00    -0.158 C  
BRANCH   4   5
HETATM    5  N   UNL     1      -8.445   6.886  66.656  1.00  0.00    -0.117 N  
HETATM    6  C   UNL     1      -7.663   6.501  65.563  1.00  0.00    -0.097 C  
HETATM    7  O   UNL     1      -6.564   7.022  65.314  1.00  0.00    -0.045 OA 
BRANCH   5   8
HETATM    8  C   UNL     1      -7.930   7.931  67.505  1.00  0.00    -0.123 A  
HETATM    9  C   UNL     1      -7.349   7.634  68.770  1.00  0.00    -0.091 A  
HETATM   10  C   UNL     1      -8.072   9.285  67.117  1.00  0.00    -0.109 A  
HETATM   11  I   UNL     1      -7.076   5.544  69.319  1.00  0.00    -0.068 I  
HETATM   12  C   UNL     1      -6.879   8.665  69.632  1.00  0.00    -0.046 A  
HETATM   13  I   UNL     1      -9.406   9.775  65.480  1.00  0.00    -0.345 I  
HETATM   14  I   UNL     1      -5.785  11.555  70.194  1.00  0.00    -0.151 I  
HETATM   15  C   UNL     1      -7.456  10.312  67.864  1.00  0.00    -0.088 A  
HETATM   16  C   UNL     1      -6.854   9.994  69.123  1.00  0.00    -0.056 A  
BRANCH  12  17
HETATM   17  C   UNL     1      -6.626   8.323  71.081  1.00  0.00    -0.046 C  
HETATM   18  N   UNL     1      -7.678   8.317  71.966  1.00  0.00    -0.112 N  
HETATM   19  H   UNL     1      -8.592   8.646  71.655  1.00  0.00     0.000 HD 
HETATM   20  O   UNL     1      -5.489   8.040  71.445  1.00  0.00    -0.034 OA 
BRANCH  18  21
HETATM   21  C   UNL     1      -7.520   7.849  73.344  1.00  0.00    -0.140 C  
BRANCH  21  22
HETATM   22  C   UNL     1      -8.171   6.471  73.508  1.00  0.00    -0.118 C  
HETATM   23  O   UNL     1      -9.194   6.310  72.514  1.00  0.00    -0.142 OA 
HETATM   24  H   UNL     1      -9.598   5.456  72.615  1.00  0.00     0.000 HD 
BRANCH  22  25
HETATM   25  C   UNL     1      -7.154   5.325  73.420  1.00  0.00    -0.085 C  
HETATM   26  H   UNL     1      -5.251   5.031  73.859  1.00  0.00     0.000 HD 
HETATM   27  O   UNL     1      -5.880   5.740  73.914  1.00  0.00    -0.052 OA 
ENDBRANCH  22  25
ENDBRANCH  21  22
ENDBRANCH  18  21
ENDBRANCH  12  17
BRANCH  15  28
HETATM   28  C   UNL     1      -7.460  11.728  67.370  1.00  0.00    -0.143 C  
HETATM   29  O   UNL     1      -6.531  12.160  66.698  1.00  0.00    -0.057 OA 
HETATM   30  H   UNL     1      -9.325  12.141  68.243  1.00  0.00     0.000 HD 
HETATM   31  N   UNL     1      -8.554  12.519  67.692  1.00  0.00    -0.166 N  
BRANCH  31  32
HETATM   32  C   UNL     1      -8.578  13.901  67.228  1.00  0.00    -0.211 C  
BRANCH  32  33
HETATM   33  C   UNL     1      -9.629  14.157  66.140  1.00  0.00    -0.254 C  
HETATM   34  H   UNL     1     -11.419  13.469  65.691  1.00  0.00     0.000 HD 
HETATM   35  O   UNL     1     -10.767  13.310  66.365  1.00  0.00    -0.282 OA 
BRANCH  33  36
HETATM   36  C   UNL     1     -10.050  15.636  66.138  1.00  0.00    -0.313 C  
HETATM   37  O   UNL     1     -10.062  16.183  67.454  1.00  0.00    -0.247 OA 
HETATM   38  H   UNL     1     -10.322  17.097  67.452  1.00  0.00     0.000 HD 
ENDBRANCH  33  36
ENDBRANCH  32  33
ENDBRANCH  31  32
ENDBRANCH  15  28
ENDBRANCH   5   8
BRANCH   6  39
HETATM   39  C   UNL     1      -8.209   5.415  64.623  1.00  0.00    -0.133 C  
HETATM   40  O   UNL     1      -8.541   5.909  63.330  1.00  0.00    -0.331 OA 
HETATM   41  H   UNL     1      -8.878   5.237  62.749  1.00  0.00     0.000 HD 
ENDBRANCH   6  39
ENDBRANCH   4   5
ENDBRANCH   3   4
TORSDOF 12
ENDMDL
MODEL      113
REMARK 921   NORMALIZED FREE ENERGY PREDICTED BY IDOCK:   -3.29 KCAL/MOL
REMARK 922        TOTAL FREE ENERGY PREDICTED BY IDOCK:   -5.88 KCAL/MOL
REMARK 923 INTER-LIGAND FREE ENERGY PREDICTED BY IDOCK:   -6.27 KCAL/MOL
REMARK 924 INTRA-LIGAND FREE ENERGY PREDICTED BY IDOCK:    0.39 KCAL/MOL
REMARK 927      BINDING AFFINITY PREDICTED BY RF-SCORE:    0.00 PKD
ROOT
HETATM    1  O   UNL     1      -6.577  11.290  65.145  1.00  0.00    -0.118 OA 
HETATM    2  H   UNL     1      -6.366  11.776  64.357  1.00  0.00     0.000 HD 
HETATM    3  C   UNL     1      -6.522   9.890  64.914  1.00  0.00    -0.111 C  
ENDROOT
BRANCH   3   4
HETATM    4  C   UNL     1      -6.862   9.106  66.187  1.00  0.00    -0.085 C  
BRANCH   4   5
HETATM    5  N   UNL     1      -8.190   8.450  66.194  1.00  0.00    -0.108 N  
HETATM    6  C   UNL     1      -8.530   7.336  65.419  1.00  0.00    -0.087 C  
HETATM    7  O   UNL     1      -9.588   6.708  65.584  1.00  0.00     0.234 OA 
BRANCH   5   8
HETATM    8  C   UNL     1      -9.124   8.858  67.214  1.00  0.00    -0.134 A  
HETATM    9  C   UNL     1      -9.337   8.066  68.377  1.00  0.00    -0.138 A  
HETATM   10  C   UNL     1      -9.903  10.024  67.027  1.00  0.00    -0.189 A  
HETATM   11  I   UNL     1      -8.079   6.313  68.683  1.00  0.00    -0.108 I  
HETATM   12  C   UNL     1     -10.290   8.441  69.366  1.00  0.00    -0.217 A  
HETATM   13  I   UNL     1      -9.979  10.933  65.059  1.00  0.00    -0.414 I  
HETATM   14  I   UNL     1     -12.048  10.546  70.897  1.00  0.00    -0.468 I  
HETATM   15  C   UNL     1     -10.720  10.514  68.068  1.00  0.00    -0.287 A  
HETATM   16  C   UNL     1     -10.906   9.718  69.242  1.00  0.00    -0.216 A  
BRANCH  12  17
HETATM   17  C   UNL     1     -10.732   7.396  70.364  1.00  0.00    -0.237 C  
HETATM   18  N   UNL     1     -10.175   7.386  71.621  1.00  0.00    -0.188 N  
HETATM   19  H   UNL     1      -9.397   8.014  71.825  1.00  0.00     0.000 HD 
HETATM   20  O   UNL     1     -11.593   6.583  70.046  1.00  0.00    -0.407 OA 
BRANCH  18  21
HETATM   21  C   UNL     1     -10.669   6.498  72.674  1.00  0.00    -0.231 C  
BRANCH  21  22
HETATM   22  C   UNL     1      -9.624   5.420  72.985  1.00  0.00    -0.146 C  
HETATM   23  O   UNL     1      -9.613   5.166  74.398  1.00  0.00    -0.128 OA 
HETATM   24  H   UNL     1      -8.966   4.499  74.591  1.00  0.00     0.000 HD 
BRANCH  22  25
HETATM   25  C   UNL     1      -9.872   4.119  72.210  1.00  0.00    -0.165 C  
HETATM   26  H   UNL     1      -8.889   2.976  70.934  1.00  0.00     0.000 HD 
HETATM   27  O   UNL     1      -8.736   3.781  71.413  1.00  0.00    -0.089 OA 
ENDBRANCH  22  25
ENDBRANCH  21  22
ENDBRANCH  18  21
ENDBRANCH  12  17
BRANCH  15  28
HETATM   28  C   UNL     1     -11.419  11.835  67.938  1.00  0.00    -0.317 C  
HETATM   29  O   UNL     1     -12.509  11.915  67.385  1.00  0.00     0.027 OA 
HETATM   30  H   UNL     1      -9.889  12.865  68.942  1.00  0.00     0.000 HD 
HETATM   31  N   UNL     1     -10.791  12.950  68.475  1.00  0.00    -0.250 N  
BRANCH  31  32
HETATM   32  C   UNL     1     -11.449  14.247  68.356  1.00  0.00    -0.301 C  
BRANCH  32  33
HETATM   33  C   UNL     1     -11.642  14.954  69.703  1.00  0.00    -0.303 C  
HETATM   34  H   UNL     1     -12.554  16.576  70.348  1.00  0.00     0.000 HD 
HETATM   35  O   UNL     1     -12.433  16.138  69.514  1.00  0.00    -0.051 OA 
BRANCH  33  36
HETATM   36  C   UNL     1     -12.317  14.011  70.713  1.00  0.00    -0.373 C  
HETATM   37  O   UNL     1     -12.774  14.713  71.867  1.00  0.00    -0.310 OA 
HETATM   38  H   UNL     1     -13.191  14.131  72.491  1.00  0.00     0.000 HD 
ENDBRANCH  33  36
ENDBRANCH  32  33
ENDBRANCH  31  32
ENDBRANCH  15  28
ENDBRANCH   5   8
BRANCH   6  39
HETATM   39  C   UNL     1      -7.534   6.861  64.351  1.00  0.00    -0.100 C  
HETATM   40  O   UNL     1      -8.168   6.355  63.180  1.00  0.00    -0.256 OA 
HETATM   41  H   UNL     1      -7.552   6.061  62.519  1.00  0.00     0.000 HD 
ENDBRANCH   6  39
ENDBRANCH   4   5
ENDBRANCH   3   4
TORSDOF 12
ENDMDL
MODEL      114
REMARK 921   NORMALIZED FREE ENERGY PREDICTED BY IDOCK:   -3.28 KCAL/MOL
REMARK 922        TOTAL FREE ENERGY PREDICTED BY IDOCK:   -5.86 KCAL/MOL
REMARK 923 INTER-LIGAND FREE ENERGY PREDICTED BY IDOCK:   -4.83 KCAL/MOL
REMARK 924 INTRA-LIGAND FREE ENERGY PREDICTED BY IDOCK:   -1.03 KCAL/MOL
REMARK 927      BINDING AFFINITY PREDICTED BY RF-SCORE:    0.00 PKD
ROOT
HETATM    1  O   UNL     1     -10.931   9.075  71.807  1.00  0.00    -0.335 OA 
HETATM    2  H   UNL     1     -11.093   9.976  72.060  1.00  0.00     0.000 HD 
HETATM    3  C   UNL     1      -9.676   8.623  72.295  1.00  0.00    -0.286 C  
ENDROOT
BRANCH   3   4
HETATM    4  C   UNL     1      -9.414   7.169  71.885  1.00  0.00    -0.146 C  
BRANCH   4   5
HETATM    5  N   UNL     1      -8.118   6.921  71.213  1.00  0.00    -0.109 N  
HETATM    6  C   UNL     1      -6.931   6.588  71.872  1.00  0.00    -0.072 C  
HETATM    7  O   UNL     1      -5.914   6.215  71.266  1.00  0.00    -0.029 OA 
BRANCH   5   8
HETATM    8  C   UNL     1      -8.130   6.815  69.774  1.00  0.00    -0.126 A  
HETATM    9  C   UNL     1      -7.830   7.935  68.950  1.00  0.00    -0.117 A  
HETATM   10  C   UNL     1      -8.524   5.601  69.163  1.00  0.00    -0.102 A  
HETATM   11  I   UNL     1      -7.158   9.775  69.905  1.00  0.00    -0.159 I  
HETATM   12  C   UNL     1      -7.884   7.848  67.530  1.00  0.00    -0.122 A  
HETATM   13  I   UNL     1      -9.484   4.078  70.373  1.00  0.00    -0.234 I  
HETATM   14  I   UNL     1      -7.775   6.261  64.821  1.00  0.00    -0.108 I  
HETATM   15  C   UNL     1      -8.413   5.433  67.767  1.00  0.00    -0.105 A  
HETATM   16  C   UNL     1      -8.085   6.563  66.952  1.00  0.00    -0.113 A  
BRANCH  12  17
HETATM   17  C   UNL     1      -7.922   9.133  66.737  1.00  0.00    -0.104 C  
HETATM   18  N   UNL     1      -9.123   9.777  66.555  1.00  0.00    -0.149 N  
HETATM   19  H   UNL     1      -9.983   9.324  66.865  1.00  0.00     0.000 HD 
HETATM   20  O   UNL     1      -6.881   9.593  66.281  1.00  0.00    -0.087 OA 
BRANCH  18  21
HETATM   21  C   UNL     1      -9.200  11.098  65.928  1.00  0.00    -0.206 C  
BRANCH  21  22
HETATM   22  C   UNL     1      -9.600  12.150  66.967  1.00  0.00    -0.205 C  
HETATM   23  O   UNL     1      -8.582  13.161  67.033  1.00  0.00    -0.252 OA 
HETATM   24  H   UNL     1      -8.830  13.813  67.678  1.00  0.00     0.000 HD 
BRANCH  22  25
HETATM   25  C   UNL     1     -10.965  12.785  66.667  1.00  0.00    -0.270 C  
HETATM   26  H   UNL     1     -12.862  12.235  66.690  1.00  0.00     0.000 HD 
HETATM   27  O   UNL     1     -12.017  11.842  66.876  1.00  0.00    -0.614 OA 
ENDBRANCH  22  25
ENDBRANCH  21  22
ENDBRANCH  18  21
ENDBRANCH  12  17
BRANCH  15  28
HETATM   28  C   UNL     1      -8.669   4.098  67.131  1.00  0.00    -0.110 C  
HETATM   29  O   UNL     1      -9.779   3.815  66.697  1.00  0.00    -0.203 OA 
HETATM   30  H   UNL     1      -6.685   3.468  67.401  1.00  0.00     0.000 HD 
HETATM   31  N   UNL     1      -7.606   3.212  67.045  1.00  0.00    -0.074 N  
BRANCH  31  32
HETATM   32  C   UNL     1      -7.832   1.906  66.436  1.00  0.00    -0.071 C  
BRANCH  32  33
HETATM   33  C   UNL     1      -7.310   1.809  64.997  1.00  0.00    -0.057 C  
HETATM   34  H   UNL     1      -7.990   2.231  63.198  1.00  0.00     0.000 HD 
HETATM   35  O   UNL     1      -8.313   2.291  64.090  1.00  0.00    -0.081 OA 
BRANCH  33  36
HETATM   36  C   UNL     1      -6.010   2.617  64.841  1.00  0.00    -0.018 C  
HETATM   37  O   UNL     1      -5.765   2.964  63.480  1.00  0.00    -0.009 OA 
HETATM   38  H   UNL     1      -4.962   3.462  63.384  1.00  0.00     0.000 HD 
ENDBRANCH  33  36
ENDBRANCH  32  33
ENDBRANCH  31  32
ENDBRANCH  15  28
ENDBRANCH   5   8
BRANCH   6  39
HETATM   39  C   UNL     1      -6.906   6.659  73.406  1.00  0.00    -0.076 C  
HETATM   40  O   UNL     1      -7.039   5.384  74.027  1.00  0.00    -0.083 OA 
HETATM   41  H   UNL     1      -7.024   5.428  74.976  1.00  0.00     0.000 HD 
ENDBRANCH   6  39
ENDBRANCH   4   5
ENDBRANCH   3   4
TORSDOF 12
ENDMDL
MODEL      115
REMARK 921   NORMALIZED FREE ENERGY PREDICTED BY IDOCK:   -3.25 KCAL/MOL
REMARK 922        TOTAL FREE ENERGY PREDICTED BY IDOCK:   -5.81 KCAL/MOL
REMARK 923 INTER-LIGAND FREE ENERGY PREDICTED BY IDOCK:   -5.75 KCAL/MOL
REMARK 924 INTRA-LIGAND FREE ENERGY PREDICTED BY IDOCK:   -0.06 KCAL/MOL
REMARK 927      BINDING AFFINITY PREDICTED BY RF-SCORE:    0.00 PKD
ROOT
HETATM    1  O   UNL     1     -14.409   8.378  70.828  1.00  0.00    -0.529 OA 
HETATM    2  H   UNL     1     -15.136   8.595  71.400  1.00  0.00     0.000 HD 
HETATM    3  C   UNL     1     -13.542   7.433  71.438  1.00  0.00    -0.325 C  
ENDROOT
BRANCH   3   4
HETATM    4  C   UNL     1     -12.369   7.084  70.514  1.00  0.00    -0.102 C  
BRANCH   4   5
HETATM    5  N   UNL     1     -11.170   7.942  70.657  1.00  0.00    -0.264 N  
HETATM    6  C   UNL     1     -10.661   8.400  71.876  1.00  0.00    -0.303 C  
HETATM    7  O   UNL     1      -9.559   8.964  71.968  1.00  0.00    -0.305 OA 
BRANCH   5   8
HETATM    8  C   UNL     1     -10.360   8.146  69.481  1.00  0.00    -0.222 A  
HETATM    9  C   UNL     1      -9.336   7.224  69.123  1.00  0.00    -0.146 A  
HETATM   10  C   UNL     1     -10.526   9.320  68.709  1.00  0.00    -0.210 A  
HETATM   11  I   UNL     1      -9.142   5.389  70.281  1.00  0.00    -0.198 I  
HETATM   12  C   UNL     1      -8.504   7.443  67.989  1.00  0.00    -0.123 A  
HETATM   13  I   UNL     1     -11.687  10.959  69.525  1.00  0.00    -0.425 I  
HETATM   14  I   UNL     1      -7.888   8.692  65.174  1.00  0.00    -0.131 I  
HETATM   15  C   UNL     1      -9.841   9.474  67.484  1.00  0.00    -0.213 A  
HETATM   16  C   UNL     1      -8.832   8.526  67.126  1.00  0.00    -0.129 A  
BRANCH  12  17
HETATM   17  C   UNL     1      -7.224   6.648  67.879  1.00  0.00    -0.091 C  
HETATM   18  N   UNL     1      -7.193   5.527  67.085  1.00  0.00    -0.074 N  
HETATM   19  H   UNL     1      -8.061   5.189  66.668  1.00  0.00     0.000 HD 
HETATM   20  O   UNL     1      -6.226   7.023  68.486  1.00  0.00    -0.032 OA 
BRANCH  18  21
HETATM   21  C   UNL     1      -5.947   4.805  66.821  1.00  0.00    -0.027 C  
BRANCH  21  22
HETATM   22  C   UNL     1      -6.187   3.294  66.909  1.00  0.00    -0.028 C  
HETATM   23  O   UNL     1      -5.318   2.623  65.983  1.00  0.00    -0.011 OA 
HETATM   24  H   UNL     1      -5.467   1.686  66.037  1.00  0.00     0.000 HD 
BRANCH  22  25
HETATM   25  C   UNL     1      -5.980   2.747  68.328  1.00  0.00    -0.024 C  
HETATM   26  H   UNL     1      -5.813   3.473  70.157  1.00  0.00     0.000 HD 
HETATM   27  O   UNL     1      -5.940   3.811  69.279  1.00  0.00    -0.022 OA 
ENDBRANCH  22  25
ENDBRANCH  21  22
ENDBRANCH  18  21
ENDBRANCH  12  17
BRANCH  15  28
HETATM   28  C   UNL     1     -10.136  10.635  66.582  1.00  0.00    -0.220 C  
HETATM   29  O   UNL     1     -10.873  10.502  65.611  1.00  0.00    -0.053 OA 
HETATM   30  H   UNL     1      -8.954  11.952  67.710  1.00  0.00     0.000 HD 
HETATM   31  N   UNL     1      -9.556  11.856  66.893  1.00  0.00    -0.196 N  
BRANCH  31  32
HETATM   32  C   UNL     1      -9.824  12.998  66.026  1.00  0.00    -0.255 C  
BRANCH  32  33
HETATM   33  C   UNL     1      -9.487  14.345  66.678  1.00  0.00    -0.283 C  
HETATM   34  H   UNL     1     -10.205  15.441  68.148  1.00  0.00     0.000 HD 
HETATM   35  O   UNL     1     -10.413  14.607  67.744  1.00  0.00    -0.243 OA 
BRANCH  33  36
HETATM   36  C   UNL     1      -8.043  14.341  67.207  1.00  0.00    -0.178 C  
HETATM   37  O   UNL     1      -7.843  15.343  68.201  1.00  0.00    -0.119 OA 
HETATM   38  H   UNL     1      -6.951  15.340  68.528  1.00  0.00     0.000 HD 
ENDBRANCH  33  36
ENDBRANCH  32  33
ENDBRANCH  31  32
ENDBRANCH  15  28
ENDBRANCH   5   8
BRANCH   6  39
HETATM   39  C   UNL     1     -11.491   8.162  73.147  1.00  0.00     0.230 C  
HETATM   40  O   UNL     1     -10.793   7.415  74.138  1.00  0.00    -0.505 OA 
HETATM   41  H   UNL     1     -11.306   7.268  74.924  1.00  0.00     0.000 HD 
ENDBRANCH   6  39
ENDBRANCH   4   5
ENDBRANCH   3   4
TORSDOF 12
ENDMDL
MODEL      116
REMARK 921   NORMALIZED FREE ENERGY PREDICTED BY IDOCK:   -3.15 KCAL/MOL
REMARK 922        TOTAL FREE ENERGY PREDICTED BY IDOCK:   -5.64 KCAL/MOL
REMARK 923 INTER-LIGAND FREE ENERGY PREDICTED BY IDOCK:   -5.04 KCAL/MOL
REMARK 924 INTRA-LIGAND FREE ENERGY PREDICTED BY IDOCK:   -0.60 KCAL/MOL
REMARK 927      BINDING AFFINITY PREDICTED BY RF-SCORE:    0.00 PKD
ROOT
HETATM    1  O   UNL     1     -11.660   4.226  65.036  1.00  0.00    -0.978 OA 
HETATM    2  H   UNL     1     -12.237   4.961  64.864  1.00  0.00     0.000 HD 
HETATM    3  C   UNL     1     -10.343   4.666  65.330  1.00  0.00    -0.146 C  
ENDROOT
BRANCH   3   4
HETATM    4  C   UNL     1      -9.413   3.478  65.606  1.00  0.00    -0.142 C  
BRANCH   4   5
HETATM    5  N   UNL     1      -8.118   3.819  66.240  1.00  0.00    -0.099 N  
HETATM    6  C   UNL     1      -6.869   3.398  65.773  1.00  0.00    -0.052 C  
HETATM    7  O   UNL     1      -5.803   3.848  66.222  1.00  0.00    -0.021 OA 
BRANCH   5   8
HETATM    8  C   UNL     1      -8.134   4.816  67.282  1.00  0.00    -0.102 A  
HETATM    9  C   UNL     1      -7.889   6.188  66.994  1.00  0.00    -0.101 A  
HETATM   10  C   UNL     1      -8.318   4.421  68.629  1.00  0.00    -0.084 A  
HETATM   11  I   UNL     1      -7.679   6.787  64.910  1.00  0.00    -0.112 I  
HETATM   12  C   UNL     1      -7.860   7.170  68.024  1.00  0.00    -0.118 A  
HETATM   13  I   UNL     1      -8.160   2.319  69.139  1.00  0.00    -0.075 I  
HETATM   14  I   UNL     1      -8.630   8.261  70.867  1.00  0.00    -0.212 I  
HETATM   15  C   UNL     1      -8.473   5.389  69.644  1.00  0.00    -0.100 A  
HETATM   16  C   UNL     1      -8.248   6.768  69.333  1.00  0.00    -0.128 A  
BRANCH  12  17
HETATM   17  C   UNL     1      -7.238   8.511  67.715  1.00  0.00    -0.084 C  
HETATM   18  N   UNL     1      -8.052   9.580  67.425  1.00  0.00    -0.110 N  
HETATM   19  H   UNL     1      -9.055   9.428  67.319  1.00  0.00     0.000 HD 
HETATM   20  O   UNL     1      -6.018   8.632  67.743  1.00  0.00    -0.045 OA 
BRANCH  18  21
HETATM   21  C   UNL     1      -7.517  10.934  67.266  1.00  0.00    -0.104 C  
BRANCH  21  22
HETATM   22  C   UNL     1      -8.099  11.584  66.006  1.00  0.00     0.131 C  
HETATM   23  O   UNL     1      -7.673  10.844  64.852  1.00  0.00    -0.353 OA 
HETATM   24  H   UNL     1      -8.034  11.247  64.071  1.00  0.00     0.000 HD 
BRANCH  22  25
HETATM   25  C   UNL     1      -9.630  11.677  66.047  1.00  0.00    -0.228 C  
HETATM   26  H   UNL     1     -11.141  11.357  64.816  1.00  0.00     0.000 HD 
HETATM   27  O   UNL     1     -10.193  11.299  64.790  1.00  0.00    -0.254 OA 
ENDBRANCH  22  25
ENDBRANCH  21  22
ENDBRANCH  18  21
ENDBRANCH  12  17
BRANCH  15  28
HETATM   28  C   UNL     1      -8.833   4.983  71.042  1.00  0.00    -0.131 C  
HETATM   29  O   UNL     1      -7.962   4.783  71.880  1.00  0.00    -0.099 OA 
HETATM   30  H   UNL     1     -10.894   5.039  70.644  1.00  0.00     0.000 HD 
HETATM   31  N   UNL     1     -10.180   4.857  71.349  1.00  0.00    -0.202 N  
BRANCH  31  32
HETATM   32  C   UNL     1     -10.555   4.459  72.701  1.00  0.00    -0.162 C  
BRANCH  32  33
HETATM   33  C   UNL     1     -11.404   5.508  73.429  1.00  0.00    -0.060 C  
HETATM   34  H   UNL     1     -11.077   7.000  74.671  1.00  0.00     0.000 HD 
HETATM   35  O   UNL     1     -10.551   6.350  74.220  1.00  0.00    -0.257 OA 
BRANCH  33  36
HETATM   36  C   UNL     1     -12.204   6.347  72.419  1.00  0.00    -0.071 C  
HETATM   37  O   UNL     1     -11.936   7.740  72.561  1.00  0.00    -0.470 OA 
HETATM   38  H   UNL     1     -12.430   8.258  71.937  1.00  0.00     0.000 HD 
ENDBRANCH  33  36
ENDBRANCH  32  33
ENDBRANCH  31  32
ENDBRANCH  15  28
ENDBRANCH   5   8
BRANCH   6  39
HETATM   39  C   UNL     1      -6.828   2.364  64.638  1.00  0.00    -0.043 C  
HETATM   40  O   UNL     1      -6.702   2.954  63.348  1.00  0.00    -0.029 OA 
HETATM   41  H   UNL     1      -6.676   2.313  62.646  1.00  0.00     0.000 HD 
ENDBRANCH   6  39
ENDBRANCH   4   5
ENDBRANCH   3   4
TORSDOF 12
ENDMDL
MODEL      117
REMARK 921   NORMALIZED FREE ENERGY PREDICTED BY IDOCK:   -3.12 KCAL/MOL
REMARK 922        TOTAL FREE ENERGY PREDICTED BY IDOCK:   -5.58 KCAL/MOL
REMARK 923 INTER-LIGAND FREE ENERGY PREDICTED BY IDOCK:   -5.65 KCAL/MOL
REMARK 924 INTRA-LIGAND FREE ENERGY PREDICTED BY IDOCK:    0.06 KCAL/MOL
REMARK 927      BINDING AFFINITY PREDICTED BY RF-SCORE:    0.00 PKD
ROOT
HETATM    1  O   UNL     1     -10.768   7.368  67.894  1.00  0.00    -0.347 OA 
HETATM    2  H   UNL     1     -10.613   6.638  68.482  1.00  0.00     0.000 HD 
HETATM    3  C   UNL     1      -9.625   7.635  67.095  1.00  0.00    -0.162 C  
ENDROOT
BRANCH   3   4
HETATM    4  C   UNL     1      -9.876   8.813  66.147  1.00  0.00    -0.227 C  
BRANCH   4   5
HETATM    5  N   UNL     1      -8.677   9.605  65.785  1.00  0.00    -0.141 N  
HETATM    6  C   UNL     1      -8.030   9.545  64.547  1.00  0.00    -0.133 C  
HETATM    7  O   UNL     1      -7.142  10.350  64.220  1.00  0.00    -0.094 OA 
BRANCH   5   8
HETATM    8  C   UNL     1      -8.278  10.652  66.692  1.00  0.00    -0.134 A  
HETATM    9  C   UNL     1      -7.295  10.424  67.695  1.00  0.00    -0.088 A  
HETATM   10  C   UNL     1      -8.928  11.909  66.643  1.00  0.00    -0.198 A  
HETATM   11  I   UNL     1      -6.257   8.508  67.712  1.00  0.00    -0.054 I  
HETATM   12  C   UNL     1      -6.930  11.440  68.622  1.00  0.00    -0.087 A  
HETATM   13  I   UNL     1     -10.761  12.101  65.502  1.00  0.00    -0.367 I  
HETATM   14  I   UNL     1      -6.644  14.439  69.513  1.00  0.00    -0.098 I  
HETATM   15  C   UNL     1      -8.462  12.987  67.426  1.00  0.00    -0.200 A  
HETATM   16  C   UNL     1      -7.455  12.747  68.414  1.00  0.00    -0.124 A  
BRANCH  12  17
HETATM   17  C   UNL     1      -6.177  11.034  69.868  1.00  0.00    -0.127 C  
HETATM   18  N   UNL     1      -6.663  10.009  70.644  1.00  0.00    -0.106 N  
HETATM   19  H   UNL     1      -7.577   9.611  70.428  1.00  0.00     0.000 HD 
HETATM   20  O   UNL     1      -5.135  11.611  70.159  1.00  0.00    -0.068 OA 
BRANCH  18  21
HETATM   21  C   UNL     1      -5.901   9.473  71.774  1.00  0.00    -0.002 C  
BRANCH  21  22
HETATM   22  C   UNL     1      -6.693   8.353  72.457  1.00  0.00    -0.092 C  
HETATM   23  O   UNL     1      -7.978   8.856  72.855  1.00  0.00    -0.379 OA 
HETATM   24  H   UNL     1      -8.469   8.162  73.278  1.00  0.00     0.000 HD 
BRANCH  22  25
HETATM   25  C   UNL     1      -6.857   7.117  71.560  1.00  0.00    -0.056 C  
HETATM   26  H   UNL     1      -6.700   5.157  71.741  1.00  0.00     0.000 HD 
HETATM   27  O   UNL     1      -6.598   5.921  72.296  1.00  0.00    -0.056 OA 
ENDBRANCH  22  25
ENDBRANCH  21  22
ENDBRANCH  18  21
ENDBRANCH  12  17
BRANCH  15  28
HETATM   28  C   UNL     1      -9.036  14.362  67.258  1.00  0.00    -0.212 C  
HETATM   29  O   UNL     1      -9.905  14.775  68.017  1.00  0.00    -0.212 OA 
HETATM   30  H   UNL     1      -7.809  14.790  65.609  1.00  0.00     0.000 HD 
HETATM   31  N   UNL     1      -8.540  15.144  66.225  1.00  0.00    -0.115 N  
BRANCH  31  32
HETATM   32  C   UNL     1      -9.086  16.483  66.038  1.00  0.00    -0.255 C  
BRANCH  32  33
HETATM   33  C   UNL     1      -8.165  17.593  66.560  1.00  0.00    -0.273 C  
HETATM   34  H   UNL     1      -7.333  19.221  65.831  1.00  0.00     0.000 HD 
HETATM   35  O   UNL     1      -7.903  18.534  65.507  1.00  0.00    -0.434 OA 
BRANCH  33  36
HETATM   36  C   UNL     1      -8.805  18.299  67.767  1.00  0.00    -0.263 C  
HETATM   37  O   UNL     1      -9.452  19.511  67.386  1.00  0.00    -0.303 OA 
HETATM   38  H   UNL     1      -9.848  19.947  68.132  1.00  0.00     0.000 HD 
ENDBRANCH  33  36
ENDBRANCH  32  33
ENDBRANCH  31  32
ENDBRANCH  15  28
ENDBRANCH   5   8
BRANCH   6  39
HETATM   39  C   UNL     1      -8.464   8.460  63.550  1.00  0.00     0.022 C  
HETATM   40  O   UNL     1      -8.154   7.142  63.988  1.00  0.00    -0.261 OA 
HETATM   41  H   UNL     1      -8.422   6.471  63.371  1.00  0.00     0.000 HD 
ENDBRANCH   6  39
ENDBRANCH   4   5
ENDBRANCH   3   4
TORSDOF 12
ENDMDL
MODEL      118
REMARK 921   NORMALIZED FREE ENERGY PREDICTED BY IDOCK:   -2.89 KCAL/MOL
REMARK 922        TOTAL FREE ENERGY PREDICTED BY IDOCK:   -5.20 KCAL/MOL
REMARK 923 INTER-LIGAND FREE ENERGY PREDICTED BY IDOCK:   -5.20 KCAL/MOL
REMARK 924 INTRA-LIGAND FREE ENERGY PREDICTED BY IDOCK:    0.01 KCAL/MOL
REMARK 927      BINDING AFFINITY PREDICTED BY RF-SCORE:    0.00 PKD
ROOT
HETATM    1  O   UNL     1     -12.415  14.018  65.545  1.00  0.00    -0.458 OA 
HETATM    2  H   UNL     1     -12.942  14.741  65.867  1.00  0.00     0.000 HD 
HETATM    3  C   UNL     1     -12.162  13.072  66.573  1.00  0.00    -0.246 C  
ENDROOT
BRANCH   3   4
HETATM    4  C   UNL     1     -11.312  11.906  66.054  1.00  0.00    -0.316 C  
BRANCH   4   5
HETATM    5  N   UNL     1     -10.156  11.535  66.903  1.00  0.00    -0.209 N  
HETATM    6  C   UNL     1      -9.333  12.448  67.569  1.00  0.00    -0.181 C  
HETATM    7  O   UNL     1      -8.490  12.096  68.409  1.00  0.00    -0.169 OA 
BRANCH   5   8
HETATM    8  C   UNL     1      -9.996  10.139  67.228  1.00  0.00    -0.195 A  
HETATM    9  C   UNL     1     -10.565   9.588  68.410  1.00  0.00    -0.219 A  
HETATM   10  C   UNL     1      -9.195   9.313  66.403  1.00  0.00    -0.180 A  
HETATM   11  I   UNL     1     -11.852  10.855  69.630  1.00  0.00    -0.409 I  
HETATM   12  C   UNL     1     -10.373   8.221  68.759  1.00  0.00    -0.223 A  
HETATM   13  I   UNL     1      -7.909  10.238  64.923  1.00  0.00     0.010 I  
HETATM   14  I   UNL     1      -9.764   5.219  68.065  1.00  0.00    -0.200 I  
HETATM   15  C   UNL     1      -9.137   7.921  66.626  1.00  0.00    -0.199 A  
HETATM   16  C   UNL     1      -9.735   7.378  67.807  1.00  0.00    -0.143 A  
BRANCH  12  17
HETATM   17  C   UNL     1     -10.675   7.797  70.177  1.00  0.00    -0.240 C  
HETATM   18  N   UNL     1      -9.638   7.456  71.014  1.00  0.00    -0.162 N  
HETATM   19  H   UNL     1      -8.694   7.390  70.634  1.00  0.00     0.000 HD 
HETATM   20  O   UNL     1     -11.837   7.781  70.569  1.00  0.00    -0.188 OA 
BRANCH  18  21
HETATM   21  C   UNL     1      -9.855   7.184  72.436  1.00  0.00    -0.150 C  
BRANCH  21  22
HETATM   22  C   UNL     1      -8.593   6.570  73.051  1.00  0.00    -0.118 C  
HETATM   23  O   UNL     1      -8.956   5.809  74.214  1.00  0.00    -0.121 OA 
HETATM   24  H   UNL     1      -8.174   5.429  74.596  1.00  0.00     0.000 HD 
BRANCH  22  25
HETATM   25  C   UNL     1      -7.821   5.692  72.057  1.00  0.00    -0.106 C  
HETATM   26  H   UNL     1      -8.196   4.151  70.879  1.00  0.00     0.000 HD 
HETATM   27  O   UNL     1      -8.674   4.695  71.495  1.00  0.00    -0.115 OA 
ENDBRANCH  22  25
ENDBRANCH  21  22
ENDBRANCH  18  21
ENDBRANCH  12  17
BRANCH  15  28
HETATM   28  C   UNL     1      -8.427   7.019  65.660  1.00  0.00    -0.138 C  
HETATM   29  O   UNL     1      -9.002   6.588  64.668  1.00  0.00     0.365 OA 
HETATM   30  H   UNL     1      -6.636   7.080  66.753  1.00  0.00     0.000 HD 
HETATM   31  N   UNL     1      -7.103   6.704  65.929  1.00  0.00    -0.061 N  
BRANCH  31  32
HETATM   32  C   UNL     1      -6.393   5.824  65.007  1.00  0.00    -0.037 C  
BRANCH  32  33
HETATM   33  C   UNL     1      -6.141   4.424  65.578  1.00  0.00    -0.027 C  
HETATM   34  H   UNL     1      -5.310   2.752  64.951  1.00  0.00     0.000 HD 
HETATM   35  O   UNL     1      -5.466   3.620  64.597  1.00  0.00    -0.009 OA 
BRANCH  33  36
HETATM   36  C   UNL     1      -5.307   4.511  66.868  1.00  0.00    -0.013 C  
HETATM   37  O   UNL     1      -6.103   4.274  68.027  1.00  0.00    -0.029 OA 
HETATM   38  H   UNL     1      -5.589   4.328  68.823  1.00  0.00     0.000 HD 
ENDBRANCH  33  36
ENDBRANCH  32  33
ENDBRANCH  31  32
ENDBRANCH  15  28
ENDBRANCH   5   8
BRANCH   6  39
HETATM   39  C   UNL     1      -9.510  13.944  67.265  1.00  0.00    -0.239 C  
HETATM   40  O   UNL     1      -8.929  14.336  66.026  1.00  0.00    -0.476 OA 
HETATM   41  H   UNL     1      -9.039  15.261  65.838  1.00  0.00     0.000 HD 
ENDBRANCH   6  39
ENDBRANCH   4   5
ENDBRANCH   3   4
TORSDOF 12
ENDMDL
MODEL      119
REMARK 921   NORMALIZED FREE ENERGY PREDICTED BY IDOCK:   -2.85 KCAL/MOL
REMARK 922        TOTAL FREE ENERGY PREDICTED BY IDOCK:   -5.13 KCAL/MOL
REMARK 923 INTER-LIGAND FREE ENERGY PREDICTED BY IDOCK:   -6.68 KCAL/MOL
REMARK 924 INTRA-LIGAND FREE ENERGY PREDICTED BY IDOCK:    1.55 KCAL/MOL
REMARK 927      BINDING AFFINITY PREDICTED BY RF-SCORE:    0.00 PKD
ROOT
HETATM    1  O   UNL     1     -10.399  16.071  68.589  1.00  0.00    -0.225 OA 
HETATM    2  H   UNL     1      -9.803  16.710  68.216  1.00  0.00     0.000 HD 
HETATM    3  C   UNL     1      -9.752  14.824  68.793  1.00  0.00    -0.222 C  
ENDROOT
BRANCH   3   4
HETATM    4  C   UNL     1     -10.715  13.794  69.395  1.00  0.00     0.025 C  
BRANCH   4   5
HETATM    5  N   UNL     1     -11.040  12.642  68.523  1.00  0.00    -0.250 N  
HETATM    6  C   UNL     1     -11.723  12.734  67.306  1.00  0.00    -0.378 C  
HETATM    7  O   UNL     1     -11.819  11.777  66.521  1.00  0.00    -0.550 OA 
BRANCH   5   8
HETATM    8  C   UNL     1     -10.435  11.374  68.849  1.00  0.00    -0.193 A  
HETATM    9  C   UNL     1     -10.980  10.536  69.861  1.00  0.00    -0.298 A  
HETATM   10  C   UNL     1      -9.232  10.986  68.211  1.00  0.00    -0.165 A  
HETATM   11  I   UNL     1     -12.868  11.115  70.781  1.00  0.00    -0.036 I  
HETATM   12  C   UNL     1     -10.361   9.304  70.218  1.00  0.00    -0.272 A  
HETATM   13  I   UNL     1      -8.119  12.462  67.079  1.00  0.00     0.071 I  
HETATM   14  I   UNL     1      -8.537   6.818  69.623  1.00  0.00    -0.132 I  
HETATM   15  C   UNL     1      -8.699   9.695  68.414  1.00  0.00    -0.120 A  
HETATM   16  C   UNL     1      -9.273   8.853  69.419  1.00  0.00    -0.146 A  
BRANCH  12  17
HETATM   17  C   UNL     1     -10.761   8.656  71.523  1.00  0.00    -0.282 C  
HETATM   18  N   UNL     1      -9.947   7.697  72.076  1.00  0.00    -0.171 N  
HETATM   19  H   UNL     1      -9.143   7.360  71.546  1.00  0.00     0.000 HD 
HETATM   20  O   UNL     1     -11.796   9.008  72.079  1.00  0.00    -0.358 OA 
BRANCH  18  21
HETATM   21  C   UNL     1     -10.205   7.145  73.408  1.00  0.00    -0.325 C  
BRANCH  21  22
HETATM   22  C   UNL     1     -10.900   5.784  73.287  1.00  0.00    -0.272 C  
HETATM   23  O   UNL     1     -12.117   5.940  72.541  1.00  0.00    -0.495 OA 
HETATM   24  H   UNL     1     -12.548   5.097  72.466  1.00  0.00     0.000 HD 
BRANCH  22  25
HETATM   25  C   UNL     1     -10.005   4.722  72.633  1.00  0.00    -0.164 C  
HETATM   26  H   UNL     1      -8.120   4.142  72.739  1.00  0.00     0.000 HD 
HETATM   27  O   UNL     1      -8.673   4.800  73.143  1.00  0.00    -0.109 OA 
ENDBRANCH  22  25
ENDBRANCH  21  22
ENDBRANCH  18  21
ENDBRANCH  12  17
BRANCH  15  28
HETATM   28  C   UNL     1      -7.521   9.217  67.618  1.00  0.00    -0.088 C  
HETATM   29  O   UNL     1      -6.381   9.341  68.050  1.00  0.00    -0.053 OA 
HETATM   30  H   UNL     1      -8.728   8.520  66.048  1.00  0.00     0.000 HD 
HETATM   31  N   UNL     1      -7.773   8.626  66.389  1.00  0.00    -0.094 N  
BRANCH  31  32
HETATM   32  C   UNL     1      -6.643   8.158  65.593  1.00  0.00    -0.049 C  
BRANCH  32  33
HETATM   33  C   UNL     1      -6.687   8.637  64.137  1.00  0.00    -0.075 C  
HETATM   34  H   UNL     1      -6.416   7.834  62.360  1.00  0.00     0.000 HD 
HETATM   35  O   UNL     1      -6.389   7.538  63.262  1.00  0.00    -0.053 OA 
BRANCH  33  36
HETATM   36  C   UNL     1      -8.067   9.230  63.807  1.00  0.00    -0.155 C  
HETATM   37  O   UNL     1      -8.719   8.502  62.769  1.00  0.00    -0.415 OA 
HETATM   38  H   UNL     1      -9.571   8.869  62.565  1.00  0.00     0.000 HD 
ENDBRANCH  33  36
ENDBRANCH  32  33
ENDBRANCH  31  32
ENDBRANCH  15  28
ENDBRANCH   5   8
BRANCH   6  39
HETATM   39  C   UNL     1     -12.344  14.085  66.921  1.00  0.00    -0.286 C  
HETATM   40  O   UNL     1     -11.565  14.810  65.974  1.00  0.00    -0.349 OA 
HETATM   41  H   UNL     1     -11.950  15.646  65.736  1.00  0.00     0.000 HD 
ENDBRANCH   6  39
ENDBRANCH   4   5
ENDBRANCH   3   4
TORSDOF 12
ENDMDL
MODEL      120
REMARK 921   NORMALIZED FREE ENERGY PREDICTED BY IDOCK:   -2.84 KCAL/MOL
REMARK 922        TOTAL FREE ENERGY PREDICTED BY IDOCK:   -5.11 KCAL/MOL
REMARK 923 INTER-LIGAND FREE ENERGY PREDICTED BY IDOCK:   -7.59 KCAL/MOL
REMARK 924 INTRA-LIGAND FREE ENERGY PREDICTED BY IDOCK:    2.49 KCAL/MOL
REMARK 927      BINDING AFFINITY PREDICTED BY RF-SCORE:    0.00 PKD
ROOT
HETATM    1  O   UNL     1     -14.385  13.978  72.420  1.00  0.00    -0.614 OA 
HETATM    2  H   UNL     1     -14.568  14.579  73.132  1.00  0.00     0.000 HD 
HETATM    3  C   UNL     1     -13.708  14.633  71.358  1.00  0.00    -0.404 C  
ENDROOT
BRANCH   3   4
HETATM    4  C   UNL     1     -13.412  13.662  70.209  1.00  0.00     0.968 C  
BRANCH   4   5
HETATM    5  N   UNL     1     -12.044  13.740  69.646  1.00  0.00    -0.335 N  
HETATM    6  C   UNL     1     -11.116  14.741  69.949  1.00  0.00    -0.233 C  
HETATM    7  O   UNL     1      -9.927  14.675  69.600  1.00  0.00    -0.032 OA 
BRANCH   5   8
HETATM    8  C   UNL     1     -11.570  12.600  68.900  1.00  0.00    -0.317 A  
HETATM    9  C   UNL     1     -11.247  12.705  67.519  1.00  0.00    -0.288 A  
HETATM   10  C   UNL     1     -11.499  11.332  69.527  1.00  0.00    -0.307 A  
HETATM   11  I   UNL     1     -11.296  14.676  66.590  1.00  0.00    -0.300 I  
HETATM   12  C   UNL     1     -10.822  11.574  66.767  1.00  0.00    -0.330 A  
HETATM   13  I   UNL     1     -12.477  11.048  71.441  1.00  0.00    -0.181 I  
HETATM   14  I   UNL     1      -9.534   8.721  66.498  1.00  0.00    -0.335 I  
HETATM   15  C   UNL     1     -10.911  10.236  68.859  1.00  0.00    -0.279 A  
HETATM   16  C   UNL     1     -10.568  10.365  67.475  1.00  0.00    -0.262 A  
BRANCH  12  17
HETATM   17  C   UNL     1     -10.855  11.664  65.260  1.00  0.00    -0.283 C  
HETATM   18  N   UNL     1      -9.694  11.479  64.548  1.00  0.00    -0.318 N  
HETATM   19  H   UNL     1      -8.811  11.390  65.051  1.00  0.00     0.000 HD 
HETATM   20  O   UNL     1     -11.919  11.885  64.691  1.00  0.00    -0.274 OA 
BRANCH  18  21
HETATM   21  C   UNL     1      -9.692  11.406  63.085  1.00  0.00    -0.393 C  
BRANCH  21  22
HETATM   22  C   UNL     1      -8.456  10.640  62.600  1.00  0.00    -0.210 C  
HETATM   23  O   UNL     1      -7.358  10.903  63.486  1.00  0.00    -0.330 OA 
HETATM   24  H   UNL     1      -6.592  10.428  63.186  1.00  0.00     0.000 HD 
BRANCH  22  25
HETATM   25  C   UNL     1      -8.706   9.129  62.490  1.00  0.00    -0.211 C  
HETATM   26  H   UNL     1      -7.859   7.464  63.130  1.00  0.00     0.000 HD 
HETATM   27  O   UNL     1      -7.704   8.399  63.198  1.00  0.00    -0.121 OA 
ENDBRANCH  22  25
ENDBRANCH  21  22
ENDBRANCH  18  21
ENDBRANCH  12  17
BRANCH  15  28
HETATM   28  C   UNL     1     -10.680   8.937  69.572  1.00  0.00    -0.199 C  
HETATM   29  O   UNL     1     -11.402   7.970  69.359  1.00  0.00     0.117 OA 
HETATM   30  H   UNL     1      -9.023   9.684  70.622  1.00  0.00     0.000 HD 
HETATM   31  N   UNL     1      -9.621   8.873  70.465  1.00  0.00    -0.187 N  
BRANCH  31  32
HETATM   32  C   UNL     1      -9.379   7.622  71.174  1.00  0.00    -0.154 C  
BRANCH  32  33
HETATM   33  C   UNL     1      -9.586   7.734  72.690  1.00  0.00    -0.202 C  
HETATM   34  H   UNL     1      -9.050   8.979  74.117  1.00  0.00     0.000 HD 
HETATM   35  O   UNL     1      -8.922   8.910  73.179  1.00  0.00    -0.174 OA 
BRANCH  33  36
HETATM   36  C   UNL     1     -11.086   7.784  73.025  1.00  0.00    -0.359 C  
HETATM   37  O   UNL     1     -11.805   6.732  72.384  1.00  0.00    -0.410 OA 
HETATM   38  H   UNL     1     -12.732   6.763  72.591  1.00  0.00     0.000 HD 
ENDBRANCH  33  36
ENDBRANCH  32  33
ENDBRANCH  31  32
ENDBRANCH  15  28
ENDBRANCH   5   8
BRANCH   6  39
HETATM   39  C   UNL     1     -11.590  15.947  70.774  1.00  0.00    -0.410 C  
HETATM   40  O   UNL     1     -11.231  15.860  72.149  1.00  0.00    -0.224 OA 
HETATM   41  H   UNL     1     -11.524  16.607  72.659  1.00  0.00     0.000 HD 
ENDBRANCH   6  39
ENDBRANCH   4   5
ENDBRANCH   3   4
TORSDOF 12
ENDMDL
MODEL      121
REMARK 921   NORMALIZED FREE ENERGY PREDICTED BY IDOCK:   -2.82 KCAL/MOL
REMARK 922        TOTAL FREE ENERGY PREDICTED BY IDOCK:   -5.07 KCAL/MOL
REMARK 923 INTER-LIGAND FREE ENERGY PREDICTED BY IDOCK:   -7.80 KCAL/MOL
REMARK 924 INTRA-LIGAND FREE ENERGY PREDICTED BY IDOCK:    2.73 KCAL/MOL
REMARK 927      BINDING AFFINITY PREDICTED BY RF-SCORE:    0.00 PKD
ROOT
HETATM    1  O   UNL     1     -14.400  14.129  72.473  1.00  0.00    -0.595 OA 
HETATM    2  H   UNL     1     -14.688  14.741  73.139  1.00  0.00     0.000 HD 
HETATM    3  C   UNL     1     -13.844  14.809  71.357  1.00  0.00    -0.435 C  
ENDROOT
BRANCH   3   4
HETATM    4  C   UNL     1     -13.380  13.820  70.282  1.00  0.00     0.652 C  
BRANCH   4   5
HETATM    5  N   UNL     1     -11.926  13.825  69.998  1.00  0.00    -0.321 N  
HETATM    6  C   UNL     1     -11.046  14.844  70.375  1.00  0.00    -0.174 C  
HETATM    7  O   UNL     1      -9.814  14.731  70.279  1.00  0.00     0.289 OA 
BRANCH   5   8
HETATM    8  C   UNL     1     -11.348  12.607  69.485  1.00  0.00    -0.158 A  
HETATM    9  C   UNL     1     -10.665  12.584  68.237  1.00  0.00    -0.228 A  
HETATM   10  C   UNL     1     -11.528  11.393  70.191  1.00  0.00    -0.214 A  
HETATM   11  I   UNL     1     -10.338  14.472  67.199  1.00  0.00    -0.273 I  
HETATM   12  C   UNL     1     -10.133  11.376  67.704  1.00  0.00    -0.200 A  
HETATM   13  I   UNL     1     -12.993  11.312  71.787  1.00  0.00     0.046 I  
HETATM   14  I   UNL     1      -9.011   8.455  67.981  1.00  0.00    -0.145 I  
HETATM   15  C   UNL     1     -10.859  10.220  69.780  1.00  0.00    -0.332 A  
HETATM   16  C   UNL     1     -10.155  10.219  68.533  1.00  0.00    -0.165 A  
BRANCH  12  17
HETATM   17  C   UNL     1      -9.761  11.344  66.240  1.00  0.00    -0.212 C  
HETATM   18  N   UNL     1     -10.757  11.326  65.292  1.00  0.00    -0.266 N  
HETATM   19  H   UNL     1     -11.727  11.226  65.592  1.00  0.00     0.000 HD 
HETATM   20  O   UNL     1      -8.578  11.353  65.917  1.00  0.00    -0.149 OA 
BRANCH  18  21
HETATM   21  C   UNL     1     -10.460  11.447  63.864  1.00  0.00    -0.387 C  
BRANCH  21  22
HETATM   22  C   UNL     1     -11.564  12.248  63.165  1.00  0.00    -0.200 C  
HETATM   23  O   UNL     1     -12.538  11.341  62.626  1.00  0.00    -0.821 OA 
HETATM   24  H   UNL     1     -13.222  11.838  62.193  1.00  0.00     0.000 HD 
BRANCH  22  25
HETATM   25  C   UNL     1     -12.237  13.262  64.100  1.00  0.00    -0.401 C  
HETATM   26  H   UNL     1     -13.574  13.238  65.553  1.00  0.00     0.000 HD 
HETATM   27  O   UNL     1     -13.158  12.610  64.974  1.00  0.00    -0.808 OA 
ENDBRANCH  22  25
ENDBRANCH  21  22
ENDBRANCH  18  21
ENDBRANCH  12  17
BRANCH  15  28
HETATM   28  C   UNL     1     -10.910   8.975  70.614  1.00  0.00    -0.243 C  
HETATM   29  O   UNL     1     -11.713   8.084  70.360  1.00  0.00    -0.154 OA 
HETATM   30  H   UNL     1      -9.345   9.614  71.858  1.00  0.00     0.000 HD 
HETATM   31  N   UNL     1     -10.014   8.869  71.667  1.00  0.00    -0.310 N  
BRANCH  31  32
HETATM   32  C   UNL     1     -10.048   7.669  72.496  1.00  0.00    -0.229 C  
BRANCH  32  33
HETATM   33  C   UNL     1      -8.724   7.392  73.217  1.00  0.00    -0.151 C  
HETATM   34  H   UNL     1      -7.321   8.461  74.093  1.00  0.00     0.000 HD 
HETATM   35  O   UNL     1      -8.142   8.633  73.646  1.00  0.00    -0.406 OA 
BRANCH  33  36
HETATM   36  C   UNL     1      -8.951   6.459  74.419  1.00  0.00    -0.159 C  
HETATM   37  O   UNL     1      -7.909   5.494  74.542  1.00  0.00    -0.097 OA 
HETATM   38  H   UNL     1      -8.050   4.918  75.284  1.00  0.00     0.000 HD 
ENDBRANCH  33  36
ENDBRANCH  32  33
ENDBRANCH  31  32
ENDBRANCH  15  28
ENDBRANCH   5   8
BRANCH   6  39
HETATM   39  C   UNL     1     -11.637  16.137  70.958  1.00  0.00    -0.393 C  
HETATM   40  O   UNL     1     -11.130  17.314  70.338  1.00  0.00    -0.166 OA 
HETATM   41  H   UNL     1     -11.496  18.113  70.699  1.00  0.00     0.000 HD 
ENDBRANCH   6  39
ENDBRANCH   4   5
ENDBRANCH   3   4
TORSDOF 12
ENDMDL
MODEL      122
REMARK 921   NORMALIZED FREE ENERGY PREDICTED BY IDOCK:   -2.80 KCAL/MOL
REMARK 922        TOTAL FREE ENERGY PREDICTED BY IDOCK:   -5.04 KCAL/MOL
REMARK 923 INTER-LIGAND FREE ENERGY PREDICTED BY IDOCK:   -4.23 KCAL/MOL
REMARK 924 INTRA-LIGAND FREE ENERGY PREDICTED BY IDOCK:   -0.81 KCAL/MOL
REMARK 927      BINDING AFFINITY PREDICTED BY RF-SCORE:    0.00 PKD
ROOT
HETATM    1  O   UNL     1     -11.622   6.410  67.110  1.00  0.00    -0.708 OA 
HETATM    2  H   UNL     1     -12.089   6.311  67.931  1.00  0.00     0.000 HD 
HETATM    3  C   UNL     1     -10.502   5.540  67.049  1.00  0.00    -0.274 C  
ENDROOT
BRANCH   3   4
HETATM    4  C   UNL     1      -9.748   5.701  65.723  1.00  0.00     0.087 C  
BRANCH   4   5
HETATM    5  N   UNL     1      -8.374   6.242  65.834  1.00  0.00    -0.135 N  
HETATM    6  C   UNL     1      -7.437   6.251  64.797  1.00  0.00    -0.086 C  
HETATM    7  O   UNL     1      -6.364   6.871  64.872  1.00  0.00    -0.038 OA 
BRANCH   5   8
HETATM    8  C   UNL     1      -8.053   6.992  67.024  1.00  0.00    -0.117 A  
HETATM    9  C   UNL     1      -7.535   6.350  68.183  1.00  0.00    -0.094 A  
HETATM   10  C   UNL     1      -8.330   8.379  67.074  1.00  0.00    -0.114 A  
HETATM   11  I   UNL     1      -7.051   4.229  68.063  1.00  0.00    -0.061 I  
HETATM   12  C   UNL     1      -7.259   7.078  69.375  1.00  0.00    -0.085 A  
HETATM   13  I   UNL     1      -9.590   9.257  65.543  1.00  0.00     0.090 I  
HETATM   14  I   UNL     1      -6.569   9.709  70.945  1.00  0.00     0.097 I  
HETATM   15  C   UNL     1      -7.901   9.155  68.172  1.00  0.00    -0.099 A  
HETATM   16  C   UNL     1      -7.359   8.497  69.322  1.00  0.00    -0.071 A  
BRANCH  12  17
HETATM   17  C   UNL     1      -7.073   6.303  70.658  1.00  0.00    -0.069 C  
HETATM   18  N   UNL     1      -8.177   5.954  71.400  1.00  0.00    -0.121 N  
HETATM   19  H   UNL     1      -9.092   6.315  71.131  1.00  0.00     0.000 HD 
HETATM   20  O   UNL     1      -5.944   5.981  71.011  1.00  0.00    -0.027 OA 
BRANCH  18  21
HETATM   21  C   UNL     1      -8.071   5.077  72.568  1.00  0.00    -0.109 C  
BRANCH  21  22
HETATM   22  C   UNL     1      -9.470   4.723  73.086  1.00  0.00    -0.127 C  
HETATM   23  O   UNL     1     -10.330   5.864  72.944  1.00  0.00    -0.185 OA 
HETATM   24  H   UNL     1     -11.196   5.645  73.265  1.00  0.00     0.000 HD 
BRANCH  22  25
HETATM   25  C   UNL     1     -10.072   3.507  72.369  1.00  0.00    -0.162 C  
HETATM   26  H   UNL     1      -9.997   2.692  70.572  1.00  0.00     0.000 HD 
HETATM   27  O   UNL     1      -9.624   3.445  71.015  1.00  0.00    -0.154 OA 
ENDBRANCH  22  25
ENDBRANCH  21  22
ENDBRANCH  18  21
ENDBRANCH  12  17
BRANCH  15  28
HETATM   28  C   UNL     1      -8.041  10.648  68.159  1.00  0.00    -0.114 C  
HETATM   29  O   UNL     1      -7.112  11.361  67.798  1.00  0.00    -0.075 OA 
HETATM   30  H   UNL     1     -10.025  10.576  68.842  1.00  0.00     0.000 HD 
HETATM   31  N   UNL     1      -9.257  11.184  68.556  1.00  0.00    -0.178 N  
BRANCH  31  32
HETATM   32  C   UNL     1      -9.416  12.634  68.556  1.00  0.00    -0.091 C  
BRANCH  32  33
HETATM   33  C   UNL     1     -10.306  13.146  67.417  1.00  0.00    -0.239 C  
HETATM   34  H   UNL     1     -11.572  12.363  66.128  1.00  0.00     0.000 HD 
HETATM   35  O   UNL     1     -11.021  12.046  66.834  1.00  0.00    -0.253 OA 
BRANCH  33  36
HETATM   36  C   UNL     1     -11.286  14.211  67.938  1.00  0.00    -0.294 C  
HETATM   37  O   UNL     1     -11.846  13.841  69.196  1.00  0.00    -0.310 OA 
HETATM   38  H   UNL     1     -12.451  14.498  69.518  1.00  0.00     0.000 HD 
ENDBRANCH  33  36
ENDBRANCH  32  33
ENDBRANCH  31  32
ENDBRANCH  15  28
ENDBRANCH   5   8
BRANCH   6  39
HETATM   39  C   UNL     1      -7.773   5.489  63.506  1.00  0.00    -0.089 C  
HETATM   40  O   UNL     1      -6.626   4.943  62.863  1.00  0.00    -0.026 OA 
HETATM   41  H   UNL     1      -6.834   4.472  62.064  1.00  0.00     0.000 HD 
ENDBRANCH   6  39
ENDBRANCH   4   5
ENDBRANCH   3   4
TORSDOF 12
ENDMDL
MODEL      123
REMARK 921   NORMALIZED FREE ENERGY PREDICTED BY IDOCK:   -2.78 KCAL/MOL
REMARK 922        TOTAL FREE ENERGY PREDICTED BY IDOCK:   -5.00 KCAL/MOL
REMARK 923 INTER-LIGAND FREE ENERGY PREDICTED BY IDOCK:   -5.64 KCAL/MOL
REMARK 924 INTRA-LIGAND FREE ENERGY PREDICTED BY IDOCK:    0.64 KCAL/MOL
REMARK 927      BINDING AFFINITY PREDICTED BY RF-SCORE:    0.00 PKD
ROOT
HETATM    1  O   UNL     1     -13.909  14.392  65.809  1.00  0.00    -0.142 OA 
HETATM    2  H   UNL     1     -14.537  14.982  66.208  1.00  0.00     0.000 HD 
HETATM    3  C   UNL     1     -13.021  13.857  66.779  1.00  0.00     0.875 C  
ENDROOT
BRANCH   3   4
HETATM    4  C   UNL     1     -12.007  12.904  66.135  1.00  0.00    -0.429 C  
BRANCH   4   5
HETATM    5  N   UNL     1     -10.725  13.522  65.723  1.00  0.00    -0.272 N  
HETATM    6  C   UNL     1     -10.608  14.578  64.814  1.00  0.00    -0.377 C  
HETATM    7  O   UNL     1      -9.540  15.184  64.632  1.00  0.00     0.213 OA 
BRANCH   5   8
HETATM    8  C   UNL     1      -9.544  13.150  66.463  1.00  0.00    -0.268 A  
HETATM    9  C   UNL     1      -8.983  11.847  66.349  1.00  0.00    -0.180 A  
HETATM   10  C   UNL     1      -8.974  14.064  67.381  1.00  0.00    -0.206 A  
HETATM   11  I   UNL     1      -9.831  10.479  64.881  1.00  0.00    -0.372 I  
HETATM   12  C   UNL     1      -7.845  11.460  67.110  1.00  0.00    -0.156 A  
HETATM   13  I   UNL     1     -10.106  15.822  67.955  1.00  0.00    -0.241 I  
HETATM   14  I   UNL     1      -5.220  12.074  68.723  1.00  0.00    -0.050 I  
HETATM   15  C   UNL     1      -7.745  13.772  68.012  1.00  0.00    -0.152 A  
HETATM   16  C   UNL     1      -7.180  12.465  67.867  1.00  0.00    -0.110 A  
BRANCH  12  17
HETATM   17  C   UNL     1      -7.531   9.986  67.226  1.00  0.00    -0.091 C  
HETATM   18  N   UNL     1      -8.077   9.260  68.257  1.00  0.00    -0.106 N  
HETATM   19  H   UNL     1      -8.597   9.747  68.987  1.00  0.00     0.000 HD 
HETATM   20  O   UNL     1      -6.808   9.455  66.389  1.00  0.00    -0.081 OA 
BRANCH  18  21
HETATM   21  C   UNL     1      -7.932   7.805  68.334  1.00  0.00    -0.122 C  
BRANCH  21  22
HETATM   22  C   UNL     1      -9.110   7.200  69.106  1.00  0.00    -0.137 C  
HETATM   23  O   UNL     1      -9.796   8.243  69.815  1.00  0.00    -0.182 OA 
HETATM   24  H   UNL     1     -10.526   7.869  70.294  1.00  0.00     0.000 HD 
BRANCH  22  25
HETATM   25  C   UNL     1     -10.084   6.442  68.195  1.00  0.00    -0.149 C  
HETATM   26  H   UNL     1     -10.931   6.706  66.430  1.00  0.00     0.000 HD 
HETATM   27  O   UNL     1     -10.328   7.176  66.994  1.00  0.00    -0.242 OA 
ENDBRANCH  22  25
ENDBRANCH  21  22
ENDBRANCH  18  21
ENDBRANCH  12  17
BRANCH  15  28
HETATM   28  C   UNL     1      -7.052  14.801  68.855  1.00  0.00    -0.118 C  
HETATM   29  O   UNL     1      -7.123  14.759  70.077  1.00  0.00    -0.165 OA 
HETATM   30  H   UNL     1      -6.268  15.799  67.183  1.00  0.00     0.000 HD 
HETATM   31  N   UNL     1      -6.326  15.785  68.201  1.00  0.00    -0.115 N  
BRANCH  31  32
HETATM   32  C   UNL     1      -5.647  16.800  68.999  1.00  0.00    -0.137 C  
BRANCH  32  33
HETATM   33  C   UNL     1      -5.949  18.233  68.543  1.00  0.00    -0.187 C  
HETATM   34  H   UNL     1      -7.346  19.133  67.486  1.00  0.00     0.000 HD 
HETATM   35  O   UNL     1      -7.158  18.245  67.769  1.00  0.00    -0.208 OA 
BRANCH  33  36
HETATM   36  C   UNL     1      -6.077  19.168  69.757  1.00  0.00    -0.257 C  
HETATM   37  O   UNL     1      -6.233  20.528  69.361  1.00  0.00    -0.327 OA 
HETATM   38  H   UNL     1      -6.312  21.106  70.111  1.00  0.00     0.000 HD 
ENDBRANCH  33  36
ENDBRANCH  32  33
ENDBRANCH  31  32
ENDBRANCH  15  28
ENDBRANCH   5   8
BRANCH   6  39
HETATM   39  C   UNL     1     -11.861  15.016  64.041  1.00  0.00    -0.009 C  
HETATM   40  O   UNL     1     -12.436  13.968  63.268  1.00  0.00    -1.139 OA 
HETATM   41  H   UNL     1     -13.211  14.239  62.790  1.00  0.00     0.000 HD 
ENDBRANCH   6  39
ENDBRANCH   4   5
ENDBRANCH   3   4
TORSDOF 12
ENDMDL
MODEL      124
REMARK 921   NORMALIZED FREE ENERGY PREDICTED BY IDOCK:   -2.76 KCAL/MOL
REMARK 922        TOTAL FREE ENERGY PREDICTED BY IDOCK:   -4.97 KCAL/MOL
REMARK 923 INTER-LIGAND FREE ENERGY PREDICTED BY IDOCK:   -6.01 KCAL/MOL
REMARK 924 INTRA-LIGAND FREE ENERGY PREDICTED BY IDOCK:    1.04 KCAL/MOL
REMARK 927      BINDING AFFINITY PREDICTED BY RF-SCORE:    0.00 PKD
ROOT
HETATM    1  O   UNL     1     -14.402   8.505  71.309  1.00  0.00    -0.595 OA 
HETATM    2  H   UNL     1     -14.723   8.150  72.130  1.00  0.00     0.000 HD 
HETATM    3  C   UNL     1     -13.525   9.599  71.531  1.00  0.00    -0.352 C  
ENDROOT
BRANCH   3   4
HETATM    4  C   UNL     1     -13.009  10.171  70.205  1.00  0.00     0.046 C  
BRANCH   4   5
HETATM    5  N   UNL     1     -12.210  11.413  70.316  1.00  0.00    -0.348 N  
HETATM    6  C   UNL     1     -12.473  12.449  71.217  1.00  0.00    -0.170 C  
HETATM    7  O   UNL     1     -11.681  13.387  71.404  1.00  0.00     0.459 OA 
BRANCH   5   8
HETATM    8  C   UNL     1     -10.962  11.463  69.594  1.00  0.00    -0.110 A  
HETATM    9  C   UNL     1     -10.786  12.342  68.489  1.00  0.00    -0.238 A  
HETATM   10  C   UNL     1      -9.918  10.569  69.933  1.00  0.00     0.053 A  
HETATM   11  I   UNL     1     -12.376  13.758  68.026  1.00  0.00     0.822 I  
HETATM   12  C   UNL     1      -9.572  12.364  67.744  1.00  0.00    -0.202 A  
HETATM   13  I   UNL     1     -10.353   8.891  71.235  1.00  0.00    -0.413 I  
HETATM   14  I   UNL     1      -6.485  11.886  67.417  1.00  0.00    -0.138 I  
HETATM   15  C   UNL     1      -8.647  10.693  69.332  1.00  0.00    -0.046 A  
HETATM   16  C   UNL     1      -8.478  11.599  68.238  1.00  0.00    -0.160 A  
BRANCH  12  17
HETATM   17  C   UNL     1      -9.580  13.029  66.388  1.00  0.00    -0.257 C  
HETATM   18  N   UNL     1     -10.055  12.336  65.300  1.00  0.00    -0.276 N  
HETATM   19  H   UNL     1     -10.295  11.350  65.405  1.00  0.00     0.000 HD 
HETATM   20  O   UNL     1      -9.178  14.182  66.278  1.00  0.00    -0.227 OA 
BRANCH  18  21
HETATM   21  C   UNL     1     -10.227  12.976  63.995  1.00  0.00    -0.142 C  
BRANCH  21  22
HETATM   22  C   UNL     1     -11.184  12.152  63.127  1.00  0.00    -0.180 C  
HETATM   23  O   UNL     1     -10.611  10.857  62.890  1.00  0.00    -0.781 OA 
HETATM   24  H   UNL     1     -11.204  10.346  62.352  1.00  0.00     0.000 HD 
BRANCH  22  25
HETATM   25  C   UNL     1     -12.577  12.013  63.756  1.00  0.00    -0.454 C  
HETATM   26  H   UNL     1     -13.741  13.060  64.960  1.00  0.00     0.000 HD 
HETATM   27  O   UNL     1     -12.879  13.146  64.571  1.00  0.00    -0.680 OA 
ENDBRANCH  22  25
ENDBRANCH  21  22
ENDBRANCH  18  21
ENDBRANCH  12  17
BRANCH  15  28
HETATM   28  C   UNL     1      -7.492   9.861  69.804  1.00  0.00    -0.140 C  
HETATM   29  O   UNL     1      -6.752  10.265  70.694  1.00  0.00    -0.287 OA 
HETATM   30  H   UNL     1      -7.934   8.298  68.474  1.00  0.00     0.000 HD 
HETATM   31  N   UNL     1      -7.303   8.624  69.205  1.00  0.00    -0.073 N  
BRANCH  31  32
HETATM   32  C   UNL     1      -6.182   7.799  69.643  1.00  0.00    -0.030 C  
BRANCH  32  33
HETATM   33  C   UNL     1      -6.600   6.651  70.570  1.00  0.00    -0.052 C  
HETATM   34  H   UNL     1      -7.104   6.453  72.463  1.00  0.00     0.000 HD 
HETATM   35  O   UNL     1      -6.845   7.164  71.889  1.00  0.00    -0.059 OA 
BRANCH  33  36
HETATM   36  C   UNL     1      -7.855   5.949  70.023  1.00  0.00    -0.100 C  
HETATM   37  O   UNL     1      -8.498   5.164  71.025  1.00  0.00    -0.116 OA 
HETATM   38  H   UNL     1      -9.273   4.731  70.687  1.00  0.00     0.000 HD 
ENDBRANCH  33  36
ENDBRANCH  32  33
ENDBRANCH  31  32
ENDBRANCH  15  28
ENDBRANCH   5   8
BRANCH   6  39
HETATM   39  C   UNL     1     -13.779  12.397  72.025  1.00  0.00    -0.107 C  
HETATM   40  O   UNL     1     -14.296  13.687  72.335  1.00  0.00    -0.661 OA 
HETATM   41  H   UNL     1     -15.104  13.655  72.835  1.00  0.00     0.000 HD 
ENDBRANCH   6  39
ENDBRANCH   4   5
ENDBRANCH   3   4
TORSDOF 12
ENDMDL
MODEL      125
REMARK 921   NORMALIZED FREE ENERGY PREDICTED BY IDOCK:   -2.72 KCAL/MOL
REMARK 922        TOTAL FREE ENERGY PREDICTED BY IDOCK:   -4.91 KCAL/MOL
REMARK 923 INTER-LIGAND FREE ENERGY PREDICTED BY IDOCK:   -4.76 KCAL/MOL
REMARK 924 INTRA-LIGAND FREE ENERGY PREDICTED BY IDOCK:   -0.15 KCAL/MOL
REMARK 927      BINDING AFFINITY PREDICTED BY RF-SCORE:    0.00 PKD
ROOT
HETATM    1  O   UNL     1     -11.357  16.409  66.469  1.00  0.00     0.217 OA 
HETATM    2  H   UNL     1     -11.053  16.927  65.733  1.00  0.00     0.000 HD 
HETATM    3  C   UNL     1     -11.548  15.052  66.096  1.00  0.00    -0.159 C  
ENDROOT
BRANCH   3   4
HETATM    4  C   UNL     1     -12.039  14.216  67.284  1.00  0.00    -0.372 C  
BRANCH   4   5
HETATM    5  N   UNL     1     -11.238  14.342  68.524  1.00  0.00    -0.253 N  
HETATM    6  C   UNL     1     -11.760  14.674  69.778  1.00  0.00    -0.313 C  
HETATM    7  O   UNL     1     -11.092  14.595  70.821  1.00  0.00    -0.118 OA 
BRANCH   5   8
HETATM    8  C   UNL     1      -9.868  13.892  68.475  1.00  0.00    -0.214 A  
HETATM    9  C   UNL     1      -9.547  12.506  68.508  1.00  0.00    -0.110 A  
HETATM   10  C   UNL     1      -8.818  14.840  68.472  1.00  0.00    -0.176 A  
HETATM   11  I   UNL     1     -11.177  11.061  68.441  1.00  0.00    -0.388 I  
HETATM   12  C   UNL     1      -8.196  12.057  68.505  1.00  0.00    -0.113 A  
HETATM   13  I   UNL     1      -9.265  16.906  68.953  1.00  0.00    -0.042 I  
HETATM   14  I   UNL     1      -5.139  12.400  67.869  1.00  0.00    -0.099 I  
HETATM   15  C   UNL     1      -7.481  14.426  68.287  1.00  0.00    -0.123 A  
HETATM   16  C   UNL     1      -7.176  13.028  68.299  1.00  0.00    -0.113 A  
BRANCH  12  17
HETATM   17  C   UNL     1      -7.917  10.630  68.912  1.00  0.00    -0.132 C  
HETATM   18  N   UNL     1      -7.913   9.644  67.954  1.00  0.00    -0.098 N  
HETATM   19  H   UNL     1      -8.204   9.873  67.004  1.00  0.00     0.000 HD 
HETATM   20  O   UNL     1      -7.680  10.372  70.088  1.00  0.00    -0.122 OA 
BRANCH  18  21
HETATM   21  C   UNL     1      -7.503   8.273  68.263  1.00  0.00    -0.097 C  
BRANCH  21  22
HETATM   22  C   UNL     1      -6.707   7.686  67.092  1.00  0.00    -0.067 C  
HETATM   23  O   UNL     1      -5.565   6.981  67.602  1.00  0.00    -0.018 OA 
HETATM   24  H   UNL     1      -5.072   6.618  66.877  1.00  0.00     0.000 HD 
BRANCH  22  25
HETATM   25  C   UNL     1      -7.556   6.761  66.209  1.00  0.00    -0.086 C  
HETATM   26  H   UNL     1      -9.112   6.925  65.004  1.00  0.00     0.000 HD 
HETATM   27  O   UNL     1      -8.587   7.497  65.550  1.00  0.00    -0.141 OA 
ENDBRANCH  22  25
ENDBRANCH  21  22
ENDBRANCH  18  21
ENDBRANCH  12  17
BRANCH  15  28
HETATM   28  C   UNL     1      -6.383  15.433  68.117  1.00  0.00    -0.124 C  
HETATM   29  O   UNL     1      -5.574  15.636  69.015  1.00  0.00    -0.102 OA 
HETATM   30  H   UNL     1      -6.987  15.923  66.167  1.00  0.00     0.000 HD 
HETATM   31  N   UNL     1      -6.313  16.111  66.909  1.00  0.00    -0.039 N  
BRANCH  31  32
HETATM   32  C   UNL     1      -5.257  17.099  66.721  1.00  0.00    -0.161 C  
BRANCH  32  33
HETATM   33  C   UNL     1      -5.682  18.283  65.844  1.00  0.00    -0.192 C  
HETATM   34  H   UNL     1      -7.246  18.761  64.748  1.00  0.00     0.000 HD 
HETATM   35  O   UNL     1      -6.983  18.028  65.292  1.00  0.00    -0.430 OA 
BRANCH  33  36
HETATM   36  C   UNL     1      -5.689  19.584  66.664  1.00  0.00    -0.169 C  
HETATM   37  O   UNL     1      -6.415  20.619  66.003  1.00  0.00    -0.223 OA 
HETATM   38  H   UNL     1      -6.420  21.423  66.510  1.00  0.00     0.000 HD 
ENDBRANCH  33  36
ENDBRANCH  32  33
ENDBRANCH  31  32
ENDBRANCH  15  28
ENDBRANCH   5   8
BRANCH   6  39
HETATM   39  C   UNL     1     -13.228  15.121  69.860  1.00  0.00     0.399 C  
HETATM   40  O   UNL     1     -13.663  15.371  71.192  1.00  0.00    -0.580 OA 
HETATM   41  H   UNL     1     -14.571  15.648  71.242  1.00  0.00     0.000 HD 
ENDBRANCH   6  39
ENDBRANCH   4   5
ENDBRANCH   3   4
TORSDOF 12
ENDMDL
MODEL      126
REMARK 921   NORMALIZED FREE ENERGY PREDICTED BY IDOCK:   -2.70 KCAL/MOL
REMARK 922        TOTAL FREE ENERGY PREDICTED BY IDOCK:   -4.87 KCAL/MOL
REMARK 923 INTER-LIGAND FREE ENERGY PREDICTED BY IDOCK:   -7.22 KCAL/MOL
REMARK 924 INTRA-LIGAND FREE ENERGY PREDICTED BY IDOCK:    2.35 KCAL/MOL
REMARK 927      BINDING AFFINITY PREDICTED BY RF-SCORE:    0.00 PKD
ROOT
HETATM    1  O   UNL     1     -12.295  13.004  68.974  1.00  0.00    -0.126 OA 
HETATM    2  H   UNL     1     -12.916  12.722  69.635  1.00  0.00     0.000 HD 
HETATM    3  C   UNL     1     -12.599  14.312  68.512  1.00  0.00     0.499 C  
ENDROOT
BRANCH   3   4
HETATM    4  C   UNL     1     -11.597  14.768  67.445  1.00  0.00    -0.360 C  
BRANCH   4   5
HETATM    5  N   UNL     1     -10.866  13.681  66.753  1.00  0.00    -0.289 N  
HETATM    6  C   UNL     1     -11.192  13.186  65.486  1.00  0.00    -0.281 C  
HETATM    7  O   UNL     1     -10.454  12.404  64.866  1.00  0.00    -0.281 OA 
BRANCH   5   8
HETATM    8  C   UNL     1      -9.618  13.250  67.333  1.00  0.00    -0.223 A  
HETATM    9  C   UNL     1      -9.438  11.913  67.785  1.00  0.00    -0.184 A  
HETATM   10  C   UNL     1      -8.576  14.187  67.532  1.00  0.00    -0.191 A  
HETATM   11  I   UNL     1     -11.026  10.469  67.407  1.00  0.00    -0.113 I  
HETATM   12  C   UNL     1      -8.224  11.494  68.399  1.00  0.00    -0.152 A  
HETATM   13  I   UNL     1      -9.015  16.302  67.347  1.00  0.00    -0.218 I  
HETATM   14  I   UNL     1      -5.138  11.724  68.932  1.00  0.00    -0.050 I  
HETATM   15  C   UNL     1      -7.304  13.760  67.969  1.00  0.00    -0.134 A  
HETATM   16  C   UNL     1      -7.132  12.406  68.398  1.00  0.00    -0.106 A  
BRANCH  12  17
HETATM   17  C   UNL     1      -8.229  10.200  69.179  1.00  0.00    -0.145 C  
HETATM   18  N   UNL     1      -9.083  10.060  70.246  1.00  0.00    -0.355 N  
HETATM   19  H   UNL     1      -9.623  10.866  70.561  1.00  0.00     0.000 HD 
HETATM   20  O   UNL     1      -7.483   9.287  68.839  1.00  0.00    -0.073 OA 
BRANCH  18  21
HETATM   21  C   UNL     1      -9.240   8.782  70.943  1.00  0.00    -0.212 C  
BRANCH  21  22
HETATM   22  C   UNL     1     -10.628   8.702  71.588  1.00  0.00    -0.303 C  
HETATM   23  O   UNL     1     -11.299   9.960  71.423  1.00  0.00    -0.364 OA 
HETATM   24  H   UNL     1     -12.159   9.911  71.822  1.00  0.00     0.000 HD 
BRANCH  22  25
HETATM   25  C   UNL     1     -11.479   7.562  71.012  1.00  0.00    -0.278 C  
HETATM   26  H   UNL     1     -12.919   6.362  71.636  1.00  0.00     0.000 HD 
HETATM   27  O   UNL     1     -12.392   7.068  71.992  1.00  0.00    -0.310 OA 
ENDBRANCH  22  25
ENDBRANCH  21  22
ENDBRANCH  18  21
ENDBRANCH  12  17
BRANCH  15  28
HETATM   28  C   UNL     1      -6.150  14.717  68.023  1.00  0.00    -0.154 C  
HETATM   29  O   UNL     1      -5.144  14.524  67.350  1.00  0.00    -0.324 OA 
HETATM   30  H   UNL     1      -7.120  15.978  69.394  1.00  0.00     0.000 HD 
HETATM   31  N   UNL     1      -6.271  15.825  68.849  1.00  0.00    -0.111 N  
BRANCH  31  32
HETATM   32  C   UNL     1      -5.161  16.767  68.922  1.00  0.00    -0.124 C  
BRANCH  32  33
HETATM   33  C   UNL     1      -5.450  18.103  68.225  1.00  0.00    -0.165 C  
HETATM   34  H   UNL     1      -5.939  18.692  66.411  1.00  0.00     0.000 HD 
HETATM   35  O   UNL     1      -5.759  17.865  66.843  1.00  0.00    -0.133 OA 
BRANCH  33  36
HETATM   36  C   UNL     1      -6.614  18.830  68.920  1.00  0.00    -0.264 C  
HETATM   37  O   UNL     1      -6.997  20.007  68.214  1.00  0.00    -0.285 OA 
HETATM   38  H   UNL     1      -7.716  20.457  68.643  1.00  0.00     0.000 HD 
ENDBRANCH  33  36
ENDBRANCH  32  33
ENDBRANCH  31  32
ENDBRANCH  15  28
ENDBRANCH   5   8
BRANCH   6  39
HETATM   39  C   UNL     1     -12.499  13.660  64.833  1.00  0.00    -0.384 C  
HETATM   40  O   UNL     1     -12.296  14.649  63.829  1.00  0.00    -1.030 OA 
HETATM   41  H   UNL     1     -13.105  14.942  63.425  1.00  0.00     0.000 HD 
ENDBRANCH   6  39
ENDBRANCH   4   5
ENDBRANCH   3   4
TORSDOF 12
ENDMDL
MODEL      127
REMARK 921   NORMALIZED FREE ENERGY PREDICTED BY IDOCK:   -2.66 KCAL/MOL
REMARK 922        TOTAL FREE ENERGY PREDICTED BY IDOCK:   -4.81 KCAL/MOL
REMARK 923 INTER-LIGAND FREE ENERGY PREDICTED BY IDOCK:   -4.85 KCAL/MOL
REMARK 924 INTRA-LIGAND FREE ENERGY PREDICTED BY IDOCK:    0.04 KCAL/MOL
REMARK 927      BINDING AFFINITY PREDICTED BY RF-SCORE:    0.00 PKD
ROOT
HETATM    1  O   UNL     1     -13.747  11.132  72.143  1.00  0.00    -0.383 OA 
HETATM    2  H   UNL     1     -14.561  11.523  71.848  1.00  0.00     0.000 HD 
HETATM    3  C   UNL     1     -13.910   9.745  72.401  1.00  0.00    -0.104 C  
ENDROOT
BRANCH   3   4
HETATM    4  C   UNL     1     -12.596   9.114  72.878  1.00  0.00     0.346 C  
BRANCH   4   5
HETATM    5  N   UNL     1     -11.930   8.218  71.904  1.00  0.00    -0.309 N  
HETATM    6  C   UNL     1     -12.592   7.278  71.107  1.00  0.00    -0.323 C  
HETATM    7  O   UNL     1     -12.028   6.676  70.180  1.00  0.00    -0.367 OA 
BRANCH   5   8
HETATM    8  C   UNL     1     -10.542   8.476  71.611  1.00  0.00    -0.283 A  
HETATM    9  C   UNL     1     -10.161   9.352  70.556  1.00  0.00    -0.271 A  
HETATM   10  C   UNL     1      -9.534   7.789  72.329  1.00  0.00    -0.170 A  
HETATM   11  I   UNL     1     -11.723  10.453  69.509  1.00  0.00    -0.107 I  
HETATM   12  C   UNL     1      -8.793   9.575  70.233  1.00  0.00    -0.281 A  
HETATM   13  I   UNL     1     -10.088   6.084  73.549  1.00  0.00    -0.294 I  
HETATM   14  I   UNL     1      -5.732   9.648  70.936  1.00  0.00    -0.077 I  
HETATM   15  C   UNL     1      -8.174   8.125  72.153  1.00  0.00    -0.197 A  
HETATM   16  C   UNL     1      -7.809   9.027  71.104  1.00  0.00    -0.116 A  
BRANCH  12  17
HETATM   17  C   UNL     1      -8.467  10.202  68.898  1.00  0.00    -0.139 C  
HETATM   18  N   UNL     1      -8.664   9.477  67.747  1.00  0.00    -0.116 N  
HETATM   19  H   UNL     1      -8.924   8.494  67.817  1.00  0.00     0.000 HD 
HETATM   20  O   UNL     1      -8.049  11.355  68.858  1.00  0.00    -0.137 OA 
BRANCH  18  21
HETATM   21  C   UNL     1      -8.511  10.081  66.422  1.00  0.00    -0.129 C  
BRANCH  21  22
HETATM   22  C   UNL     1      -7.419   9.349  65.635  1.00  0.00    -0.095 C  
HETATM   23  O   UNL     1      -6.144   9.939  65.932  1.00  0.00    -0.066 OA 
HETATM   24  H   UNL     1      -5.468   9.485  65.444  1.00  0.00     0.000 HD 
BRANCH  22  25
HETATM   25  C   UNL     1      -7.393   7.842  65.928  1.00  0.00    -0.076 C  
HETATM   26  H   UNL     1      -7.501   6.158  64.902  1.00  0.00     0.000 HD 
HETATM   27  O   UNL     1      -7.518   7.090  64.720  1.00  0.00    -0.082 OA 
ENDBRANCH  22  25
ENDBRANCH  21  22
ENDBRANCH  18  21
ENDBRANCH  12  17
BRANCH  15  28
HETATM   28  C   UNL     1      -7.115   7.521  73.027  1.00  0.00    -0.072 C  
HETATM   29  O   UNL     1      -6.821   8.036  74.100  1.00  0.00    -0.110 OA 
HETATM   30  H   UNL     1      -6.762   5.941  71.691  1.00  0.00     0.000 HD 
HETATM   31  N   UNL     1      -6.497   6.362  72.581  1.00  0.00    -0.062 N  
BRANCH  31  32
HETATM   32  C   UNL     1      -5.461   5.760  73.411  1.00  0.00    -0.024 C  
BRANCH  32  33
HETATM   33  C   UNL     1      -5.407   4.231  73.301  1.00  0.00    -0.007 C  
HETATM   34  H   UNL     1      -5.910   2.697  74.429  1.00  0.00     0.000 HD 
HETATM   35  O   UNL     1      -5.942   3.644  74.498  1.00  0.00    -0.014 OA 
BRANCH  33  36
HETATM   36  C   UNL     1      -6.194   3.754  72.068  1.00  0.00    -0.014 C  
HETATM   37  O   UNL     1      -5.375   3.717  70.902  1.00  0.00    -0.004 OA 
HETATM   38  H   UNL     1      -5.861   3.422  70.141  1.00  0.00     0.000 HD 
ENDBRANCH  33  36
ENDBRANCH  32  33
ENDBRANCH  31  32
ENDBRANCH  15  28
ENDBRANCH   5   8
BRANCH   6  39
HETATM   39  C   UNL     1     -14.081   7.014  71.377  1.00  0.00    -0.177 C  
HETATM   40  O   UNL     1     -14.301   6.016  72.369  1.00  0.00    -0.592 OA 
HETATM   41  H   UNL     1     -15.223   5.853  72.535  1.00  0.00     0.000 HD 
ENDBRANCH   6  39
ENDBRANCH   4   5
ENDBRANCH   3   4
TORSDOF 12
ENDMDL
MODEL      128
REMARK 921   NORMALIZED FREE ENERGY PREDICTED BY IDOCK:   -2.64 KCAL/MOL
REMARK 922        TOTAL FREE ENERGY PREDICTED BY IDOCK:   -4.76 KCAL/MOL
REMARK 923 INTER-LIGAND FREE ENERGY PREDICTED BY IDOCK:   -4.58 KCAL/MOL
REMARK 924 INTRA-LIGAND FREE ENERGY PREDICTED BY IDOCK:   -0.18 KCAL/MOL
REMARK 927      BINDING AFFINITY PREDICTED BY RF-SCORE:    0.00 PKD
ROOT
HETATM    1  O   UNL     1     -10.081  13.747  65.754  1.00  0.00    -0.300 OA 
HETATM    2  H   UNL     1     -10.629  14.395  66.180  1.00  0.00     0.000 HD 
HETATM    3  C   UNL     1      -9.912  12.600  66.575  1.00  0.00    -0.251 C  
ENDROOT
BRANCH   3   4
HETATM    4  C   UNL     1      -9.026  11.554  65.887  1.00  0.00    -0.147 C  
BRANCH   4   5
HETATM    5  N   UNL     1      -8.070  10.851  66.772  1.00  0.00    -0.136 N  
HETATM    6  C   UNL     1      -7.207  11.483  67.673  1.00  0.00    -0.103 C  
HETATM    7  O   UNL     1      -6.552  10.856  68.520  1.00  0.00    -0.054 OA 
BRANCH   5   8
HETATM    8  C   UNL     1      -8.182   9.415  66.858  1.00  0.00    -0.116 A  
HETATM    9  C   UNL     1      -7.597   8.570  65.875  1.00  0.00    -0.085 A  
HETATM   10  C   UNL     1      -8.953   8.832  67.892  1.00  0.00    -0.140 A  
HETATM   11  I   UNL     1      -6.355   9.480  64.332  1.00  0.00    -0.112 I  
HETATM   12  C   UNL     1      -7.742   7.155  65.930  1.00  0.00    -0.101 A  
HETATM   13  I   UNL     1     -10.269  10.097  69.063  1.00  0.00    -0.287 I  
HETATM   14  I   UNL     1      -8.248   4.455  67.453  1.00  0.00    -0.100 I  
HETATM   15  C   UNL     1      -8.965   7.433  68.074  1.00  0.00    -0.132 A  
HETATM   16  C   UNL     1      -8.350   6.596  67.089  1.00  0.00    -0.113 A  
BRANCH  12  17
HETATM   17  C   UNL     1      -7.429   6.356  64.687  1.00  0.00    -0.091 C  
HETATM   18  N   UNL     1      -8.415   6.150  63.751  1.00  0.00    -0.332 N  
HETATM   19  H   UNL     1      -9.368   6.446  63.960  1.00  0.00     0.000 HD 
HETATM   20  O   UNL     1      -6.295   5.918  64.520  1.00  0.00    -0.031 OA 
BRANCH  18  21
HETATM   21  C   UNL     1      -8.131   5.516  62.462  1.00  0.00    -0.102 C  
BRANCH  21  22
HETATM   22  C   UNL     1      -8.727   4.104  62.430  1.00  0.00    -0.094 C  
HETATM   23  O   UNL     1      -7.682   3.145  62.654  1.00  0.00    -0.056 OA 
HETATM   24  H   UNL     1      -8.051   2.270  62.634  1.00  0.00     0.000 HD 
BRANCH  22  25
HETATM   25  C   UNL     1      -9.854   3.917  63.455  1.00  0.00    -0.155 C  
HETATM   26  H   UNL     1     -10.730   2.419  64.398  1.00  0.00     0.000 HD 
HETATM   27  O   UNL     1     -10.032   2.534  63.763  1.00  0.00    -0.138 OA 
ENDBRANCH  22  25
ENDBRANCH  21  22
ENDBRANCH  18  21
ENDBRANCH  12  17
BRANCH  15  28
HETATM   28  C   UNL     1      -9.642   6.819  69.263  1.00  0.00    -0.144 C  
HETATM   29  O   UNL     1     -10.790   6.397  69.181  1.00  0.00    -0.255 OA 
HETATM   30  H   UNL     1      -7.963   7.086  70.494  1.00  0.00     0.000 HD 
HETATM   31  N   UNL     1      -8.921   6.740  70.445  1.00  0.00    -0.152 N  
BRANCH  31  32
HETATM   32  C   UNL     1      -9.560   6.152  71.617  1.00  0.00    -0.151 C  
BRANCH  32  33
HETATM   33  C   UNL     1      -8.562   5.566  72.623  1.00  0.00    -0.124 C  
HETATM   34  H   UNL     1      -8.416   5.438  74.582  1.00  0.00     0.000 HD 
HETATM   35  O   UNL     1      -9.034   5.801  73.959  1.00  0.00    -0.125 OA 
BRANCH  33  36
HETATM   36  C   UNL     1      -8.372   4.060  72.376  1.00  0.00    -0.099 C  
HETATM   37  O   UNL     1      -9.221   3.586  71.333  1.00  0.00    -0.106 OA 
HETATM   38  H   UNL     1      -9.104   2.655  71.180  1.00  0.00     0.000 HD 
ENDBRANCH  33  36
ENDBRANCH  32  33
ENDBRANCH  31  32
ENDBRANCH  15  28
ENDBRANCH   5   8
BRANCH   6  39
HETATM   39  C   UNL     1      -7.099  13.015  67.624  1.00  0.00    -0.156 C  
HETATM   40  O   UNL     1      -6.634  13.581  68.845  1.00  0.00    -0.094 OA 
HETATM   41  H   UNL     1      -6.567  14.529  68.815  1.00  0.00     0.000 HD 
ENDBRANCH   6  39
ENDBRANCH   4   5
ENDBRANCH   3   4
TORSDOF 12
ENDMDL
MODEL      129
REMARK 921   NORMALIZED FREE ENERGY PREDICTED BY IDOCK:   -2.61 KCAL/MOL
REMARK 922        TOTAL FREE ENERGY PREDICTED BY IDOCK:   -4.71 KCAL/MOL
REMARK 923 INTER-LIGAND FREE ENERGY PREDICTED BY IDOCK:   -6.37 KCAL/MOL
REMARK 924 INTRA-LIGAND FREE ENERGY PREDICTED BY IDOCK:    1.66 KCAL/MOL
REMARK 927      BINDING AFFINITY PREDICTED BY RF-SCORE:    0.00 PKD
ROOT
HETATM    1  O   UNL     1     -14.256   8.037  71.202  1.00  0.00    -0.628 OA 
HETATM    2  H   UNL     1     -14.210   7.422  71.924  1.00  0.00     0.000 HD 
HETATM    3  C   UNL     1     -13.559   9.236  71.507  1.00  0.00    -0.346 C  
ENDROOT
BRANCH   3   4
HETATM    4  C   UNL     1     -13.634  10.230  70.341  1.00  0.00     0.524 C  
BRANCH   4   5
HETATM    5  N   UNL     1     -12.622  11.311  70.361  1.00  0.00    -0.245 N  
HETATM    6  C   UNL     1     -12.635  12.396  71.243  1.00  0.00    -0.230 C  
HETATM    7  O   UNL     1     -11.679  13.181  71.349  1.00  0.00     0.652 OA 
BRANCH   5   8
HETATM    8  C   UNL     1     -11.437  11.123  69.559  1.00  0.00    -0.303 A  
HETATM    9  C   UNL     1     -10.417  10.213  69.955  1.00  0.00    -0.275 A  
HETATM   10  C   UNL     1     -11.243  11.910  68.400  1.00  0.00    -0.258 A  
HETATM   11  I   UNL     1     -10.765   8.961  71.703  1.00  0.00    -0.375 I  
HETATM   12  C   UNL     1      -9.226  10.056  69.191  1.00  0.00    -0.196 A  
HETATM   13  I   UNL     1     -12.506  13.644  68.081  1.00  0.00     1.311 I  
HETATM   14  I   UNL     1      -7.577  10.211  66.522  1.00  0.00    -0.123 I  
HETATM   15  C   UNL     1     -10.163  11.648  67.530  1.00  0.00    -0.216 A  
HETATM   16  C   UNL     1      -9.156  10.713  67.930  1.00  0.00    -0.145 A  
BRANCH  12  17
HETATM   17  C   UNL     1      -8.045   9.375  69.842  1.00  0.00    -0.138 C  
HETATM   18  N   UNL     1      -7.635   8.148  69.378  1.00  0.00    -0.098 N  
HETATM   19  H   UNL     1      -8.198   7.668  68.676  1.00  0.00     0.000 HD 
HETATM   20  O   UNL     1      -7.458   9.934  70.762  1.00  0.00    -0.313 OA 
BRANCH  18  21
HETATM   21  C   UNL     1      -6.411   7.511  69.867  1.00  0.00    -0.027 C  
BRANCH  21  22
HETATM   22  C   UNL     1      -6.230   6.142  69.202  1.00  0.00    -0.036 C  
HETATM   23  O   UNL     1      -5.505   5.277  70.090  1.00  0.00    -0.004 OA 
HETATM   24  H   UNL     1      -5.393   4.429  69.678  1.00  0.00     0.000 HD 
BRANCH  22  25
HETATM   25  C   UNL     1      -7.566   5.501  68.803  1.00  0.00    -0.083 C  
HETATM   26  H   UNL     1      -8.884   4.267  69.602  1.00  0.00     0.000 HD 
HETATM   27  O   UNL     1      -8.058   4.663  69.849  1.00  0.00    -0.067 OA 
ENDBRANCH  22  25
ENDBRANCH  21  22
ENDBRANCH  18  21
ENDBRANCH  12  17
BRANCH  15  28
HETATM   28  C   UNL     1     -10.043  12.365  66.217  1.00  0.00    -0.240 C  
HETATM   29  O   UNL     1      -9.295  13.328  66.096  1.00  0.00    -0.190 OA 
HETATM   30  H   UNL     1     -11.406  11.080  65.269  1.00  0.00     0.000 HD 
HETATM   31  N   UNL     1     -10.797  11.890  65.154  1.00  0.00    -0.292 N  
BRANCH  31  32
HETATM   32  C   UNL     1     -10.701  12.573  63.869  1.00  0.00    -0.437 C  
BRANCH  32  33
HETATM   33  C   UNL     1     -11.925  13.441  63.551  1.00  0.00    -0.407 C  
HETATM   34  H   UNL     1     -13.879  13.200  63.520  1.00  0.00     0.000 HD 
HETATM   35  O   UNL     1     -13.121  12.663  63.717  1.00  0.00    -0.630 OA 
BRANCH  33  36
HETATM   36  C   UNL     1     -11.957  14.680  64.461  1.00  0.00    -0.460 C  
HETATM   37  O   UNL     1     -11.861  15.888  63.711  1.00  0.00    -1.221 OA 
HETATM   38  H   UNL     1     -11.881  16.653  64.274  1.00  0.00     0.000 HD 
ENDBRANCH  33  36
ENDBRANCH  32  33
ENDBRANCH  31  32
ENDBRANCH  15  28
ENDBRANCH   5   8
BRANCH   6  39
HETATM   39  C   UNL     1     -13.871  12.595  72.133  1.00  0.00    -0.172 C  
HETATM   40  O   UNL     1     -13.875  13.846  72.813  1.00  0.00    -0.701 OA 
HETATM   41  H   UNL     1     -14.640  13.969  73.364  1.00  0.00     0.000 HD 
ENDBRANCH   6  39
ENDBRANCH   4   5
ENDBRANCH   3   4
TORSDOF 12
ENDMDL
MODEL      130
REMARK 921   NORMALIZED FREE ENERGY PREDICTED BY IDOCK:   -2.57 KCAL/MOL
REMARK 922        TOTAL FREE ENERGY PREDICTED BY IDOCK:   -4.64 KCAL/MOL
REMARK 923 INTER-LIGAND FREE ENERGY PREDICTED BY IDOCK:   -5.94 KCAL/MOL
REMARK 924 INTRA-LIGAND FREE ENERGY PREDICTED BY IDOCK:    1.30 KCAL/MOL
REMARK 927      BINDING AFFINITY PREDICTED BY RF-SCORE:    0.00 PKD
ROOT
HETATM    1  O   UNL     1     -14.388  13.220  72.777  1.00  0.00    -0.639 OA 
HETATM    2  H   UNL     1     -14.774  13.629  73.543  1.00  0.00     0.000 HD 
HETATM    3  C   UNL     1     -14.383  14.109  71.670  1.00  0.00    -0.294 C  
ENDROOT
BRANCH   3   4
HETATM    4  C   UNL     1     -13.760  13.449  70.434  1.00  0.00     1.538 C  
BRANCH   4   5
HETATM    5  N   UNL     1     -12.299  13.637  70.280  1.00  0.00    -0.336 N  
HETATM    6  C   UNL     1     -11.549  14.614  70.942  1.00  0.00    -0.225 C  
HETATM    7  O   UNL     1     -10.308  14.626  70.927  1.00  0.00     0.544 OA 
BRANCH   5   8
HETATM    8  C   UNL     1     -11.573  12.617  69.563  1.00  0.00    -0.281 A  
HETATM    9  C   UNL     1     -11.087  12.848  68.246  1.00  0.00    -0.264 A  
HETATM   10  C   UNL     1     -11.407  11.336  70.141  1.00  0.00    -0.164 A  
HETATM   11  I   UNL     1     -11.290  14.846  67.401  1.00  0.00    -0.278 I  
HETATM   12  C   UNL     1     -10.409  11.831  67.516  1.00  0.00    -0.217 A  
HETATM   13  I   UNL     1     -12.581  10.809  71.886  1.00  0.00     0.406 I  
HETATM   14  I   UNL     1      -8.707   9.199  67.314  1.00  0.00    -0.131 I  
HETATM   15  C   UNL     1     -10.587  10.371  69.518  1.00  0.00    -0.274 A  
HETATM   16  C   UNL     1     -10.084  10.627  68.203  1.00  0.00    -0.158 A  
BRANCH  12  17
HETATM   17  C   UNL     1     -10.254  12.006  66.023  1.00  0.00    -0.226 C  
HETATM   18  N   UNL     1     -11.064  11.292  65.173  1.00  0.00    -0.144 N  
HETATM   19  H   UNL     1     -11.682  10.577  65.558  1.00  0.00     0.000 HD 
HETATM   20  O   UNL     1      -9.420  12.795  65.592  1.00  0.00    -0.111 OA 
BRANCH  18  21
HETATM   21  C   UNL     1     -11.063  11.531  63.728  1.00  0.00    -0.390 C  
BRANCH  21  22
HETATM   22  C   UNL     1     -12.283  12.371  63.335  1.00  0.00    -0.523 C  
HETATM   23  O   UNL     1     -13.402  11.993  64.152  1.00  0.00    -0.725 OA 
HETATM   24  H   UNL     1     -14.158  12.514  63.908  1.00  0.00     0.000 HD 
BRANCH  22  25
HETATM   25  C   UNL     1     -12.021  13.879  63.451  1.00  0.00     0.126 C  
HETATM   26  H   UNL     1     -12.699  15.396  64.519  1.00  0.00     0.000 HD 
HETATM   27  O   UNL     1     -12.862  14.463  64.447  1.00  0.00    -0.615 OA 
ENDBRANCH  22  25
ENDBRANCH  21  22
ENDBRANCH  18  21
ENDBRANCH  12  17
BRANCH  15  28
HETATM   28  C   UNL     1     -10.272   9.075  70.203  1.00  0.00    -0.197 C  
HETATM   29  O   UNL     1      -9.276   8.966  70.910  1.00  0.00    -0.188 OA 
HETATM   30  H   UNL     1     -11.980   8.128  69.433  1.00  0.00     0.000 HD 
HETATM   31  N   UNL     1     -11.150   8.017  70.015  1.00  0.00    -0.205 N  
BRANCH  31  32
HETATM   32  C   UNL     1     -10.862   6.745  70.667  1.00  0.00    -0.250 C  
BRANCH  32  33
HETATM   33  C   UNL     1     -10.400   5.654  69.692  1.00  0.00    -0.276 C  
HETATM   34  H   UNL     1     -10.535   5.317  67.757  1.00  0.00     0.000 HD 
HETATM   35  O   UNL     1     -10.821   5.992  68.361  1.00  0.00    -0.268 OA 
BRANCH  33  36
HETATM   36  C   UNL     1      -8.872   5.493  69.750  1.00  0.00    -0.119 C  
HETATM   37  O   UNL     1      -8.336   5.991  70.974  1.00  0.00    -0.121 OA 
HETATM   38  H   UNL     1      -7.391   5.891  71.010  1.00  0.00     0.000 HD 
ENDBRANCH  33  36
ENDBRANCH  32  33
ENDBRANCH  31  32
ENDBRANCH  15  28
ENDBRANCH   5   8
BRANCH   6  39
HETATM   39  C   UNL     1     -12.300  15.689  71.743  1.00  0.00    -0.427 C  
HETATM   40  O   UNL     1     -11.621  16.940  71.773  1.00  0.00    -0.507 OA 
HETATM   41  H   UNL     1     -12.086  17.605  72.269  1.00  0.00     0.000 HD 
ENDBRANCH   6  39
ENDBRANCH   4   5
ENDBRANCH   3   4
TORSDOF 12
ENDMDL
MODEL      131
REMARK 921   NORMALIZED FREE ENERGY PREDICTED BY IDOCK:   -2.56 KCAL/MOL
REMARK 922        TOTAL FREE ENERGY PREDICTED BY IDOCK:   -4.64 KCAL/MOL
REMARK 923 INTER-LIGAND FREE ENERGY PREDICTED BY IDOCK:   -5.81 KCAL/MOL
REMARK 924 INTRA-LIGAND FREE ENERGY PREDICTED BY IDOCK:    1.17 KCAL/MOL
REMARK 927      BINDING AFFINITY PREDICTED BY RF-SCORE:    0.00 PKD
ROOT
HETATM    1  O   UNL     1     -10.490  14.258  69.979  1.00  0.00    -0.393 OA 
HETATM    2  H   UNL     1     -11.316  14.718  70.074  1.00  0.00     0.000 HD 
HETATM    3  C   UNL     1      -9.391  15.138  70.164  1.00  0.00     0.407 C  
ENDROOT
BRANCH   3   4
HETATM    4  C   UNL     1      -8.058  14.395  70.010  1.00  0.00     0.849 C  
BRANCH   4   5
HETATM    5  N   UNL     1      -7.528  14.319  68.629  1.00  0.00    -0.122 N  
HETATM    6  C   UNL     1      -6.208  13.998  68.301  1.00  0.00    -0.116 C  
HETATM    7  O   UNL     1      -5.848  13.770  67.135  1.00  0.00    -0.235 OA 
BRANCH   5   8
HETATM    8  C   UNL     1      -8.485  14.378  67.551  1.00  0.00    -0.192 A  
HETATM    9  C   UNL     1      -9.038  13.192  66.991  1.00  0.00    -0.231 A  
HETATM   10  C   UNL     1      -8.824  15.628  66.981  1.00  0.00    -0.225 A  
HETATM   11  I   UNL     1      -8.558  11.283  67.926  1.00  0.00    -0.152 I  
HETATM   12  C   UNL     1      -9.947  13.242  65.897  1.00  0.00    -0.280 A  
HETATM   13  I   UNL     1      -7.611  17.363  67.453  1.00  0.00    -0.240 I  
HETATM   14  I   UNL     1     -12.102  14.675  64.117  1.00  0.00     0.284 I  
HETATM   15  C   UNL     1      -9.855  15.721  66.021  1.00  0.00    -0.366 A  
HETATM   16  C   UNL     1     -10.419  14.520  65.485  1.00  0.00    -0.356 A  
BRANCH  12  17
HETATM   17  C   UNL     1     -10.201  11.970  65.122  1.00  0.00    -0.276 C  
HETATM   18  N   UNL     1      -9.252  11.521  64.235  1.00  0.00    -0.417 N  
HETATM   19  H   UNL     1      -8.442  12.107  64.035  1.00  0.00     0.000 HD 
HETATM   20  O   UNL     1     -11.242  11.348  65.307  1.00  0.00    -0.198 OA 
BRANCH  18  21
HETATM   21  C   UNL     1      -9.375  10.222  63.570  1.00  0.00    -0.301 C  
BRANCH  21  22
HETATM   22  C   UNL     1      -8.170   9.340  63.916  1.00  0.00    -0.165 C  
HETATM   23  O   UNL     1      -8.181   8.175  63.077  1.00  0.00    -0.263 OA 
HETATM   24  H   UNL     1      -7.435   7.628  63.291  1.00  0.00     0.000 HD 
BRANCH  22  25
HETATM   25  C   UNL     1      -6.836  10.086  63.777  1.00  0.00    -0.126 C  
HETATM   26  H   UNL     1      -5.237  10.006  62.620  1.00  0.00     0.000 HD 
HETATM   27  O   UNL     1      -6.063   9.544  62.706  1.00  0.00    -0.096 OA 
ENDBRANCH  22  25
ENDBRANCH  21  22
ENDBRANCH  18  21
ENDBRANCH  12  17
BRANCH  15  28
HETATM   28  C   UNL     1     -10.333  17.057  65.536  1.00  0.00    -0.143 C  
HETATM   29  O   UNL     1     -10.753  17.194  64.393  1.00  0.00    -0.343 OA 
HETATM   30  H   UNL     1      -9.952  17.984  67.380  1.00  0.00     0.000 HD 
HETATM   31  N   UNL     1     -10.293  18.118  66.429  1.00  0.00    -0.394 N  
BRANCH  31  32
HETATM   32  C   UNL     1     -10.748  19.428  65.978  1.00  0.00    -0.417 C  
BRANCH  32  33
HETATM   33  C   UNL     1      -9.954  20.590  66.589  1.00  0.00    -0.239 C  
HETATM   34  H   UNL     1      -9.514  21.225  68.400  1.00  0.00     0.000 HD 
HETATM   35  O   UNL     1     -10.006  20.505  68.021  1.00  0.00    -0.326 OA 
BRANCH  33  36
HETATM   36  C   UNL     1      -8.496  20.559  66.099  1.00  0.00     0.170 C  
HETATM   37  O   UNL     1      -7.621  21.223  67.008  1.00  0.00    -0.741 OA 
HETATM   38  H   UNL     1      -6.721  21.204  66.706  1.00  0.00     0.000 HD 
ENDBRANCH  33  36
ENDBRANCH  32  33
ENDBRANCH  31  32
ENDBRANCH  15  28
ENDBRANCH   5   8
BRANCH   6  39
HETATM   39  C   UNL     1      -5.180  13.894  69.437  1.00  0.00    -0.082 C  
HETATM   40  O   UNL     1      -5.195  12.630  70.092  1.00  0.00    -0.084 OA 
HETATM   41  H   UNL     1      -4.559  12.566  70.795  1.00  0.00     0.000 HD 
ENDBRANCH   6  39
ENDBRANCH   4   5
ENDBRANCH   3   4
TORSDOF 12
ENDMDL
MODEL      132
REMARK 921   NORMALIZED FREE ENERGY PREDICTED BY IDOCK:   -2.55 KCAL/MOL
REMARK 922        TOTAL FREE ENERGY PREDICTED BY IDOCK:   -4.62 KCAL/MOL
REMARK 923 INTER-LIGAND FREE ENERGY PREDICTED BY IDOCK:   -4.21 KCAL/MOL
REMARK 924 INTRA-LIGAND FREE ENERGY PREDICTED BY IDOCK:   -0.41 KCAL/MOL
REMARK 927      BINDING AFFINITY PREDICTED BY RF-SCORE:    0.00 PKD
ROOT
HETATM    1  O   UNL     1     -10.867   9.569  71.304  1.00  0.00    -0.332 OA 
HETATM    2  H   UNL     1     -11.665   9.544  70.790  1.00  0.00     0.000 HD 
HETATM    3  C   UNL     1     -10.358   8.261  71.523  1.00  0.00    -0.214 C  
ENDROOT
BRANCH   3   4
HETATM    4  C   UNL     1      -9.070   8.301  72.354  1.00  0.00    -0.237 C  
BRANCH   4   5
HETATM    5  N   UNL     1      -7.830   7.951  71.622  1.00  0.00    -0.087 N  
HETATM    6  C   UNL     1      -6.559   7.878  72.201  1.00  0.00    -0.061 C  
HETATM    7  O   UNL     1      -5.579   7.410  71.600  1.00  0.00    -0.035 OA 
BRANCH   5   8
HETATM    8  C   UNL     1      -7.975   7.455  70.276  1.00  0.00    -0.107 A  
HETATM    9  C   UNL     1      -8.036   6.059  70.008  1.00  0.00    -0.114 A  
HETATM   10  C   UNL     1      -7.978   8.362  69.189  1.00  0.00    -0.110 A  
HETATM   11  I   UNL     1      -8.101   4.681  71.695  1.00  0.00    -0.110 I  
HETATM   12  C   UNL     1      -8.134   5.562  68.677  1.00  0.00    -0.102 A  
HETATM   13  I   UNL     1      -7.360  10.412  69.530  1.00  0.00    -0.120 I  
HETATM   14  I   UNL     1      -8.907   5.828  65.644  1.00  0.00     0.005 I  
HETATM   15  C   UNL     1      -8.255   7.911  67.881  1.00  0.00    -0.129 A  
HETATM   16  C   UNL     1      -8.338   6.505  67.631  1.00  0.00    -0.121 A  
BRANCH  12  17
HETATM   17  C   UNL     1      -7.823   4.104  68.435  1.00  0.00    -0.073 C  
HETATM   18  N   UNL     1      -8.790   3.287  67.899  1.00  0.00    -0.113 N  
HETATM   19  H   UNL     1      -9.735   3.652  67.773  1.00  0.00     0.000 HD 
HETATM   20  O   UNL     1      -6.707   3.672  68.704  1.00  0.00    -0.044 OA 
BRANCH  18  21
HETATM   21  C   UNL     1      -8.500   1.908  67.504  1.00  0.00    -0.080 C  
BRANCH  21  22
HETATM   22  C   UNL     1      -8.613   1.763  65.982  1.00  0.00    -0.112 C  
HETATM   23  O   UNL     1      -9.839   2.367  65.539  1.00  0.00    -0.334 OA 
HETATM   24  H   UNL     1      -9.909   2.277  64.596  1.00  0.00     0.000 HD 
BRANCH  22  25
HETATM   25  C   UNL     1      -7.417   2.376  65.242  1.00  0.00    -0.071 C  
HETATM   26  H   UNL     1      -6.179   1.855  63.794  1.00  0.00     0.000 HD 
HETATM   27  O   UNL     1      -6.919   1.475  64.252  1.00  0.00    -0.033 OA 
ENDBRANCH  22  25
ENDBRANCH  21  22
ENDBRANCH  18  21
ENDBRANCH  12  17
BRANCH  15  28
HETATM   28  C   UNL     1      -8.425   8.886  66.753  1.00  0.00    -0.115 C  
HETATM   29  O   UNL     1      -9.511   9.410  66.537  1.00  0.00    -0.163 OA 
HETATM   30  H   UNL     1      -6.410   8.740  66.181  1.00  0.00     0.000 HD 
HETATM   31  N   UNL     1      -7.310   9.176  65.980  1.00  0.00    -0.093 N  
BRANCH  31  32
HETATM   32  C   UNL     1      -7.451  10.117  64.875  1.00  0.00    -0.137 C  
BRANCH  32  33
HETATM   33  C   UNL     1      -6.636   9.724  63.636  1.00  0.00    -0.119 C  
HETATM   34  H   UNL     1      -5.549   8.184  63.069  1.00  0.00     0.000 HD 
HETATM   35  O   UNL     1      -6.054   8.427  63.837  1.00  0.00    -0.069 OA 
BRANCH  33  36
HETATM   36  C   UNL     1      -7.528   9.728  62.383  1.00  0.00    -0.111 C  
HETATM   37  O   UNL     1      -8.913   9.738  62.722  1.00  0.00    -0.232 OA 
HETATM   38  H   UNL     1      -9.463   9.739  61.947  1.00  0.00     0.000 HD 
ENDBRANCH  33  36
ENDBRANCH  32  33
ENDBRANCH  31  32
ENDBRANCH  15  28
ENDBRANCH   5   8
BRANCH   6  39
HETATM   39  C   UNL     1      -6.389   8.367  73.647  1.00  0.00    -0.117 C  
HETATM   40  O   UNL     1      -5.883   9.696  73.732  1.00  0.00    -0.321 OA 
HETATM   41  H   UNL     1      -5.777   9.998  74.627  1.00  0.00     0.000 HD 
ENDBRANCH   6  39
ENDBRANCH   4   5
ENDBRANCH   3   4
TORSDOF 12
ENDMDL
MODEL      133
REMARK 921   NORMALIZED FREE ENERGY PREDICTED BY IDOCK:   -2.55 KCAL/MOL
REMARK 922        TOTAL FREE ENERGY PREDICTED BY IDOCK:   -4.62 KCAL/MOL
REMARK 923 INTER-LIGAND FREE ENERGY PREDICTED BY IDOCK:   -6.62 KCAL/MOL
REMARK 924 INTRA-LIGAND FREE ENERGY PREDICTED BY IDOCK:    2.00 KCAL/MOL
REMARK 927      BINDING AFFINITY PREDICTED BY RF-SCORE:    0.00 PKD
ROOT
HETATM    1  O   UNL     1      -7.279  18.285  65.294  1.00  0.00    -0.494 OA 
HETATM    2  H   UNL     1      -7.728  19.098  65.095  1.00  0.00     0.000 HD 
HETATM    3  C   UNL     1      -8.156  17.350  65.903  1.00  0.00    -0.015 C  
ENDROOT
BRANCH   3   4
HETATM    4  C   UNL     1      -7.431  16.038  66.223  1.00  0.00     0.454 C  
BRANCH   4   5
HETATM    5  N   UNL     1      -7.393  15.665  67.656  1.00  0.00    -0.150 N  
HETATM    6  C   UNL     1      -6.525  16.221  68.600  1.00  0.00    -0.126 C  
HETATM    7  O   UNL     1      -6.644  16.015  69.818  1.00  0.00    -0.195 OA 
BRANCH   5   8
HETATM    8  C   UNL     1      -8.458  14.825  68.148  1.00  0.00    -0.149 A  
HETATM    9  C   UNL     1      -9.626  15.386  68.736  1.00  0.00    -0.209 A  
HETATM   10  C   UNL     1      -8.311  13.418  68.122  1.00  0.00    -0.164 A  
HETATM   11  I   UNL     1      -9.866  17.551  68.704  1.00  0.00    -0.296 I  
HETATM   12  C   UNL     1     -10.660  14.562  69.264  1.00  0.00    -0.224 A  
HETATM   13  I   UNL     1      -6.353  12.572  67.732  1.00  0.00    -0.160 I  
HETATM   14  I   UNL     1     -12.279  11.876  69.437  1.00  0.00     0.201 I  
HETATM   15  C   UNL     1      -9.391  12.579  68.471  1.00  0.00    -0.084 A  
HETATM   16  C   UNL     1     -10.570  13.159  69.038  1.00  0.00    -0.056 A  
BRANCH  12  17
HETATM   17  C   UNL     1     -11.673  15.193  70.190  1.00  0.00    -0.307 C  
HETATM   18  N   UNL     1     -12.975  14.750  70.167  1.00  0.00    -0.587 N  
HETATM   19  H   UNL     1     -13.260  14.079  69.454  1.00  0.00     0.000 HD 
HETATM   20  O   UNL     1     -11.318  16.078  70.960  1.00  0.00    -0.382 OA 
BRANCH  18  21
HETATM   21  C   UNL     1     -13.963  15.217  71.142  1.00  0.00    -0.404 C  
BRANCH  21  22
HETATM   22  C   UNL     1     -13.788  14.466  72.467  1.00  0.00    -0.456 C  
HETATM   23  O   UNL     1     -12.977  13.302  72.247  1.00  0.00    -0.328 OA 
HETATM   24  H   UNL     1     -12.868  12.837  73.068  1.00  0.00     0.000 HD 
BRANCH  22  25
HETATM   25  C   UNL     1     -13.174  15.346  73.565  1.00  0.00    -0.352 C  
HETATM   26  H   UNL     1     -11.640  15.266  74.806  1.00  0.00     0.000 HD 
HETATM   27  O   UNL     1     -12.020  14.722  74.127  1.00  0.00    -0.446 OA 
ENDBRANCH  22  25
ENDBRANCH  21  22
ENDBRANCH  18  21
ENDBRANCH  12  17
BRANCH  15  28
HETATM   28  C   UNL     1      -9.299  11.093  68.287  1.00  0.00    -0.176 C  
HETATM   29  O   UNL     1      -9.090  10.611  67.180  1.00  0.00    -0.143 OA 
HETATM   30  H   UNL     1      -9.611  10.713  70.328  1.00  0.00     0.000 HD 
HETATM   31  N   UNL     1      -9.449  10.295  69.412  1.00  0.00    -0.215 N  
BRANCH  31  32
HETATM   32  C   UNL     1      -9.368   8.847  69.258  1.00  0.00    -0.149 C  
BRANCH  32  33
HETATM   33  C   UNL     1      -9.924   8.077  70.462  1.00  0.00    -0.190 C  
HETATM   34  H   UNL     1     -10.801   6.341  70.767  1.00  0.00     0.000 HD 
HETATM   35  O   UNL     1     -10.457   6.818  70.021  1.00  0.00    -0.197 OA 
BRANCH  33  36
HETATM   36  C   UNL     1      -8.825   7.858  71.514  1.00  0.00    -0.132 C  
HETATM   37  O   UNL     1      -9.346   7.908  72.840  1.00  0.00    -0.193 OA 
HETATM   38  H   UNL     1      -8.667   7.773  73.490  1.00  0.00     0.000 HD 
ENDBRANCH  33  36
ENDBRANCH  32  33
ENDBRANCH  31  32
ENDBRANCH  15  28
ENDBRANCH   5   8
BRANCH   6  39
HETATM   39  C   UNL     1      -5.406  17.148  68.102  1.00  0.00    -0.120 C  
HETATM   40  O   UNL     1      -5.819  18.505  67.973  1.00  0.00    -0.174 OA 
HETATM   41  H   UNL     1      -5.126  19.078  67.665  1.00  0.00     0.000 HD 
ENDBRANCH   6  39
ENDBRANCH   4   5
ENDBRANCH   3   4
TORSDOF 12
ENDMDL
MODEL      134
REMARK 921   NORMALIZED FREE ENERGY PREDICTED BY IDOCK:   -2.27 KCAL/MOL
REMARK 922        TOTAL FREE ENERGY PREDICTED BY IDOCK:   -4.14 KCAL/MOL
REMARK 923 INTER-LIGAND FREE ENERGY PREDICTED BY IDOCK:   -4.70 KCAL/MOL
REMARK 924 INTRA-LIGAND FREE ENERGY PREDICTED BY IDOCK:    0.56 KCAL/MOL
REMARK 927      BINDING AFFINITY PREDICTED BY RF-SCORE:    0.00 PKD
ROOT
HETATM    1  O   UNL     1      -8.263  19.885  65.678  1.00  0.00    -0.431 OA 
HETATM    2  H   UNL     1      -7.749  20.624  65.375  1.00  0.00     0.000 HD 
HETATM    3  C   UNL     1      -7.442  18.752  65.917  1.00  0.00    -0.198 C  
ENDROOT
BRANCH   3   4
HETATM    4  C   UNL     1      -8.273  17.560  66.406  1.00  0.00    -0.270 C  
BRANCH   4   5
HETATM    5  N   UNL     1      -7.766  16.888  67.625  1.00  0.00    -0.162 N  
HETATM    6  C   UNL     1      -7.108  17.537  68.675  1.00  0.00    -0.243 C  
HETATM    7  O   UNL     1      -6.859  16.975  69.753  1.00  0.00    -0.101 OA 
BRANCH   5   8
HETATM    8  C   UNL     1      -8.158  15.516  67.835  1.00  0.00    -0.139 A  
HETATM    9  C   UNL     1      -7.233  14.450  67.656  1.00  0.00    -0.184 A  
HETATM   10  C   UNL     1      -9.504  15.211  68.149  1.00  0.00    -0.201 A  
HETATM   11  I   UNL     1      -5.151  14.941  67.243  1.00  0.00     1.238 I  
HETATM   12  C   UNL     1      -7.627  13.091  67.818  1.00  0.00    -0.152 A  
HETATM   13  I   UNL     1     -11.014  16.748  67.904  1.00  0.00     0.066 I  
HETATM   14  I   UNL     1      -9.471  10.837  68.994  1.00  0.00    -0.013 I  
HETATM   15  C   UNL     1      -9.879  13.894  68.491  1.00  0.00    -0.214 A  
HETATM   16  C   UNL     1      -8.930  12.835  68.328  1.00  0.00    -0.175 A  
BRANCH  12  17
HETATM   17  C   UNL     1      -6.724  12.015  67.260  1.00  0.00    -0.144 C  
HETATM   18  N   UNL     1      -6.965  11.520  66.001  1.00  0.00    -0.345 N  
HETATM   19  H   UNL     1      -7.809  11.808  65.506  1.00  0.00     0.000 HD 
HETATM   20  O   UNL     1      -5.781  11.611  67.931  1.00  0.00    -0.044 OA 
BRANCH  18  21
HETATM   21  C   UNL     1      -6.039  10.590  65.351  1.00  0.00    -0.122 C  
BRANCH  21  22
HETATM   22  C   UNL     1      -6.823   9.549  64.543  1.00  0.00    -0.099 C  
HETATM   23  O   UNL     1      -5.909   8.579  64.010  1.00  0.00    -0.065 OA 
HETATM   24  H   UNL     1      -6.394   7.934  63.509  1.00  0.00     0.000 HD 
BRANCH  22  25
HETATM   25  C   UNL     1      -7.912   8.858  65.375  1.00  0.00    -0.110 C  
HETATM   26  H   UNL     1      -9.713   9.289  66.061  1.00  0.00     0.000 HD 
HETATM   27  O   UNL     1      -9.038   9.718  65.547  1.00  0.00    -0.168 OA 
ENDBRANCH  22  25
ENDBRANCH  21  22
ENDBRANCH  18  21
ENDBRANCH  12  17
BRANCH  15  28
HETATM   28  C   UNL     1     -11.263  13.594  68.985  1.00  0.00    -0.273 C  
HETATM   29  O   UNL     1     -12.121  13.169  68.220  1.00  0.00    -0.317 OA 
HETATM   30  H   UNL     1     -10.797  14.148  70.955  1.00  0.00     0.000 HD 
HETATM   31  N   UNL     1     -11.526  13.805  70.330  1.00  0.00    -0.054 N  
BRANCH  31  32
HETATM   32  C   UNL     1     -12.866  13.525  70.833  1.00  0.00    -0.226 C  
BRANCH  32  33
HETATM   33  C   UNL     1     -12.933  12.274  71.719  1.00  0.00    -0.325 C  
HETATM   34  H   UNL     1     -14.122  11.583  73.128  1.00  0.00     0.000 HD 
HETATM   35  O   UNL     1     -14.080  12.357  72.579  1.00  0.00    -0.142 OA 
BRANCH  33  36
HETATM   36  C   UNL     1     -12.999  11.005  70.853  1.00  0.00    -0.224 C  
HETATM   37  O   UNL     1     -12.097  10.003  71.317  1.00  0.00    -0.338 OA 
HETATM   38  H   UNL     1     -12.138   9.219  70.782  1.00  0.00     0.000 HD 
ENDBRANCH  33  36
ENDBRANCH  32  33
ENDBRANCH  31  32
ENDBRANCH  15  28
ENDBRANCH   5   8
BRANCH   6  39
HETATM   39  C   UNL     1      -6.713  19.010  68.487  1.00  0.00    -0.266 C  
HETATM   40  O   UNL     1      -7.447  19.897  69.325  1.00  0.00    -0.258 OA 
HETATM   41  H   UNL     1      -7.203  20.808  69.208  1.00  0.00     0.000 HD 
ENDBRANCH   6  39
ENDBRANCH   4   5
ENDBRANCH   3   4
TORSDOF 12
ENDMDL
MODEL      135
REMARK 921   NORMALIZED FREE ENERGY PREDICTED BY IDOCK:   -2.26 KCAL/MOL
REMARK 922        TOTAL FREE ENERGY PREDICTED BY IDOCK:   -4.12 KCAL/MOL
REMARK 923 INTER-LIGAND FREE ENERGY PREDICTED BY IDOCK:   -5.34 KCAL/MOL
REMARK 924 INTRA-LIGAND FREE ENERGY PREDICTED BY IDOCK:    1.22 KCAL/MOL
REMARK 927      BINDING AFFINITY PREDICTED BY RF-SCORE:    0.00 PKD
ROOT
HETATM    1  O   UNL     1     -12.474   8.073  72.539  1.00  0.00    -0.538 OA 
HETATM    2  H   UNL     1     -13.224   8.549  72.877  1.00  0.00     0.000 HD 
HETATM    3  C   UNL     1     -12.423   8.138  71.121  1.00  0.00    -0.182 C  
ENDROOT
BRANCH   3   4
HETATM    4  C   UNL     1     -11.214   7.369  70.576  1.00  0.00    -0.274 C  
BRANCH   4   5
HETATM    5  N   UNL     1     -10.011   8.189  70.300  1.00  0.00    -0.188 N  
HETATM    6  C   UNL     1      -8.966   8.397  71.205  1.00  0.00    -0.178 C  
HETATM    7  O   UNL     1      -7.898   8.938  70.877  1.00  0.00    -0.106 OA 
BRANCH   5   8
HETATM    8  C   UNL     1      -9.809   8.629  68.941  1.00  0.00    -0.179 A  
HETATM    9  C   UNL     1     -10.275   9.899  68.501  1.00  0.00    -0.177 A  
HETATM   10  C   UNL     1      -9.209   7.756  68.003  1.00  0.00    -0.138 A  
HETATM   11  I   UNL     1     -11.133  11.256  69.975  1.00  0.00     0.395 I  
HETATM   12  C   UNL     1     -10.118  10.321  67.150  1.00  0.00    -0.259 A  
HETATM   13  I   UNL     1      -8.984   5.660  68.510  1.00  0.00    -0.135 I  
HETATM   14  I   UNL     1      -8.698  10.255  64.350  1.00  0.00    -0.235 I  
HETATM   15  C   UNL     1      -8.879   8.214  66.709  1.00  0.00    -0.156 A  
HETATM   16  C   UNL     1      -9.333   9.504  66.289  1.00  0.00    -0.188 A  
BRANCH  12  17
HETATM   17  C   UNL     1     -10.946  11.488  66.666  1.00  0.00    -0.296 C  
HETATM   18  N   UNL     1     -11.161  12.555  67.505  1.00  0.00    -0.274 N  
HETATM   19  H   UNL     1     -10.851  12.496  68.475  1.00  0.00     0.000 HD 
HETATM   20  O   UNL     1     -11.399  11.476  65.527  1.00  0.00    -0.214 OA 
BRANCH  18  21
HETATM   21  C   UNL     1     -11.825  13.776  67.042  1.00  0.00    -0.410 C  
BRANCH  21  22
HETATM   22  C   UNL     1     -11.259  14.993  67.782  1.00  0.00    -0.321 C  
HETATM   23  O   UNL     1     -11.022  16.051  66.840  1.00  0.00    -0.254 OA 
HETATM   24  H   UNL     1     -10.671  16.805  67.298  1.00  0.00     0.000 HD 
BRANCH  22  25
HETATM   25  C   UNL     1     -12.182  15.478  68.908  1.00  0.00    -0.069 C  
HETATM   26  H   UNL     1     -13.180  14.683  70.416  1.00  0.00     0.000 HD 
HETATM   27  O   UNL     1     -12.609  14.383  69.719  1.00  0.00    -0.280 OA 
ENDBRANCH  22  25
ENDBRANCH  21  22
ENDBRANCH  18  21
ENDBRANCH  12  17
BRANCH  15  28
HETATM   28  C   UNL     1      -8.095   7.350  65.767  1.00  0.00    -0.129 C  
HETATM   29  O   UNL     1      -8.654   6.744  64.860  1.00  0.00    -0.010 OA 
HETATM   30  H   UNL     1      -6.270   7.794  66.706  1.00  0.00     0.000 HD 
HETATM   31  N   UNL     1      -6.722   7.275  65.954  1.00  0.00    -0.052 N  
BRANCH  31  32
HETATM   32  C   UNL     1      -5.939   6.437  65.053  1.00  0.00    -0.029 C  
BRANCH  32  33
HETATM   33  C   UNL     1      -5.532   5.095  65.673  1.00  0.00    -0.013 C  
HETATM   34  H   UNL     1      -5.348   4.355  67.488  1.00  0.00     0.000 HD 
HETATM   35  O   UNL     1      -5.600   5.187  67.104  1.00  0.00    -0.012 OA 
BRANCH  33  36
HETATM   36  C   UNL     1      -6.445   3.968  65.161  1.00  0.00    -0.039 C  
HETATM   37  O   UNL     1      -6.779   3.048  66.198  1.00  0.00    -0.045 OA 
HETATM   38  H   UNL     1      -7.343   2.352  65.881  1.00  0.00     0.000 HD 
ENDBRANCH  33  36
ENDBRANCH  32  33
ENDBRANCH  31  32
ENDBRANCH  15  28
ENDBRANCH   5   8
BRANCH   6  39
HETATM   39  C   UNL     1      -9.145   7.903  72.649  1.00  0.00    -0.197 C  
HETATM   40  O   UNL     1      -9.684   6.588  72.728  1.00  0.00    -0.157 OA 
HETATM   41  H   UNL     1      -9.794   6.282  73.621  1.00  0.00     0.000 HD 
ENDBRANCH   6  39
ENDBRANCH   4   5
ENDBRANCH   3   4
TORSDOF 12
ENDMDL
MODEL      136
REMARK 921   NORMALIZED FREE ENERGY PREDICTED BY IDOCK:   -2.22 KCAL/MOL
REMARK 922        TOTAL FREE ENERGY PREDICTED BY IDOCK:   -4.05 KCAL/MOL
REMARK 923 INTER-LIGAND FREE ENERGY PREDICTED BY IDOCK:   -7.02 KCAL/MOL
REMARK 924 INTRA-LIGAND FREE ENERGY PREDICTED BY IDOCK:    2.97 KCAL/MOL
REMARK 927      BINDING AFFINITY PREDICTED BY RF-SCORE:    0.00 PKD
ROOT
HETATM    1  O   UNL     1     -13.075   9.993  70.986  1.00  0.00    -0.388 OA 
HETATM    2  H   UNL     1     -13.947  10.197  71.304  1.00  0.00     0.000 HD 
HETATM    3  C   UNL     1     -12.277   9.417  72.009  1.00  0.00    -0.326 C  
ENDROOT
BRANCH   3   4
HETATM    4  C   UNL     1     -10.870   9.089  71.495  1.00  0.00    -0.346 C  
BRANCH   4   5
HETATM    5  N   UNL     1     -10.812   8.126  70.371  1.00  0.00    -0.234 N  
HETATM    6  C   UNL     1     -11.773   7.143  70.116  1.00  0.00    -0.120 C  
HETATM    7  O   UNL     1     -11.783   6.476  69.069  1.00  0.00    -0.133 OA 
BRANCH   5   8
HETATM    8  C   UNL     1      -9.809   8.351  69.360  1.00  0.00    -0.185 A  
HETATM    9  C   UNL     1      -9.914   9.436  68.446  1.00  0.00    -0.170 A  
HETATM   10  C   UNL     1      -8.740   7.434  69.216  1.00  0.00    -0.137 A  
HETATM   11  I   UNL     1     -11.526  10.875  68.726  1.00  0.00    -0.320 I  
HETATM   12  C   UNL     1      -8.950   9.637  67.418  1.00  0.00    -0.141 A  
HETATM   13  I   UNL     1      -8.853   5.520  70.228  1.00  0.00    -0.165 I  
HETATM   14  I   UNL     1      -6.086   9.312  66.170  1.00  0.00    -0.062 I  
HETATM   15  C   UNL     1      -7.678   7.707  68.328  1.00  0.00    -0.120 A  
HETATM   16  C   UNL     1      -7.786   8.817  67.431  1.00  0.00    -0.098 A  
BRANCH  12  17
HETATM   17  C   UNL     1      -9.307  10.558  66.275  1.00  0.00    -0.170 C  
HETATM   18  N   UNL     1     -10.199  10.131  65.319  1.00  0.00    -0.267 N  
HETATM   19  H   UNL     1     -10.522   9.164  65.337  1.00  0.00     0.000 HD 
HETATM   20  O   UNL     1      -8.811  11.678  66.224  1.00  0.00    -0.193 OA 
BRANCH  18  21
HETATM   21  C   UNL     1     -10.696  11.031  64.276  1.00  0.00    -0.278 C  
BRANCH  21  22
HETATM   22  C   UNL     1     -10.866  12.445  64.840  1.00  0.00    -0.297 C  
HETATM   23  O   UNL     1     -10.017  13.348  64.115  1.00  0.00    -0.757 OA 
HETATM   24  H   UNL     1     -10.122  14.225  64.464  1.00  0.00     0.000 HD 
BRANCH  22  25
HETATM   25  C   UNL     1     -12.322  12.927  64.793  1.00  0.00    -0.459 C  
HETATM   26  H   UNL     1     -14.051  12.269  64.101  1.00  0.00     0.000 HD 
HETATM   27  O   UNL     1     -13.150  11.971  64.130  1.00  0.00    -0.661 OA 
ENDBRANCH  22  25
ENDBRANCH  21  22
ENDBRANCH  18  21
ENDBRANCH  12  17
BRANCH  15  28
HETATM   28  C   UNL     1      -6.463   6.828  68.291  1.00  0.00    -0.053 C  
HETATM   29  O   UNL     1      -5.518   7.034  69.043  1.00  0.00    -0.017 OA 
HETATM   30  H   UNL     1      -7.257   5.612  66.775  1.00  0.00     0.000 HD 
HETATM   31  N   UNL     1      -6.457   5.776  67.386  1.00  0.00    -0.042 N  
BRANCH  31  32
HETATM   32  C   UNL     1      -5.285   4.910  67.328  1.00  0.00    -0.008 C  
BRANCH  32  33
HETATM   33  C   UNL     1      -5.501   3.654  66.476  1.00  0.00    -0.017 C  
HETATM   34  H   UNL     1      -5.432   1.706  66.758  1.00  0.00     0.000 HD 
HETATM   35  O   UNL     1      -5.299   2.485  67.286  1.00  0.00    -0.015 OA 
BRANCH  33  36
HETATM   36  C   UNL     1      -6.914   3.652  65.869  1.00  0.00    -0.062 C  
HETATM   37  O   UNL     1      -6.999   2.794  64.733  1.00  0.00    -0.046 OA 
HETATM   38  H   UNL     1      -7.872   2.793  64.359  1.00  0.00     0.000 HD 
ENDBRANCH  33  36
ENDBRANCH  32  33
ENDBRANCH  31  32
ENDBRANCH  15  28
ENDBRANCH   5   8
BRANCH   6  39
HETATM   39  C   UNL     1     -12.874   6.912  71.163  1.00  0.00    -0.226 C  
HETATM   40  O   UNL     1     -12.442   6.114  72.261  1.00  0.00    -0.505 OA 
HETATM   41  H   UNL     1     -13.123   5.971  72.909  1.00  0.00     0.000 HD 
ENDBRANCH   6  39
ENDBRANCH   4   5
ENDBRANCH   3   4
TORSDOF 12
ENDMDL
MODEL      137
REMARK 921   NORMALIZED FREE ENERGY PREDICTED BY IDOCK:   -2.01 KCAL/MOL
REMARK 922        TOTAL FREE ENERGY PREDICTED BY IDOCK:   -3.70 KCAL/MOL
REMARK 923 INTER-LIGAND FREE ENERGY PREDICTED BY IDOCK:   -4.51 KCAL/MOL
REMARK 924 INTRA-LIGAND FREE ENERGY PREDICTED BY IDOCK:    0.81 KCAL/MOL
REMARK 927      BINDING AFFINITY PREDICTED BY RF-SCORE:    0.00 PKD
ROOT
HETATM    1  O   UNL     1     -11.947  16.677  73.768  1.00  0.00    -0.397 OA 
HETATM    2  H   UNL     1     -12.140  17.601  73.871  1.00  0.00     0.000 HD 
HETATM    3  C   UNL     1     -11.799  16.334  72.398  1.00  0.00    -0.512 C  
ENDROOT
BRANCH   3   4
HETATM    4  C   UNL     1     -11.487  14.841  72.233  1.00  0.00     0.127 C  
BRANCH   4   5
HETATM    5  N   UNL     1     -12.343  14.116  71.266  1.00  0.00    -0.360 N  
HETATM    6  C   UNL     1     -13.699  14.379  71.052  1.00  0.00    -0.144 C  
HETATM    7  O   UNL     1     -14.336  13.876  70.112  1.00  0.00     2.352 OA 
BRANCH   5   8
HETATM    8  C   UNL     1     -11.686  13.224  70.341  1.00  0.00    -0.083 A  
HETATM    9  C   UNL     1     -11.064  13.715  69.160  1.00  0.00    -0.231 A  
HETATM   10  C   UNL     1     -11.726  11.828  70.566  1.00  0.00    -0.049 A  
HETATM   11  I   UNL     1     -10.951  15.871  68.867  1.00  0.00    -0.359 I  
HETATM   12  C   UNL     1     -10.453  12.835  68.222  1.00  0.00    -0.250 A  
HETATM   13  I   UNL     1     -13.102  11.039  72.045  1.00  0.00     0.427 I  
HETATM   14  I   UNL     1      -9.070  10.133  67.416  1.00  0.00    -0.158 I  
HETATM   15  C   UNL     1     -10.978  10.950  69.752  1.00  0.00    -0.290 A  
HETATM   16  C   UNL     1     -10.336  11.463  68.580  1.00  0.00    -0.205 A  
BRANCH  12  17
HETATM   17  C   UNL     1     -10.150  13.365  66.840  1.00  0.00    -0.255 C  
HETATM   18  N   UNL     1     -11.186  13.636  65.979  1.00  0.00    -0.294 N  
HETATM   19  H   UNL     1     -12.136  13.376  66.247  1.00  0.00     0.000 HD 
HETATM   20  O   UNL     1      -8.984  13.562  66.511  1.00  0.00    -0.170 OA 
BRANCH  18  21
HETATM   21  C   UNL     1     -10.963  14.290  64.688  1.00  0.00    -0.367 C  
BRANCH  21  22
HETATM   22  C   UNL     1     -10.881  13.239  63.575  1.00  0.00     0.355 C  
HETATM   23  O   UNL     1      -9.597  12.598  63.623  1.00  0.00    -0.654 OA 
HETATM   24  H   UNL     1      -9.547  11.947  62.934  1.00  0.00     0.000 HD 
BRANCH  22  25
HETATM   25  C   UNL     1     -12.004  12.196  63.667  1.00  0.00    -0.534 C  
HETATM   26  H   UNL     1     -13.950  12.178  63.998  1.00  0.00     0.000 HD 
HETATM   27  O   UNL     1     -13.256  12.824  63.942  1.00  0.00    -0.406 OA 
ENDBRANCH  22  25
ENDBRANCH  21  22
ENDBRANCH  18  21
ENDBRANCH  12  17
BRANCH  15  28
HETATM   28  C   UNL     1     -10.881   9.491  70.083  1.00  0.00    -0.258 C  
HETATM   29  O   UNL     1     -11.604   8.673  69.526  1.00  0.00     0.290 OA 
HETATM   30  H   UNL     1      -9.340   9.797  71.475  1.00  0.00     0.000 HD 
HETATM   31  N   UNL     1      -9.942   9.106  71.029  1.00  0.00    -0.275 N  
BRANCH  31  32
HETATM   32  C   UNL     1      -9.833   7.693  71.371  1.00  0.00    -0.174 C  
BRANCH  32  33
HETATM   33  C   UNL     1     -10.708   7.288  72.564  1.00  0.00    -0.262 C  
HETATM   34  H   UNL     1     -12.592   6.796  72.853  1.00  0.00     0.000 HD 
HETATM   35  O   UNL     1     -12.050   7.047  72.114  1.00  0.00    -0.292 OA 
BRANCH  33  36
HETATM   36  C   UNL     1     -10.136   6.036  73.250  1.00  0.00    -0.193 C  
HETATM   37  O   UNL     1      -9.479   5.179  72.319  1.00  0.00    -0.137 OA 
HETATM   38  H   UNL     1      -9.125   4.406  72.743  1.00  0.00     0.000 HD 
ENDBRANCH  33  36
ENDBRANCH  32  33
ENDBRANCH  31  32
ENDBRANCH  15  28
ENDBRANCH   5   8
BRANCH   6  39
HETATM   39  C   UNL     1     -14.410  15.354  72.002  1.00  0.00    -0.550 C  
HETATM   40  O   UNL     1     -14.152  15.085  73.376  1.00  0.00    -0.207 OA 
HETATM   41  H   UNL     1     -14.592  15.689  73.964  1.00  0.00     0.000 HD 
ENDBRANCH   6  39
ENDBRANCH   4   5
ENDBRANCH   3   4
TORSDOF 12
ENDMDL
MODEL      138
REMARK 921   NORMALIZED FREE ENERGY PREDICTED BY IDOCK:   -1.97 KCAL/MOL
REMARK 922        TOTAL FREE ENERGY PREDICTED BY IDOCK:   -3.63 KCAL/MOL
REMARK 923 INTER-LIGAND FREE ENERGY PREDICTED BY IDOCK:   -5.13 KCAL/MOL
REMARK 924 INTRA-LIGAND FREE ENERGY PREDICTED BY IDOCK:    1.50 KCAL/MOL
REMARK 927      BINDING AFFINITY PREDICTED BY RF-SCORE:    0.00 PKD
ROOT
HETATM    1  O   UNL     1     -12.418  12.698  69.327  1.00  0.00     0.034 OA 
HETATM    2  H   UNL     1     -12.907  12.334  70.055  1.00  0.00     0.000 HD 
HETATM    3  C   UNL     1     -12.640  14.095  69.208  1.00  0.00     0.174 C  
ENDROOT
BRANCH   3   4
HETATM    4  C   UNL     1     -11.850  14.682  68.032  1.00  0.00    -0.311 C  
BRANCH   4   5
HETATM    5  N   UNL     1     -11.132  13.695  67.193  1.00  0.00    -0.292 N  
HETATM    6  C   UNL     1     -11.549  13.275  65.926  1.00  0.00    -0.347 C  
HETATM    7  O   UNL     1     -10.833  12.587  65.182  1.00  0.00    -0.274 OA 
BRANCH   5   8
HETATM    8  C   UNL     1      -9.812  13.300  67.621  1.00  0.00    -0.230 A  
HETATM    9  C   UNL     1      -9.527  11.953  67.981  1.00  0.00    -0.197 A  
HETATM   10  C   UNL     1      -8.799  14.277  67.764  1.00  0.00    -0.185 A  
HETATM   11  I   UNL     1     -11.078  10.451  67.687  1.00  0.00     0.030 I  
HETATM   12  C   UNL     1      -8.239  11.566  68.447  1.00  0.00    -0.152 A  
HETATM   13  I   UNL     1      -9.349  16.374  67.737  1.00  0.00    -0.218 I  
HETATM   14  I   UNL     1      -5.127  11.925  68.680  1.00  0.00    -0.046 I  
HETATM   15  C   UNL     1      -7.470  13.894  68.049  1.00  0.00    -0.135 A  
HETATM   16  C   UNL     1      -7.194  12.531  68.385  1.00  0.00    -0.111 A  
BRANCH  12  17
HETATM   17  C   UNL     1      -8.105  10.237  69.153  1.00  0.00    -0.138 C  
HETATM   18  N   UNL     1      -7.655   9.144  68.452  1.00  0.00    -0.082 N  
HETATM   19  H   UNL     1      -7.521   9.220  67.444  1.00  0.00     0.000 HD 
HETATM   20  O   UNL     1      -8.382  10.156  70.345  1.00  0.00    -0.069 OA 
BRANCH  18  21
HETATM   21  C   UNL     1      -7.362   7.872  69.116  1.00  0.00    -0.083 C  
BRANCH  21  22
HETATM   22  C   UNL     1      -6.892   6.839  68.087  1.00  0.00    -0.078 C  
HETATM   23  O   UNL     1      -6.853   5.542  68.702  1.00  0.00    -0.055 OA 
HETATM   24  H   UNL     1      -6.562   4.901  68.064  1.00  0.00     0.000 HD 
BRANCH  22  25
HETATM   25  C   UNL     1      -7.780   6.809  66.835  1.00  0.00    -0.103 C  
HETATM   26  H   UNL     1      -8.670   5.450  65.713  1.00  0.00     0.000 HD 
HETATM   27  O   UNL     1      -8.121   5.467  66.488  1.00  0.00    -0.104 OA 
ENDBRANCH  22  25
ENDBRANCH  21  22
ENDBRANCH  18  21
ENDBRANCH  12  17
BRANCH  15  28
HETATM   28  C   UNL     1      -6.362  14.904  68.038  1.00  0.00    -0.152 C  
HETATM   29  O   UNL     1      -5.600  14.988  67.081  1.00  0.00    -0.242 OA 
HETATM   30  H   UNL     1      -6.890  15.664  69.922  1.00  0.00     0.000 HD 
HETATM   31  N   UNL     1      -6.241  15.739  69.139  1.00  0.00    -0.119 N  
BRANCH  31  32
HETATM   32  C   UNL     1      -5.167  16.726  69.154  1.00  0.00    -0.130 C  
BRANCH  32  33
HETATM   33  C   UNL     1      -5.641  18.143  68.809  1.00  0.00    -0.185 C  
HETATM   34  H   UNL     1      -6.474  19.036  67.264  1.00  0.00     0.000 HD 
HETATM   35  O   UNL     1      -6.180  18.158  67.478  1.00  0.00    -0.168 OA 
BRANCH  33  36
HETATM   36  C   UNL     1      -6.695  18.619  69.823  1.00  0.00     0.028 C  
HETATM   37  O   UNL     1      -6.313  19.844  70.445  1.00  0.00    -0.323 OA 
HETATM   38  H   UNL     1      -6.964  20.138  71.071  1.00  0.00     0.000 HD 
ENDBRANCH  33  36
ENDBRANCH  32  33
ENDBRANCH  31  32
ENDBRANCH  15  28
ENDBRANCH   5   8
BRANCH   6  39
HETATM   39  C   UNL     1     -12.937  13.715  65.434  1.00  0.00    -0.276 C  
HETATM   40  O   UNL     1     -12.881  14.588  64.311  1.00  0.00    -0.590 OA 
HETATM   41  H   UNL     1     -13.739  14.860  64.006  1.00  0.00     0.000 HD 
ENDBRANCH   6  39
ENDBRANCH   4   5
ENDBRANCH   3   4
TORSDOF 12
ENDMDL
MODEL      139
REMARK 921   NORMALIZED FREE ENERGY PREDICTED BY IDOCK:   -1.88 KCAL/MOL
REMARK 922        TOTAL FREE ENERGY PREDICTED BY IDOCK:   -3.48 KCAL/MOL
REMARK 923 INTER-LIGAND FREE ENERGY PREDICTED BY IDOCK:   -5.82 KCAL/MOL
REMARK 924 INTRA-LIGAND FREE ENERGY PREDICTED BY IDOCK:    2.34 KCAL/MOL
REMARK 927      BINDING AFFINITY PREDICTED BY RF-SCORE:    0.00 PKD
ROOT
HETATM    1  O   UNL     1     -14.285  10.463  72.516  1.00  0.00    -0.175 OA 
HETATM    2  H   UNL     1     -14.281  10.103  73.395  1.00  0.00     0.000 HD 
HETATM    3  C   UNL     1     -13.136  10.055  71.789  1.00  0.00    -0.457 C  
ENDROOT
BRANCH   3   4
HETATM    4  C   UNL     1     -13.144  10.636  70.370  1.00  0.00    -0.038 C  
BRANCH   4   5
HETATM    5  N   UNL     1     -12.103  11.654  70.094  1.00  0.00    -0.336 N  
HETATM    6  C   UNL     1     -12.056  12.922  70.680  1.00  0.00    -0.235 C  
HETATM    7  O   UNL     1     -11.076  13.675  70.561  1.00  0.00     0.358 OA 
BRANCH   5   8
HETATM    8  C   UNL     1     -10.953  11.232  69.332  1.00  0.00    -0.228 A  
HETATM    9  C   UNL     1     -10.702  11.750  68.030  1.00  0.00    -0.208 A  
HETATM   10  C   UNL     1     -10.099  10.228  69.847  1.00  0.00    -0.171 A  
HETATM   11  I   UNL     1     -11.986  13.343  67.283  1.00  0.00    -0.214 I  
HETATM   12  C   UNL     1      -9.594  11.304  67.255  1.00  0.00    -0.188 A  
HETATM   13  I   UNL     1     -10.753   9.067  71.558  1.00  0.00    -0.363 I  
HETATM   14  I   UNL     1      -6.732  10.050  66.935  1.00  0.00    -0.086 I  
HETATM   15  C   UNL     1      -8.898   9.900  69.183  1.00  0.00    -0.165 A  
HETATM   16  C   UNL     1      -8.647  10.447  67.884  1.00  0.00    -0.118 A  
BRANCH  12  17
HETATM   17  C   UNL     1      -9.593  11.601  65.774  1.00  0.00    -0.232 C  
HETATM   18  N   UNL     1     -10.328  10.807  64.927  1.00  0.00    -0.315 N  
HETATM   19  H   UNL     1     -10.775   9.967  65.295  1.00  0.00     0.000 HD 
HETATM   20  O   UNL     1      -8.952  12.557  65.351  1.00  0.00     0.368 OA 
BRANCH  18  21
HETATM   21  C   UNL     1     -10.487  11.135  63.509  1.00  0.00    -0.358 C  
BRANCH  21  22
HETATM   22  C   UNL     1      -9.261  10.662  62.721  1.00  0.00    -0.311 C  
HETATM   23  O   UNL     1      -8.340  11.754  62.576  1.00  0.00    -0.614 OA 
HETATM   24  H   UNL     1      -7.580  11.461  62.087  1.00  0.00     0.000 HD 
BRANCH  22  25
HETATM   25  C   UNL     1      -8.566   9.461  63.378  1.00  0.00    -0.211 C  
HETATM   26  H   UNL     1      -7.445   7.938  62.809  1.00  0.00     0.000 HD 
HETATM   27  O   UNL     1      -7.875   8.680  62.403  1.00  0.00    -0.122 OA 
ENDBRANCH  22  25
ENDBRANCH  21  22
ENDBRANCH  18  21
ENDBRANCH  12  17
BRANCH  15  28
HETATM   28  C   UNL     1      -7.908   8.961  69.805  1.00  0.00    -0.090 C  
HETATM   29  O   UNL     1      -7.089   9.366  70.622  1.00  0.00    -0.099 OA 
HETATM   30  H   UNL     1      -8.661   7.303  68.760  1.00  0.00     0.000 HD 
HETATM   31  N   UNL     1      -7.965   7.626  69.432  1.00  0.00    -0.123 N  
BRANCH  31  32
HETATM   32  C   UNL     1      -7.010   6.694  70.020  1.00  0.00    -0.062 C  
BRANCH  32  33
HETATM   33  C   UNL     1      -7.329   5.225  69.717  1.00  0.00    -0.064 C  
HETATM   34  H   UNL     1      -7.221   3.511  70.679  1.00  0.00     0.000 HD 
HETATM   35  O   UNL     1      -7.023   4.421  70.867  1.00  0.00    -0.035 OA 
BRANCH  33  36
HETATM   36  C   UNL     1      -8.808   5.067  69.326  1.00  0.00    -0.091 C  
HETATM   37  O   UNL     1      -9.635   4.853  70.468  1.00  0.00    -0.156 OA 
HETATM   38  H   UNL     1     -10.549   4.755  70.226  1.00  0.00     0.000 HD 
ENDBRANCH  33  36
ENDBRANCH  32  33
ENDBRANCH  31  32
ENDBRANCH  15  28
ENDBRANCH   5   8
BRANCH   6  39
HETATM   39  C   UNL     1     -13.254  13.378  71.527  1.00  0.00    -0.312 C  
HETATM   40  O   UNL     1     -13.517  14.773  71.419  1.00  0.00    -0.360 OA 
HETATM   41  H   UNL     1     -14.259  15.055  71.943  1.00  0.00     0.000 HD 
ENDBRANCH   6  39
ENDBRANCH   4   5
ENDBRANCH   3   4
TORSDOF 12
ENDMDL
MODEL      140
REMARK 921   NORMALIZED FREE ENERGY PREDICTED BY IDOCK:   -1.84 KCAL/MOL
REMARK 922        TOTAL FREE ENERGY PREDICTED BY IDOCK:   -3.40 KCAL/MOL
REMARK 923 INTER-LIGAND FREE ENERGY PREDICTED BY IDOCK:   -6.19 KCAL/MOL
REMARK 924 INTRA-LIGAND FREE ENERGY PREDICTED BY IDOCK:    2.79 KCAL/MOL
REMARK 927      BINDING AFFINITY PREDICTED BY RF-SCORE:    0.00 PKD
ROOT
HETATM    1  O   UNL     1      -6.524  19.301  69.724  1.00  0.00    -0.278 OA 
HETATM    2  H   UNL     1      -5.910  20.011  69.579  1.00  0.00     0.000 HD 
HETATM    3  C   UNL     1      -6.129  18.132  69.021  1.00  0.00    -0.227 C  
ENDROOT
BRANCH   3   4
HETATM    4  C   UNL     1      -7.120  16.985  69.256  1.00  0.00    -0.177 C  
BRANCH   4   5
HETATM    5  N   UNL     1      -7.754  16.433  68.037  1.00  0.00    -0.150 N  
HETATM    6  C   UNL     1      -7.733  17.048  66.781  1.00  0.00    -0.239 C  
HETATM    7  O   UNL     1      -8.117  16.473  65.751  1.00  0.00    -0.198 OA 
BRANCH   5   8
HETATM    8  C   UNL     1      -8.245  15.078  68.103  1.00  0.00    -0.140 A  
HETATM    9  C   UNL     1      -9.624  14.804  68.325  1.00  0.00    -0.215 A  
HETATM   10  C   UNL     1      -7.335  13.997  68.027  1.00  0.00    -0.141 A  
HETATM   11  I   UNL     1     -11.019  16.477  68.370  1.00  0.00    -0.157 I  
HETATM   12  C   UNL     1     -10.107  13.470  68.436  1.00  0.00    -0.240 A  
HETATM   13  I   UNL     1      -5.213  14.393  68.224  1.00  0.00    -0.092 I  
HETATM   14  I   UNL     1      -9.935  10.381  67.895  1.00  0.00    -0.232 I  
HETATM   15  C   UNL     1      -7.806  12.668  67.953  1.00  0.00    -0.154 A  
HETATM   16  C   UNL     1      -9.200  12.411  68.154  1.00  0.00    -0.205 A  
BRANCH  12  17
HETATM   17  C   UNL     1     -11.479  13.255  69.032  1.00  0.00    -0.302 C  
HETATM   18  N   UNL     1     -11.688  13.536  70.361  1.00  0.00    -0.531 N  
HETATM   19  H   UNL     1     -10.891  13.783  70.949  1.00  0.00     0.000 HD 
HETATM   20  O   UNL     1     -12.390  12.849  68.319  1.00  0.00    -0.073 OA 
BRANCH  18  21
HETATM   21  C   UNL     1     -13.025  13.492  70.955  1.00  0.00    -0.202 C  
BRANCH  21  22
HETATM   22  C   UNL     1     -13.233  14.703  71.871  1.00  0.00    -0.349 C  
HETATM   23  O   UNL     1     -14.122  14.341  72.939  1.00  0.00    -0.525 OA 
HETATM   24  H   UNL     1     -14.251  15.091  73.507  1.00  0.00     0.000 HD 
BRANCH  22  25
HETATM   25  C   UNL     1     -11.914  15.247  72.436  1.00  0.00    -0.419 C  
HETATM   26  H   UNL     1     -10.003  15.233  71.938  1.00  0.00     0.000 HD 
HETATM   27  O   UNL     1     -10.819  14.896  71.589  1.00  0.00     0.039 OA 
ENDBRANCH  22  25
ENDBRANCH  21  22
ENDBRANCH  18  21
ENDBRANCH  12  17
BRANCH  15  28
HETATM   28  C   UNL     1      -6.860  11.531  67.705  1.00  0.00    -0.083 C  
HETATM   29  O   UNL     1      -6.319  11.394  66.614  1.00  0.00    -0.134 OA 
HETATM   30  H   UNL     1      -7.067  10.791  69.659  1.00  0.00     0.000 HD 
HETATM   31  N   UNL     1      -6.617  10.656  68.753  1.00  0.00    -0.052 N  
BRANCH  31  32
HETATM   32  C   UNL     1      -5.704   9.540  68.535  1.00  0.00    -0.040 C  
BRANCH  32  33
HETATM   33  C   UNL     1      -6.350   8.171  68.781  1.00  0.00    -0.045 C  
HETATM   34  H   UNL     1      -8.015   7.501  69.593  1.00  0.00     0.000 HD 
HETATM   35  O   UNL     1      -7.614   8.349  69.440  1.00  0.00    -0.087 OA 
BRANCH  33  36
HETATM   36  C   UNL     1      -6.536   7.417  67.454  1.00  0.00    -0.060 C  
HETATM   37  O   UNL     1      -5.706   6.260  67.384  1.00  0.00    -0.012 OA 
HETATM   38  H   UNL     1      -5.820   5.795  66.564  1.00  0.00     0.000 HD 
ENDBRANCH  33  36
ENDBRANCH  32  33
ENDBRANCH  31  32
ENDBRANCH  15  28
ENDBRANCH   5   8
BRANCH   6  39
HETATM   39  C   UNL     1      -7.179  18.477  66.681  1.00  0.00    -0.216 C  
HETATM   40  O   UNL     1      -8.010  19.445  67.314  1.00  0.00    -0.255 OA 
HETATM   41  H   UNL     1      -7.667  20.329  67.251  1.00  0.00     0.000 HD 
ENDBRANCH   6  39
ENDBRANCH   4   5
ENDBRANCH   3   4
TORSDOF 12
ENDMDL
MODEL      141
REMARK 921   NORMALIZED FREE ENERGY PREDICTED BY IDOCK:   -1.83 KCAL/MOL
REMARK 922        TOTAL FREE ENERGY PREDICTED BY IDOCK:   -3.40 KCAL/MOL
REMARK 923 INTER-LIGAND FREE ENERGY PREDICTED BY IDOCK:   -3.09 KCAL/MOL
REMARK 924 INTRA-LIGAND FREE ENERGY PREDICTED BY IDOCK:   -0.31 KCAL/MOL
REMARK 927      BINDING AFFINITY PREDICTED BY RF-SCORE:    0.00 PKD
ROOT
HETATM    1  O   UNL     1     -12.191  16.230  73.611  1.00  0.00    -0.493 OA 
HETATM    2  H   UNL     1     -12.442  17.098  73.902  1.00  0.00     0.000 HD 
HETATM    3  C   UNL     1     -11.747  16.251  72.262  1.00  0.00    -0.436 C  
ENDROOT
BRANCH   3   4
HETATM    4  C   UNL     1     -11.342  14.849  71.792  1.00  0.00    -0.099 C  
BRANCH   4   5
HETATM    5  N   UNL     1     -11.613  14.553  70.366  1.00  0.00    -0.267 N  
HETATM    6  C   UNL     1     -12.809  14.850  69.706  1.00  0.00     0.092 C  
HETATM    7  O   UNL     1     -12.933  14.752  68.475  1.00  0.00     0.848 OA 
BRANCH   5   8
HETATM    8  C   UNL     1     -10.499  14.121  69.558  1.00  0.00     0.115 A  
HETATM    9  C   UNL     1      -9.662  15.060  68.892  1.00  0.00    -0.224 A  
HETATM   10  C   UNL     1     -10.275  12.738  69.353  1.00  0.00     0.606 A  
HETATM   11  I   UNL     1      -9.978  17.182  69.275  1.00  0.00     0.130 I  
HETATM   12  C   UNL     1      -8.589  14.638  68.058  1.00  0.00    -0.162 A  
HETATM   13  I   UNL     1     -11.827  11.329  69.908  1.00  0.00    -0.444 I  
HETATM   14  I   UNL     1      -6.417  12.567  67.132  1.00  0.00     0.469 I  
HETATM   15  C   UNL     1      -9.117  12.292  68.681  1.00  0.00     0.013 A  
HETATM   16  C   UNL     1      -8.271  13.251  68.038  1.00  0.00    -0.162 A  
BRANCH  12  17
HETATM   17  C   UNL     1      -7.989  15.644  67.104  1.00  0.00    -0.219 C  
HETATM   18  N   UNL     1      -6.828  16.293  67.452  1.00  0.00    -0.160 N  
HETATM   19  H   UNL     1      -6.450  16.167  68.391  1.00  0.00     0.000 HD 
HETATM   20  O   UNL     1      -8.534  15.854  66.026  1.00  0.00    -0.271 OA 
BRANCH  18  21
HETATM   21  C   UNL     1      -6.121  17.163  66.510  1.00  0.00    -0.202 C  
BRANCH  21  22
HETATM   22  C   UNL     1      -6.434  18.632  66.815  1.00  0.00    -0.184 C  
HETATM   23  O   UNL     1      -7.790  18.914  66.439  1.00  0.00    -0.261 OA 
HETATM   24  H   UNL     1      -7.984  19.825  66.627  1.00  0.00     0.000 HD 
BRANCH  22  25
HETATM   25  C   UNL     1      -6.202  18.989  68.290  1.00  0.00    -0.223 C  
HETATM   26  H   UNL     1      -6.976  20.218  69.628  1.00  0.00     0.000 HD 
HETATM   27  O   UNL     1      -7.119  19.997  68.715  1.00  0.00    -0.305 OA 
ENDBRANCH  22  25
ENDBRANCH  21  22
ENDBRANCH  18  21
ENDBRANCH  12  17
BRANCH  15  28
HETATM   28  C   UNL     1      -8.788  10.831  68.606  1.00  0.00    -0.152 C  
HETATM   29  O   UNL     1      -8.284  10.252  69.562  1.00  0.00    -0.158 OA 
HETATM   30  H   UNL     1      -9.516  10.658  66.645  1.00  0.00     0.000 HD 
HETATM   31  N   UNL     1      -9.086  10.164  67.426  1.00  0.00    -0.137 N  
BRANCH  31  32
HETATM   32  C   UNL     1      -8.771   8.744  67.328  1.00  0.00    -0.129 C  
BRANCH  32  33
HETATM   33  C   UNL     1      -9.830   7.841  67.972  1.00  0.00    -0.163 C  
HETATM   34  H   UNL     1     -11.291   6.679  67.346  1.00  0.00     0.000 HD 
HETATM   35  O   UNL     1     -10.635   7.239  66.947  1.00  0.00    -0.316 OA 
BRANCH  33  36
HETATM   36  C   UNL     1      -9.160   6.759  68.836  1.00  0.00    -0.133 C  
HETATM   37  O   UNL     1      -8.080   7.290  69.602  1.00  0.00    -0.124 OA 
HETATM   38  H   UNL     1      -7.666   6.622  70.135  1.00  0.00     0.000 HD 
ENDBRANCH  33  36
ENDBRANCH  32  33
ENDBRANCH  31  32
ENDBRANCH  15  28
ENDBRANCH   5   8
BRANCH   6  39
HETATM   39  C   UNL     1     -13.998  15.348  70.542  1.00  0.00     0.473 C  
HETATM   40  O   UNL     1     -14.384  14.435  71.564  1.00  0.00    -0.409 OA 
HETATM   41  H   UNL     1     -15.119  14.743  72.082  1.00  0.00     0.000 HD 
ENDBRANCH   6  39
ENDBRANCH   4   5
ENDBRANCH   3   4
TORSDOF 12
ENDMDL
MODEL      142
REMARK 921   NORMALIZED FREE ENERGY PREDICTED BY IDOCK:   -1.82 KCAL/MOL
REMARK 922        TOTAL FREE ENERGY PREDICTED BY IDOCK:   -3.37 KCAL/MOL
REMARK 923 INTER-LIGAND FREE ENERGY PREDICTED BY IDOCK:   -3.72 KCAL/MOL
REMARK 924 INTRA-LIGAND FREE ENERGY PREDICTED BY IDOCK:    0.35 KCAL/MOL
REMARK 927      BINDING AFFINITY PREDICTED BY RF-SCORE:    0.00 PKD
ROOT
HETATM    1  O   UNL     1      -9.651   8.817  72.876  1.00  0.00    -0.148 OA 
HETATM    2  H   UNL     1      -9.862   9.592  73.383  1.00  0.00     0.000 HD 
HETATM    3  C   UNL     1      -8.818   7.934  73.613  1.00  0.00    -0.274 C  
ENDROOT
BRANCH   3   4
HETATM    4  C   UNL     1      -8.478   6.683  72.795  1.00  0.00    -0.119 C  
BRANCH   4   5
HETATM    5  N   UNL     1      -7.511   6.889  71.691  1.00  0.00    -0.085 N  
HETATM    6  C   UNL     1      -6.158   7.192  71.867  1.00  0.00    -0.037 C  
HETATM    7  O   UNL     1      -5.345   7.180  70.929  1.00  0.00    -0.026 OA 
BRANCH   5   8
HETATM    8  C   UNL     1      -7.948   6.551  70.359  1.00  0.00    -0.115 A  
HETATM    9  C   UNL     1      -8.393   7.554  69.453  1.00  0.00    -0.132 A  
HETATM   10  C   UNL     1      -8.012   5.194  69.964  1.00  0.00    -0.082 A  
HETATM   11  I   UNL     1      -8.221   9.642  70.052  1.00  0.00    -0.142 I  
HETATM   12  C   UNL     1      -8.867   7.223  68.152  1.00  0.00    -0.126 A  
HETATM   13  I   UNL     1      -7.851   3.650  71.478  1.00  0.00    -0.060 I  
HETATM   14  I   UNL     1      -9.035   5.357  65.631  1.00  0.00    -0.054 I  
HETATM   15  C   UNL     1      -8.304   4.850  68.627  1.00  0.00    -0.083 A  
HETATM   16  C   UNL     1      -8.728   5.874  67.720  1.00  0.00    -0.104 A  
BRANCH  12  17
HETATM   17  C   UNL     1      -9.659   8.262  67.395  1.00  0.00    -0.160 C  
HETATM   18  N   UNL     1      -8.993   9.244  66.701  1.00  0.00    -0.136 N  
HETATM   19  H   UNL     1      -7.980   9.320  66.796  1.00  0.00     0.000 HD 
HETATM   20  O   UNL     1     -10.885   8.206  67.394  1.00  0.00    -0.226 OA 
BRANCH  18  21
HETATM   21  C   UNL     1      -9.699  10.185  65.830  1.00  0.00    -0.245 C  
BRANCH  21  22
HETATM   22  C   UNL     1      -8.700  10.913  64.924  1.00  0.00    -0.067 C  
HETATM   23  O   UNL     1      -7.422  10.265  65.012  1.00  0.00    -0.140 OA 
HETATM   24  H   UNL     1      -6.803  10.716  64.451  1.00  0.00     0.000 HD 
BRANCH  22  25
HETATM   25  C   UNL     1      -9.168  10.977  63.464  1.00  0.00    -0.221 C  
HETATM   26  H   UNL     1     -10.850  11.321  62.488  1.00  0.00     0.000 HD 
HETATM   27  O   UNL     1     -10.561  11.281  63.392  1.00  0.00    -0.375 OA 
ENDBRANCH  22  25
ENDBRANCH  21  22
ENDBRANCH  18  21
ENDBRANCH  12  17
BRANCH  15  28
HETATM   28  C   UNL     1      -8.211   3.427  68.162  1.00  0.00    -0.078 C  
HETATM   29  O   UNL     1      -9.189   2.690  68.204  1.00  0.00    -0.167 OA 
HETATM   30  H   UNL     1      -6.187   3.617  67.638  1.00  0.00     0.000 HD 
HETATM   31  N   UNL     1      -6.988   2.987  67.677  1.00  0.00    -0.049 N  
BRANCH  31  32
HETATM   32  C   UNL     1      -6.872   1.606  67.224  1.00  0.00    -0.038 C  
BRANCH  32  33
HETATM   33  C   UNL     1      -6.802   1.472  65.698  1.00  0.00    -0.031 C  
HETATM   34  H   UNL     1      -7.687   2.302  64.147  1.00  0.00     0.000 HD 
HETATM   35  O   UNL     1      -7.730   2.385  65.093  1.00  0.00    -0.074 OA 
BRANCH  33  36
HETATM   36  C   UNL     1      -5.373   1.747  65.199  1.00  0.00    -0.005 C  
HETATM   37  O   UNL     1      -5.262   1.564  63.790  1.00  0.00    -0.004 OA 
HETATM   38  H   UNL     1      -4.379   1.734  63.482  1.00  0.00     0.000 HD 
ENDBRANCH  33  36
ENDBRANCH  32  33
ENDBRANCH  31  32
ENDBRANCH  15  28
ENDBRANCH   5   8
BRANCH   6  39
HETATM   39  C   UNL     1      -5.663   7.519  73.284  1.00  0.00    -0.044 C  
HETATM   40  O   UNL     1      -5.226   8.867  73.428  1.00  0.00    -0.072 OA 
HETATM   41  H   UNL     1      -4.920   9.068  74.305  1.00  0.00     0.000 HD 
ENDBRANCH   6  39
ENDBRANCH   4   5
ENDBRANCH   3   4
TORSDOF 12
ENDMDL
MODEL      143
REMARK 921   NORMALIZED FREE ENERGY PREDICTED BY IDOCK:   -1.68 KCAL/MOL
REMARK 922        TOTAL FREE ENERGY PREDICTED BY IDOCK:   -3.13 KCAL/MOL
REMARK 923 INTER-LIGAND FREE ENERGY PREDICTED BY IDOCK:   -3.98 KCAL/MOL
REMARK 924 INTRA-LIGAND FREE ENERGY PREDICTED BY IDOCK:    0.85 KCAL/MOL
REMARK 927      BINDING AFFINITY PREDICTED BY RF-SCORE:    0.00 PKD
ROOT
HETATM    1  O   UNL     1     -12.045  16.291  73.983  1.00  0.00    -0.445 OA 
HETATM    2  H   UNL     1     -12.244  17.193  74.205  1.00  0.00     0.000 HD 
HETATM    3  C   UNL     1     -11.828  16.143  72.588  1.00  0.00    -0.506 C  
ENDROOT
BRANCH   3   4
HETATM    4  C   UNL     1     -11.507  14.686  72.230  1.00  0.00     0.350 C  
BRANCH   4   5
HETATM    5  N   UNL     1     -12.109  14.194  70.969  1.00  0.00    -0.346 N  
HETATM    6  C   UNL     1     -13.444  14.382  70.599  1.00  0.00     0.048 C  
HETATM    7  O   UNL     1     -13.865  14.114  69.462  1.00  0.00     2.555 OA 
BRANCH   5   8
HETATM    8  C   UNL     1     -11.211  13.668  69.970  1.00  0.00     0.117 A  
HETATM    9  C   UNL     1     -10.507  14.531  69.085  1.00  0.00    -0.216 A  
HETATM   10  C   UNL     1     -11.084  12.268  69.808  1.00  0.00     0.149 A  
HETATM   11  I   UNL     1     -10.661  16.683  69.393  1.00  0.00    -0.056 I  
HETATM   12  C   UNL     1      -9.654  14.016  68.067  1.00  0.00    -0.217 A  
HETATM   13  I   UNL     1     -12.525  10.963  70.768  1.00  0.00    -0.451 I  
HETATM   14  I   UNL     1      -7.804  11.801  66.829  1.00  0.00     0.100 I  
HETATM   15  C   UNL     1     -10.113  11.734  68.933  1.00  0.00    -0.088 A  
HETATM   16  C   UNL     1      -9.395  12.617  68.066  1.00  0.00    -0.209 A  
BRANCH  12  17
HETATM   17  C   UNL     1      -9.241  14.941  66.947  1.00  0.00    -0.246 C  
HETATM   18  N   UNL     1      -8.347  15.954  67.205  1.00  0.00    -0.184 N  
HETATM   19  H   UNL     1      -8.061  16.132  68.167  1.00  0.00     0.000 HD 
HETATM   20  O   UNL     1      -9.693  14.766  65.821  1.00  0.00    -0.325 OA 
BRANCH  18  21
HETATM   21  C   UNL     1      -7.796  16.784  66.132  1.00  0.00    -0.209 C  
BRANCH  21  22
HETATM   22  C   UNL     1      -7.471  18.184  66.665  1.00  0.00    -0.225 C  
HETATM   23  O   UNL     1      -6.281  18.669  66.026  1.00  0.00    -0.174 OA 
HETATM   24  H   UNL     1      -6.079  19.536  66.357  1.00  0.00     0.000 HD 
BRANCH  22  25
HETATM   25  C   UNL     1      -8.627  19.173  66.464  1.00  0.00    -0.322 C  
HETATM   26  H   UNL     1     -10.514  19.108  65.883  1.00  0.00     0.000 HD 
HETATM   27  O   UNL     1      -9.798  18.496  66.008  1.00  0.00    -0.494 OA 
ENDBRANCH  22  25
ENDBRANCH  21  22
ENDBRANCH  18  21
ENDBRANCH  12  17
BRANCH  15  28
HETATM   28  C   UNL     1      -9.858  10.257  68.880  1.00  0.00    -0.195 C  
HETATM   29  O   UNL     1     -10.191   9.599  67.901  1.00  0.00    -0.174 OA 
HETATM   30  H   UNL     1      -8.946  10.237  70.771  1.00  0.00     0.000 HD 
HETATM   31  N   UNL     1      -9.227   9.673  69.969  1.00  0.00    -0.228 N  
BRANCH  31  32
HETATM   32  C   UNL     1      -8.972   8.238  69.942  1.00  0.00    -0.139 C  
BRANCH  32  33
HETATM   33  C   UNL     1      -9.984   7.427  70.761  1.00  0.00    -0.182 C  
HETATM   34  H   UNL     1     -10.803   7.548  72.548  1.00  0.00     0.000 HD 
HETATM   35  O   UNL     1     -10.176   8.050  72.040  1.00  0.00    -0.196 OA 
BRANCH  33  36
HETATM   36  C   UNL     1     -11.321   7.320  70.008  1.00  0.00    -0.166 C  
HETATM   37  O   UNL     1     -12.368   6.852  70.856  1.00  0.00    -0.423 OA 
HETATM   38  H   UNL     1     -13.193   6.785  70.391  1.00  0.00     0.000 HD 
ENDBRANCH  33  36
ENDBRANCH  32  33
ENDBRANCH  31  32
ENDBRANCH  15  28
ENDBRANCH   5   8
BRANCH   6  39
HETATM   39  C   UNL     1     -14.410  14.976  71.635  1.00  0.00    -0.584 C  
HETATM   40  O   UNL     1     -14.382  14.290  72.883  1.00  0.00    -0.301 OA 
HETATM   41  H   UNL     1     -14.980  14.657  73.524  1.00  0.00     0.000 HD 
ENDBRANCH   6  39
ENDBRANCH   4   5
ENDBRANCH   3   4
TORSDOF 12
ENDMDL
MODEL      144
REMARK 921   NORMALIZED FREE ENERGY PREDICTED BY IDOCK:   -1.54 KCAL/MOL
REMARK 922        TOTAL FREE ENERGY PREDICTED BY IDOCK:   -2.90 KCAL/MOL
REMARK 923 INTER-LIGAND FREE ENERGY PREDICTED BY IDOCK:   -2.29 KCAL/MOL
REMARK 924 INTRA-LIGAND FREE ENERGY PREDICTED BY IDOCK:   -0.61 KCAL/MOL
REMARK 927      BINDING AFFINITY PREDICTED BY RF-SCORE:    0.00 PKD
ROOT
HETATM    1  O   UNL     1     -10.329   6.376  72.444  1.00  0.00    -0.186 OA 
HETATM    2  H   UNL     1     -11.030   6.780  72.943  1.00  0.00     0.000 HD 
HETATM    3  C   UNL     1      -9.674   7.328  71.619  1.00  0.00    -0.154 C  
ENDROOT
BRANCH   3   4
HETATM    4  C   UNL     1      -8.544   6.676  70.814  1.00  0.00    -0.135 C  
BRANCH   4   5
HETATM    5  N   UNL     1      -7.576   7.615  70.200  1.00  0.00    -0.085 N  
HETATM    6  C   UNL     1      -6.404   8.063  70.816  1.00  0.00    -0.037 C  
HETATM    7  O   UNL     1      -5.534   8.704  70.205  1.00  0.00    -0.022 OA 
BRANCH   5   8
HETATM    8  C   UNL     1      -7.751   7.923  68.802  1.00  0.00    -0.112 A  
HETATM    9  C   UNL     1      -7.153   7.120  67.790  1.00  0.00    -0.085 A  
HETATM   10  C   UNL     1      -8.462   9.087  68.423  1.00  0.00    -0.129 A  
HETATM   11  I   UNL     1      -6.123   5.296  68.388  1.00  0.00    -0.029 I  
HETATM   12  C   UNL     1      -7.285   7.445  66.411  1.00  0.00    -0.079 A  
HETATM   13  I   UNL     1      -8.912  10.580  69.929  1.00  0.00     0.980 I  
HETATM   14  I   UNL     1      -8.751   8.801  63.986  1.00  0.00     0.420 I  
HETATM   15  C   UNL     1      -8.760   9.333  67.066  1.00  0.00    -0.131 A  
HETATM   16  C   UNL     1      -8.171   8.502  66.061  1.00  0.00    -0.118 A  
BRANCH  12  17
HETATM   17  C   UNL     1      -6.340   6.791  65.430  1.00  0.00    -0.042 C  
HETATM   18  N   UNL     1      -6.816   5.821  64.580  1.00  0.00    -0.049 N  
HETATM   19  H   UNL     1      -7.771   5.483  64.697  1.00  0.00     0.000 HD 
HETATM   20  O   UNL     1      -5.166   7.146  65.394  1.00  0.00    -0.026 OA 
BRANCH  18  21
HETATM   21  C   UNL     1      -5.986   5.261  63.511  1.00  0.00    -0.021 C  
BRANCH  21  22
HETATM   22  C   UNL     1      -5.513   3.856  63.896  1.00  0.00    -0.013 C  
HETATM   23  O   UNL     1      -5.236   3.819  65.304  1.00  0.00    -0.008 OA 
HETATM   24  H   UNL     1      -4.942   2.947  65.543  1.00  0.00     0.000 HD 
BRANCH  22  25
HETATM   25  C   UNL     1      -6.530   2.769  63.522  1.00  0.00    -0.026 C  
HETATM   26  H   UNL     1      -8.217   2.043  64.248  1.00  0.00     0.000 HD 
HETATM   27  O   UNL     1      -7.587   2.715  64.480  1.00  0.00    -0.072 OA 
ENDBRANCH  22  25
ENDBRANCH  21  22
ENDBRANCH  18  21
ENDBRANCH  12  17
BRANCH  15  28
HETATM   28  C   UNL     1      -9.653  10.472  66.671  1.00  0.00    -0.172 C  
HETATM   29  O   UNL     1     -10.852  10.295  66.494  1.00  0.00    -0.123 OA 
HETATM   30  H   UNL     1      -8.075  11.857  66.689  1.00  0.00     0.000 HD 
HETATM   31  N   UNL     1      -9.073  11.724  66.527  1.00  0.00    -0.200 N  
BRANCH  31  32
HETATM   32  C   UNL     1      -9.919  12.846  66.138  1.00  0.00    -0.272 C  
BRANCH  32  33
HETATM   33  C   UNL     1      -9.645  14.121  66.945  1.00  0.00    -0.270 C  
HETATM   34  H   UNL     1      -8.064  15.030  67.689  1.00  0.00     0.000 HD 
HETATM   35  O   UNL     1      -8.235  14.240  67.189  1.00  0.00    -0.199 OA 
BRANCH  33  36
HETATM   36  C   UNL     1     -10.168  15.356  66.193  1.00  0.00    -0.308 C  
HETATM   37  O   UNL     1     -10.203  16.508  67.031  1.00  0.00    -0.277 OA 
HETATM   38  H   UNL     1     -10.526  17.271  66.566  1.00  0.00     0.000 HD 
ENDBRANCH  33  36
ENDBRANCH  32  33
ENDBRANCH  31  32
ENDBRANCH  15  28
ENDBRANCH   5   8
BRANCH   6  39
HETATM   39  C   UNL     1      -6.180   7.715  72.295  1.00  0.00    -0.040 C  
HETATM   40  O   UNL     1      -6.653   8.721  73.185  1.00  0.00    -0.271 OA 
HETATM   41  H   UNL     1      -6.515   8.506  74.100  1.00  0.00     0.000 HD 
ENDBRANCH   6  39
ENDBRANCH   4   5
ENDBRANCH   3   4
TORSDOF 12
ENDMDL
MODEL      145
REMARK 921   NORMALIZED FREE ENERGY PREDICTED BY IDOCK:   -1.53 KCAL/MOL
REMARK 922        TOTAL FREE ENERGY PREDICTED BY IDOCK:   -2.88 KCAL/MOL
REMARK 923 INTER-LIGAND FREE ENERGY PREDICTED BY IDOCK:   -4.39 KCAL/MOL
REMARK 924 INTRA-LIGAND FREE ENERGY PREDICTED BY IDOCK:    1.51 KCAL/MOL
REMARK 927      BINDING AFFINITY PREDICTED BY RF-SCORE:    0.00 PKD
ROOT
HETATM    1  O   UNL     1     -12.220  11.117  67.527  1.00  0.00    -0.256 OA 
HETATM    2  H   UNL     1     -11.925  10.284  67.178  1.00  0.00     0.000 HD 
HETATM    3  C   UNL     1     -11.534  12.200  66.919  1.00  0.00    -0.351 C  
ENDROOT
BRANCH   3   4
HETATM    4  C   UNL     1     -12.011  13.544  67.482  1.00  0.00    -0.346 C  
BRANCH   4   5
HETATM    5  N   UNL     1     -11.217  14.077  68.614  1.00  0.00    -0.253 N  
HETATM    6  C   UNL     1     -11.593  13.994  69.958  1.00  0.00    -0.232 C  
HETATM    7  O   UNL     1     -10.823  14.291  70.885  1.00  0.00     0.470 OA 
BRANCH   5   8
HETATM    8  C   UNL     1      -9.877  14.526  68.326  1.00  0.00    -0.229 A  
HETATM    9  C   UNL     1      -9.623  15.855  67.889  1.00  0.00    -0.215 A  
HETATM   10  C   UNL     1      -8.800  13.611  68.402  1.00  0.00    -0.152 A  
HETATM   11  I   UNL     1     -11.281  17.268  67.845  1.00  0.00     0.787 I  
HETATM   12  C   UNL     1      -8.307  16.290  67.561  1.00  0.00    -0.174 A  
HETATM   13  I   UNL     1      -9.229  11.490  68.543  1.00  0.00    -0.021 I  
HETATM   14  I   UNL     1      -5.177  16.125  67.765  1.00  0.00    -0.111 I  
HETATM   15  C   UNL     1      -7.469  14.059  68.259  1.00  0.00    -0.123 A  
HETATM   16  C   UNL     1      -7.228  15.406  67.842  1.00  0.00    -0.145 A  
BRANCH  12  17
HETATM   17  C   UNL     1      -8.155  17.564  66.763  1.00  0.00    -0.244 C  
HETATM   18  N   UNL     1      -8.039  18.764  67.424  1.00  0.00    -0.250 N  
HETATM   19  H   UNL     1      -8.164  18.788  68.436  1.00  0.00     0.000 HD 
HETATM   20  O   UNL     1      -8.119  17.509  65.539  1.00  0.00    -0.316 OA 
BRANCH  18  21
HETATM   21  C   UNL     1      -7.738  20.008  66.713  1.00  0.00    -0.304 C  
BRANCH  21  22
HETATM   22  C   UNL     1      -6.367  20.540  67.143  1.00  0.00    -0.229 C  
HETATM   23  O   UNL     1      -6.160  20.247  68.533  1.00  0.00    -0.260 OA 
HETATM   24  H   UNL     1      -5.311  20.577  68.800  1.00  0.00     0.000 HD 
BRANCH  22  25
HETATM   25  C   UNL     1      -5.222  19.966  66.299  1.00  0.00    -0.160 C  
HETATM   26  H   UNL     1      -4.516  20.177  64.466  1.00  0.00     0.000 HD 
HETATM   27  O   UNL     1      -5.226  20.533  64.989  1.00  0.00    -0.160 OA 
ENDBRANCH  22  25
ENDBRANCH  21  22
ENDBRANCH  18  21
ENDBRANCH  12  17
BRANCH  15  28
HETATM   28  C   UNL     1      -6.316  13.130  68.503  1.00  0.00    -0.082 C  
HETATM   29  O   UNL     1      -5.465  12.950  67.640  1.00  0.00    -0.118 OA 
HETATM   30  H   UNL     1      -6.959  12.669  70.447  1.00  0.00     0.000 HD 
HETATM   31  N   UNL     1      -6.248  12.499  69.736  1.00  0.00    -0.129 N  
BRANCH  31  32
HETATM   32  C   UNL     1      -5.139  11.588  69.994  1.00  0.00    -0.072 C  
BRANCH  32  33
HETATM   33  C   UNL     1      -5.533  10.382  70.856  1.00  0.00    -0.088 C  
HETATM   34  H   UNL     1      -6.120  10.081  72.711  1.00  0.00     0.000 HD 
HETATM   35  O   UNL     1      -5.876  10.828  72.177  1.00  0.00     0.013 OA 
BRANCH  33  36
HETATM   36  C   UNL     1      -6.712   9.628  70.218  1.00  0.00    -0.099 C  
HETATM   37  O   UNL     1      -7.758   9.393  71.159  1.00  0.00    -0.318 OA 
HETATM   38  H   UNL     1      -8.487   8.928  70.765  1.00  0.00     0.000 HD 
ENDBRANCH  33  36
ENDBRANCH  32  33
ENDBRANCH  31  32
ENDBRANCH  15  28
ENDBRANCH   5   8
BRANCH   6  39
HETATM   39  C   UNL     1     -13.004  13.484  70.289  1.00  0.00     0.192 C  
HETATM   40  O   UNL     1     -13.902  14.525  70.660  1.00  0.00    -0.417 OA 
HETATM   41  H   UNL     1     -14.775  14.209  70.865  1.00  0.00     0.000 HD 
ENDBRANCH   6  39
ENDBRANCH   4   5
ENDBRANCH   3   4
TORSDOF 12
ENDMDL
MODEL      146
REMARK 921   NORMALIZED FREE ENERGY PREDICTED BY IDOCK:   -1.51 KCAL/MOL
REMARK 922        TOTAL FREE ENERGY PREDICTED BY IDOCK:   -2.84 KCAL/MOL
REMARK 923 INTER-LIGAND FREE ENERGY PREDICTED BY IDOCK:   -5.26 KCAL/MOL
REMARK 924 INTRA-LIGAND FREE ENERGY PREDICTED BY IDOCK:    2.43 KCAL/MOL
REMARK 927      BINDING AFFINITY PREDICTED BY RF-SCORE:    0.00 PKD
ROOT
HETATM    1  O   UNL     1     -10.197  14.843  70.797  1.00  0.00    -0.339 OA 
HETATM    2  H   UNL     1     -11.010  15.334  70.774  1.00  0.00     0.000 HD 
HETATM    3  C   UNL     1      -9.200  15.467  70.001  1.00  0.00     0.221 C  
ENDROOT
BRANCH   3   4
HETATM    4  C   UNL     1      -7.888  14.675  70.039  1.00  0.00     0.454 C  
BRANCH   4   5
HETATM    5  N   UNL     1      -7.443  14.119  68.740  1.00  0.00    -0.127 N  
HETATM    6  C   UNL     1      -6.194  13.535  68.511  1.00  0.00    -0.090 C  
HETATM    7  O   UNL     1      -5.926  12.923  67.465  1.00  0.00    -0.146 OA 
BRANCH   5   8
HETATM    8  C   UNL     1      -8.437  13.987  67.703  1.00  0.00    -0.191 A  
HETATM    9  C   UNL     1      -8.825  15.101  66.907  1.00  0.00    -0.256 A  
HETATM   10  C   UNL     1      -9.100  12.750  67.520  1.00  0.00    -0.193 A  
HETATM   11  I   UNL     1      -7.745  16.978  67.155  1.00  0.00    -0.271 I  
HETATM   12  C   UNL     1      -9.837  14.987  65.913  1.00  0.00    -0.369 A  
HETATM   13  I   UNL     1      -8.911  11.220  69.044  1.00  0.00     0.364 I  
HETATM   14  I   UNL     1     -11.564  13.357  63.858  1.00  0.00    -0.165 I  
HETATM   15  C   UNL     1      -9.973  12.561  66.427  1.00  0.00    -0.262 A  
HETATM   16  C   UNL     1     -10.335  13.687  65.621  1.00  0.00    -0.300 A  
BRANCH  12  17
HETATM   17  C   UNL     1     -10.455  16.256  65.375  1.00  0.00    -0.343 C  
HETATM   18  N   UNL     1     -10.281  17.435  66.062  1.00  0.00    -0.331 N  
HETATM   19  H   UNL     1      -9.830  17.415  66.976  1.00  0.00     0.000 HD 
HETATM   20  O   UNL     1     -11.088  16.222  64.325  1.00  0.00    -0.762 OA 
BRANCH  18  21
HETATM   21  C   UNL     1     -10.726  18.717  65.513  1.00  0.00     0.033 C  
BRANCH  21  22
HETATM   22  C   UNL     1     -10.635  19.807  66.587  1.00  0.00    -0.462 C  
HETATM   23  O   UNL     1     -11.333  19.372  67.764  1.00  0.00    -0.163 OA 
HETATM   24  H   UNL     1     -11.277  20.047  68.429  1.00  0.00     0.000 HD 
BRANCH  22  25
HETATM   25  C   UNL     1      -9.185  20.174  66.931  1.00  0.00    -0.377 C  
HETATM   26  H   UNL     1      -7.474  20.403  65.971  1.00  0.00     0.000 HD 
HETATM   27  O   UNL     1      -8.372  20.176  65.757  1.00  0.00    -0.232 OA 
ENDBRANCH  22  25
ENDBRANCH  21  22
ENDBRANCH  18  21
ENDBRANCH  12  17
BRANCH  15  28
HETATM   28  C   UNL     1     -10.549  11.208  66.130  1.00  0.00    -0.248 C  
HETATM   29  O   UNL     1     -11.762  11.037  66.104  1.00  0.00     0.057 OA 
HETATM   30  H   UNL     1      -8.655  10.335  65.892  1.00  0.00     0.000 HD 
HETATM   31  N   UNL     1      -9.662  10.173  65.878  1.00  0.00    -0.215 N  
BRANCH  31  32
HETATM   32  C   UNL     1     -10.198   8.847  65.591  1.00  0.00     0.711 C  
BRANCH  32  33
HETATM   33  C   UNL     1      -9.896   7.820  66.690  1.00  0.00    -0.225 C  
HETATM   34  H   UNL     1     -10.888   6.407  67.637  1.00  0.00     0.000 HD 
HETATM   35  O   UNL     1     -11.074   7.043  66.957  1.00  0.00    -0.373 OA 
BRANCH  33  36
HETATM   36  C   UNL     1      -8.733   6.907  66.267  1.00  0.00    -0.142 C  
HETATM   37  O   UNL     1      -8.552   6.905  64.853  1.00  0.00    -0.346 OA 
HETATM   38  H   UNL     1      -7.833   6.341  64.592  1.00  0.00     0.000 HD 
ENDBRANCH  33  36
ENDBRANCH  32  33
ENDBRANCH  31  32
ENDBRANCH  15  28
ENDBRANCH   5   8
BRANCH   6  39
HETATM   39  C   UNL     1      -5.132  13.631  69.617  1.00  0.00    -0.084 C  
HETATM   40  O   UNL     1      -5.158  12.527  70.516  1.00  0.00    -0.092 OA 
HETATM   41  H   UNL     1      -4.501  12.587  71.200  1.00  0.00     0.000 HD 
ENDBRANCH   6  39
ENDBRANCH   4   5
ENDBRANCH   3   4
TORSDOF 12
ENDMDL
MODEL      147
REMARK 921   NORMALIZED FREE ENERGY PREDICTED BY IDOCK:   -1.45 KCAL/MOL
REMARK 922        TOTAL FREE ENERGY PREDICTED BY IDOCK:   -2.75 KCAL/MOL
REMARK 923 INTER-LIGAND FREE ENERGY PREDICTED BY IDOCK:   -3.45 KCAL/MOL
REMARK 924 INTRA-LIGAND FREE ENERGY PREDICTED BY IDOCK:    0.71 KCAL/MOL
REMARK 927      BINDING AFFINITY PREDICTED BY RF-SCORE:    0.00 PKD
ROOT
HETATM    1  O   UNL     1      -8.462   7.802  64.246  1.00  0.00    -0.368 OA 
HETATM    2  H   UNL     1      -8.349   8.744  64.281  1.00  0.00     0.000 HD 
HETATM    3  C   UNL     1      -7.877   7.174  65.376  1.00  0.00    -0.119 C  
ENDROOT
BRANCH   3   4
HETATM    4  C   UNL     1      -8.058   5.652  65.319  1.00  0.00    -0.125 C  
BRANCH   4   5
HETATM    5  N   UNL     1      -8.272   4.987  66.625  1.00  0.00    -0.108 N  
HETATM    6  C   UNL     1      -8.235   3.605  66.829  1.00  0.00    -0.096 C  
HETATM    7  O   UNL     1      -8.240   3.097  67.962  1.00  0.00    -0.076 OA 
BRANCH   5   8
HETATM    8  C   UNL     1      -8.315   5.829  67.796  1.00  0.00    -0.104 A  
HETATM    9  C   UNL     1      -9.415   6.697  68.039  1.00  0.00    -0.118 A  
HETATM   10  C   UNL     1      -7.211   5.857  68.681  1.00  0.00    -0.083 A  
HETATM   11  I   UNL     1     -11.135   6.591  66.705  1.00  0.00     0.865 I  
HETATM   12  C   UNL     1      -9.442   7.563  69.169  1.00  0.00    -0.150 A  
HETATM   13  I   UNL     1      -5.338   4.962  68.055  1.00  0.00    -0.013 I  
HETATM   14  I   UNL     1      -8.590   8.391  72.077  1.00  0.00    -0.182 I  
HETATM   15  C   UNL     1      -7.287   6.566  69.899  1.00  0.00    -0.086 A  
HETATM   16  C   UNL     1      -8.413   7.417  70.141  1.00  0.00    -0.137 A  
BRANCH  12  17
HETATM   17  C   UNL     1     -10.434   8.702  69.172  1.00  0.00    -0.211 C  
HETATM   18  N   UNL     1     -10.330   9.689  68.220  1.00  0.00    -0.195 N  
HETATM   19  H   UNL     1      -9.523   9.694  67.596  1.00  0.00     0.000 HD 
HETATM   20  O   UNL     1     -11.329   8.722  70.010  1.00  0.00    -0.173 OA 
BRANCH  18  21
HETATM   21  C   UNL     1     -11.347  10.733  68.080  1.00  0.00    -0.307 C  
BRANCH  21  22
HETATM   22  C   UNL     1     -10.869  11.803  67.093  1.00  0.00    -0.258 C  
HETATM   23  O   UNL     1     -11.752  11.832  65.961  1.00  0.00    -0.433 OA 
HETATM   24  H   UNL     1     -11.456  12.495  65.349  1.00  0.00     0.000 HD 
BRANCH  22  25
HETATM   25  C   UNL     1     -10.774  13.194  67.733  1.00  0.00    -0.240 C  
HETATM   26  H   UNL     1     -11.882  14.826  67.840  1.00  0.00     0.000 HD 
HETATM   27  O   UNL     1     -11.941  13.965  67.444  1.00  0.00    -0.385 OA 
ENDBRANCH  22  25
ENDBRANCH  21  22
ENDBRANCH  18  21
ENDBRANCH  12  17
BRANCH  15  28
HETATM   28  C   UNL     1      -6.190   6.465  70.916  1.00  0.00    -0.039 C  
HETATM   29  O   UNL     1      -5.336   7.340  71.005  1.00  0.00    -0.026 OA 
HETATM   30  H   UNL     1      -6.912   4.646  71.674  1.00  0.00     0.000 HD 
HETATM   31  N   UNL     1      -6.187   5.359  71.752  1.00  0.00    -0.036 N  
BRANCH  31  32
HETATM   32  C   UNL     1      -5.127   5.236  72.746  1.00  0.00    -0.009 C  
BRANCH  32  33
HETATM   33  C   UNL     1      -5.211   3.942  73.566  1.00  0.00     0.000 C  
HETATM   34  H   UNL     1      -6.358   3.230  74.999  1.00  0.00     0.000 HD 
HETATM   35  O   UNL     1      -6.306   4.031  74.491  1.00  0.00    -0.035 OA 
BRANCH  33  36
HETATM   36  C   UNL     1      -5.386   2.729  72.638  1.00  0.00     0.000 C  
HETATM   37  O   UNL     1      -5.914   1.603  73.336  1.00  0.00    -0.003 OA 
HETATM   38  H   UNL     1      -6.022   0.853  72.763  1.00  0.00     0.000 HD 
ENDBRANCH  33  36
ENDBRANCH  32  33
ENDBRANCH  31  32
ENDBRANCH  15  28
ENDBRANCH   5   8
BRANCH   6  39
HETATM   39  C   UNL     1      -8.152   2.689  65.598  1.00  0.00    -0.084 C  
HETATM   40  O   UNL     1      -8.941   1.511  65.723  1.00  0.00    -0.123 OA 
HETATM   41  H   UNL     1      -8.890   0.945  64.961  1.00  0.00     0.000 HD 
ENDBRANCH   6  39
ENDBRANCH   4   5
ENDBRANCH   3   4
TORSDOF 12
ENDMDL
MODEL      148
REMARK 921   NORMALIZED FREE ENERGY PREDICTED BY IDOCK:   -1.28 KCAL/MOL
REMARK 922        TOTAL FREE ENERGY PREDICTED BY IDOCK:   -2.45 KCAL/MOL
REMARK 923 INTER-LIGAND FREE ENERGY PREDICTED BY IDOCK:   -3.90 KCAL/MOL
REMARK 924 INTRA-LIGAND FREE ENERGY PREDICTED BY IDOCK:    1.45 KCAL/MOL
REMARK 927      BINDING AFFINITY PREDICTED BY RF-SCORE:    0.00 PKD
ROOT
HETATM    1  O   UNL     1      -9.825   8.357  65.623  1.00  0.00    -0.412 OA 
HETATM    2  H   UNL     1      -9.349   7.546  65.762  1.00  0.00     0.000 HD 
HETATM    3  C   UNL     1     -10.129   8.990  66.856  1.00  0.00    -0.267 C  
ENDROOT
BRANCH   3   4
HETATM    4  C   UNL     1     -10.896  10.298  66.631  1.00  0.00    -0.045 C  
BRANCH   4   5
HETATM    5  N   UNL     1     -10.093  11.424  66.100  1.00  0.00    -0.223 N  
HETATM    6  C   UNL     1     -10.175  11.911  64.792  1.00  0.00    -0.276 C  
HETATM    7  O   UNL     1      -9.621  12.964  64.437  1.00  0.00     0.086 OA 
BRANCH   5   8
HETATM    8  C   UNL     1      -9.330  12.197  67.049  1.00  0.00    -0.201 A  
HETATM    9  C   UNL     1      -9.710  13.524  67.393  1.00  0.00    -0.229 A  
HETATM   10  C   UNL     1      -8.138  11.662  67.592  1.00  0.00    -0.140 A  
HETATM   11  I   UNL     1     -11.584  14.305  66.602  1.00  0.00    -0.411 I  
HETATM   12  C   UNL     1      -8.935  14.308  68.295  1.00  0.00    -0.187 A  
HETATM   13  I   UNL     1      -7.274   9.889  66.690  1.00  0.00    -0.098 I  
HETATM   14  I   UNL     1      -6.890  14.648  70.654  1.00  0.00     1.076 I  
HETATM   15  C   UNL     1      -7.452  12.342  68.621  1.00  0.00    -0.095 A  
HETATM   16  C   UNL     1      -7.860  13.668  68.973  1.00  0.00     0.130 A  
BRANCH  12  17
HETATM   17  C   UNL     1      -9.172  15.799  68.329  1.00  0.00    -0.188 C  
HETATM   18  N   UNL     1      -8.309  16.634  67.659  1.00  0.00    -0.172 N  
HETATM   19  H   UNL     1      -7.465  16.244  67.239  1.00  0.00     0.000 HD 
HETATM   20  O   UNL     1     -10.139  16.244  68.939  1.00  0.00    -0.226 OA 
BRANCH  18  21
HETATM   21  C   UNL     1      -8.572  18.069  67.531  1.00  0.00    -0.244 C  
BRANCH  21  22
HETATM   22  C   UNL     1      -7.288  18.863  67.796  1.00  0.00    -0.234 C  
HETATM   23  O   UNL     1      -6.668  18.373  68.994  1.00  0.00    -0.256 OA 
HETATM   24  H   UNL     1      -5.872  18.865  69.159  1.00  0.00     0.000 HD 
BRANCH  22  25
HETATM   25  C   UNL     1      -6.304  18.800  66.620  1.00  0.00    -0.186 C  
HETATM   26  H   UNL     1      -6.215  17.948  64.840  1.00  0.00     0.000 HD 
HETATM   27  O   UNL     1      -6.824  17.986  65.568  1.00  0.00    -0.442 OA 
ENDBRANCH  22  25
ENDBRANCH  21  22
ENDBRANCH  18  21
ENDBRANCH  12  17
BRANCH  15  28
HETATM   28  C   UNL     1      -6.285  11.707  69.316  1.00  0.00    -0.086 C  
HETATM   29  O   UNL     1      -5.144  11.865  68.897  1.00  0.00    -0.051 OA 
HETATM   30  H   UNL     1      -7.499  10.835  70.791  1.00  0.00     0.000 HD 
HETATM   31  N   UNL     1      -6.545  10.948  70.448  1.00  0.00    -0.072 N  
BRANCH  31  32
HETATM   32  C   UNL     1      -5.427  10.316  71.138  1.00  0.00    -0.080 C  
BRANCH  32  33
HETATM   33  C   UNL     1      -5.748   8.906  71.650  1.00  0.00    -0.057 C  
HETATM   34  H   UNL     1      -7.176   8.062  72.712  1.00  0.00     0.000 HD 
HETATM   35  O   UNL     1      -6.976   8.935  72.395  1.00  0.00    -0.299 OA 
BRANCH  33  36
HETATM   36  C   UNL     1      -5.853   7.919  70.475  1.00  0.00    -0.029 C  
HETATM   37  O   UNL     1      -6.379   6.660  70.890  1.00  0.00    -0.045 OA 
HETATM   38  H   UNL     1      -6.444   6.050  70.164  1.00  0.00     0.000 HD 
ENDBRANCH  33  36
ENDBRANCH  32  33
ENDBRANCH  31  32
ENDBRANCH  15  28
ENDBRANCH   5   8
BRANCH   6  39
HETATM   39  C   UNL     1     -11.013  11.124  63.773  1.00  0.00    -0.178 C  
HETATM   40  O   UNL     1     -10.864  11.600  62.440  1.00  0.00     0.235 OA 
HETATM   41  H   UNL     1     -11.383  11.113  61.809  1.00  0.00     0.000 HD 
ENDBRANCH   6  39
ENDBRANCH   4   5
ENDBRANCH   3   4
TORSDOF 12
ENDMDL
MODEL      149
REMARK 921   NORMALIZED FREE ENERGY PREDICTED BY IDOCK:   -1.24 KCAL/MOL
REMARK 922        TOTAL FREE ENERGY PREDICTED BY IDOCK:   -2.39 KCAL/MOL
REMARK 923 INTER-LIGAND FREE ENERGY PREDICTED BY IDOCK:   -3.83 KCAL/MOL
REMARK 924 INTRA-LIGAND FREE ENERGY PREDICTED BY IDOCK:    1.44 KCAL/MOL
REMARK 927      BINDING AFFINITY PREDICTED BY RF-SCORE:    0.00 PKD
ROOT
HETATM    1  O   UNL     1     -10.351  15.319  69.569  1.00  0.00    -0.236 OA 
HETATM    2  H   UNL     1      -9.641  15.591  70.138  1.00  0.00     0.000 HD 
HETATM    3  C   UNL     1     -10.682  13.955  69.779  1.00  0.00     0.266 C  
ENDROOT
BRANCH   3   4
HETATM    4  C   UNL     1     -11.829  13.517  68.860  1.00  0.00    -0.345 C  
BRANCH   4   5
HETATM    5  N   UNL     1     -11.485  12.474  67.866  1.00  0.00    -0.294 N  
HETATM    6  C   UNL     1     -11.879  12.493  66.525  1.00  0.00    -0.367 C  
HETATM    7  O   UNL     1     -11.425  11.700  65.685  1.00  0.00    -0.246 OA 
BRANCH   5   8
HETATM    8  C   UNL     1     -10.510  11.485  68.256  1.00  0.00    -0.197 A  
HETATM    9  C   UNL     1     -10.794  10.534  69.276  1.00  0.00    -0.243 A  
HETATM   10  C   UNL     1      -9.219  11.505  67.676  1.00  0.00    -0.171 A  
HETATM   11  I   UNL     1     -12.807  10.473  70.107  1.00  0.00     0.464 I  
HETATM   12  C   UNL     1      -9.820   9.584  69.696  1.00  0.00    -0.220 A  
HETATM   13  I   UNL     1      -8.605  13.243  66.536  1.00  0.00     0.685 I  
HETATM   14  I   UNL     1      -7.252   7.831  69.252  1.00  0.00    -0.086 I  
HETATM   15  C   UNL     1      -8.299  10.468  67.942  1.00  0.00    -0.115 A  
HETATM   16  C   UNL     1      -8.609   9.503  68.953  1.00  0.00    -0.128 A  
BRANCH  12  17
HETATM   17  C   UNL     1     -10.042   8.867  71.007  1.00  0.00    -0.255 C  
HETATM   18  N   UNL     1     -10.530   7.581  70.997  1.00  0.00    -0.214 N  
HETATM   19  H   UNL     1     -10.834   7.171  70.114  1.00  0.00     0.000 HD 
HETATM   20  O   UNL     1      -9.769   9.433  72.060  1.00  0.00    -0.094 OA 
BRANCH  18  21
HETATM   21  C   UNL     1     -10.623   6.785  72.223  1.00  0.00    -0.213 C  
BRANCH  21  22
HETATM   22  C   UNL     1     -12.001   6.120  72.313  1.00  0.00    -0.232 C  
HETATM   23  O   UNL     1     -11.996   5.164  73.384  1.00  0.00    -0.433 OA 
HETATM   24  H   UNL     1     -12.850   4.752  73.440  1.00  0.00     0.000 HD 
BRANCH  22  25
HETATM   25  C   UNL     1     -13.134   7.137  72.509  1.00  0.00     0.506 C  
HETATM   26  H   UNL     1     -15.034   7.316  72.001  1.00  0.00     0.000 HD 
HETATM   27  O   UNL     1     -14.333   6.687  71.879  1.00  0.00    -0.233 OA 
ENDBRANCH  22  25
ENDBRANCH  21  22
ENDBRANCH  18  21
ENDBRANCH  12  17
BRANCH  15  28
HETATM   28  C   UNL     1      -6.995  10.391  67.206  1.00  0.00    -0.086 C  
HETATM   29  O   UNL     1      -5.971  10.044  67.781  1.00  0.00    -0.049 OA 
HETATM   30  H   UNL     1      -7.861  10.992  65.390  1.00  0.00     0.000 HD 
HETATM   31  N   UNL     1      -6.998  10.716  65.857  1.00  0.00    -0.133 N  
BRANCH  31  32
HETATM   32  C   UNL     1      -5.741  10.654  65.120  1.00  0.00    -0.112 C  
BRANCH  32  33
HETATM   33  C   UNL     1      -5.806   9.750  63.883  1.00  0.00    -0.109 C  
HETATM   34  H   UNL     1      -5.176   9.831  62.019  1.00  0.00     0.000 HD 
HETATM   35  O   UNL     1      -5.136  10.390  62.786  1.00  0.00    -0.099 OA 
BRANCH  33  36
HETATM   36  C   UNL     1      -5.167   8.384  64.182  1.00  0.00    -0.044 C  
HETATM   37  O   UNL     1      -5.547   7.893  65.465  1.00  0.00    -0.036 OA 
HETATM   38  H   UNL     1      -5.152   7.049  65.650  1.00  0.00     0.000 HD 
ENDBRANCH  33  36
ENDBRANCH  32  33
ENDBRANCH  31  32
ENDBRANCH  15  28
ENDBRANCH   5   8
BRANCH   6  39
HETATM   39  C   UNL     1     -12.889  13.562  66.078  1.00  0.00    -0.106 C  
HETATM   40  O   UNL     1     -12.667  14.020  64.748  1.00  0.00    -0.651 OA 
HETATM   41  H   UNL     1     -13.292  14.681  64.472  1.00  0.00     0.000 HD 
ENDBRANCH   6  39
ENDBRANCH   4   5
ENDBRANCH   3   4
TORSDOF 12
ENDMDL
MODEL      150
REMARK 921   NORMALIZED FREE ENERGY PREDICTED BY IDOCK:   -1.24 KCAL/MOL
REMARK 922        TOTAL FREE ENERGY PREDICTED BY IDOCK:   -2.39 KCAL/MOL
REMARK 923 INTER-LIGAND FREE ENERGY PREDICTED BY IDOCK:   -4.78 KCAL/MOL
REMARK 924 INTRA-LIGAND FREE ENERGY PREDICTED BY IDOCK:    2.39 KCAL/MOL
REMARK 927      BINDING AFFINITY PREDICTED BY RF-SCORE:    0.00 PKD
ROOT
HETATM    1  O   UNL     1     -12.071  14.829  67.223  1.00  0.00    -0.483 OA 
HETATM    2  H   UNL     1     -12.013  15.776  67.272  1.00  0.00     0.000 HD 
HETATM    3  C   UNL     1     -12.088  14.250  68.519  1.00  0.00    -0.260 C  
ENDROOT
BRANCH   3   4
HETATM    4  C   UNL     1     -12.183  12.721  68.440  1.00  0.00     0.081 C  
BRANCH   4   5
HETATM    5  N   UNL     1     -11.814  11.997  69.679  1.00  0.00    -0.328 N  
HETATM    6  C   UNL     1     -12.306  12.298  70.952  1.00  0.00    -0.267 C  
HETATM    7  O   UNL     1     -12.115  11.560  71.932  1.00  0.00     0.419 OA 
BRANCH   5   8
HETATM    8  C   UNL     1     -11.061  10.775  69.530  1.00  0.00    -0.278 A  
HETATM    9  C   UNL     1      -9.845  10.744  68.792  1.00  0.00    -0.194 A  
HETATM   10  C   UNL     1     -11.574   9.566  70.057  1.00  0.00    -0.048 A  
HETATM   11  I   UNL     1      -9.036  12.626  68.048  1.00  0.00    -0.170 I  
HETATM   12  C   UNL     1      -9.121   9.533  68.604  1.00  0.00    -0.132 A  
HETATM   13  I   UNL     1     -13.642   9.496  70.706  1.00  0.00     0.806 I  
HETATM   14  I   UNL     1      -8.299   6.614  69.421  1.00  0.00    -0.128 I  
HETATM   15  C   UNL     1     -10.793   8.391  70.043  1.00  0.00    -0.225 A  
HETATM   16  C   UNL     1      -9.560   8.382  69.316  1.00  0.00    -0.164 A  
BRANCH  12  17
HETATM   17  C   UNL     1      -8.067   9.492  67.523  1.00  0.00    -0.110 C  
HETATM   18  N   UNL     1      -8.436   9.200  66.232  1.00  0.00    -0.121 N  
HETATM   19  H   UNL     1      -9.396   8.911  66.042  1.00  0.00     0.000 HD 
HETATM   20  O   UNL     1      -6.899   9.736  67.809  1.00  0.00    -0.078 OA 
BRANCH  18  21
HETATM   21  C   UNL     1      -7.487   9.294  65.121  1.00  0.00    -0.105 C  
BRANCH  21  22
HETATM   22  C   UNL     1      -7.811   8.234  64.062  1.00  0.00    -0.146 C  
HETATM   23  O   UNL     1      -7.075   8.522  62.864  1.00  0.00    -0.090 OA 
HETATM   24  H   UNL     1      -7.276   7.865  62.208  1.00  0.00     0.000 HD 
BRANCH  22  25
HETATM   25  C   UNL     1      -7.511   6.809  64.545  1.00  0.00    -0.099 C  
HETATM   26  H   UNL     1      -8.407   5.419  65.626  1.00  0.00     0.000 HD 
HETATM   27  O   UNL     1      -8.593   6.301  65.327  1.00  0.00    -0.139 OA 
ENDBRANCH  22  25
ENDBRANCH  21  22
ENDBRANCH  18  21
ENDBRANCH  12  17
BRANCH  15  28
HETATM   28  C   UNL     1     -11.260   7.151  70.745  1.00  0.00    -0.279 C  
HETATM   29  O   UNL     1     -11.856   6.272  70.134  1.00  0.00    -0.349 OA 
HETATM   30  H   UNL     1     -10.475   7.771  72.591  1.00  0.00     0.000 HD 
HETATM   31  N   UNL     1     -10.982   7.035  72.099  1.00  0.00    -0.228 N  
BRANCH  31  32
HETATM   32  C   UNL     1     -11.431   5.841  72.806  1.00  0.00    -0.255 C  
BRANCH  32  33
HETATM   33  C   UNL     1     -10.355   5.233  73.715  1.00  0.00    -0.245 C  
HETATM   34  H   UNL     1     -10.242   3.744  74.998  1.00  0.00     0.000 HD 
HETATM   35  O   UNL     1     -10.908   4.121  74.435  1.00  0.00    -0.203 OA 
BRANCH  33  36
HETATM   36  C   UNL     1      -9.139   4.788  72.885  1.00  0.00    -0.118 C  
HETATM   37  O   UNL     1      -8.043   5.688  73.031  1.00  0.00    -0.116 OA 
HETATM   38  H   UNL     1      -7.292   5.413  72.518  1.00  0.00     0.000 HD 
ENDBRANCH  33  36
ENDBRANCH  32  33
ENDBRANCH  31  32
ENDBRANCH  15  28
ENDBRANCH   5   8
BRANCH   6  39
HETATM   39  C   UNL     1     -13.142  13.575  71.127  1.00  0.00    -0.212 C  
HETATM   40  O   UNL     1     -13.498  13.829  72.481  1.00  0.00    -0.513 OA 
HETATM   41  H   UNL     1     -14.016  14.619  72.589  1.00  0.00     0.000 HD 
ENDBRANCH   6  39
ENDBRANCH   4   5
ENDBRANCH   3   4
TORSDOF 12
ENDMDL
MODEL      151
REMARK 921   NORMALIZED FREE ENERGY PREDICTED BY IDOCK:   -1.21 KCAL/MOL
REMARK 922        TOTAL FREE ENERGY PREDICTED BY IDOCK:   -2.34 KCAL/MOL
REMARK 923 INTER-LIGAND FREE ENERGY PREDICTED BY IDOCK:   -4.40 KCAL/MOL
REMARK 924 INTRA-LIGAND FREE ENERGY PREDICTED BY IDOCK:    2.07 KCAL/MOL
REMARK 927      BINDING AFFINITY PREDICTED BY RF-SCORE:    0.00 PKD
ROOT
HETATM    1  O   UNL     1      -9.998  11.219  69.539  1.00  0.00    -0.422 OA 
HETATM    2  H   UNL     1     -10.385  11.946  70.011  1.00  0.00     0.000 HD 
HETATM    3  C   UNL     1      -9.880  11.512  68.154  1.00  0.00    -0.194 C  
ENDROOT
BRANCH   3   4
HETATM    4  C   UNL     1      -9.254  10.339  67.392  1.00  0.00    -0.141 C  
BRANCH   4   5
HETATM    5  N   UNL     1      -8.317   9.499  68.174  1.00  0.00    -0.118 N  
HETATM    6  C   UNL     1      -7.312   9.996  69.009  1.00  0.00    -0.083 C  
HETATM    7  O   UNL     1      -6.668   9.269  69.782  1.00  0.00    -0.047 OA 
BRANCH   5   8
HETATM    8  C   UNL     1      -8.594   8.085  68.239  1.00  0.00    -0.130 A  
HETATM    9  C   UNL     1      -8.488   7.260  67.084  1.00  0.00    -0.118 A  
HETATM   10  C   UNL     1      -9.056   7.515  69.449  1.00  0.00    -0.142 A  
HETATM   11  I   UNL     1      -7.710   8.139  65.249  1.00  0.00    -0.121 I  
HETATM   12  C   UNL     1      -8.804   5.872  67.132  1.00  0.00    -0.107 A  
HETATM   13  I   UNL     1      -9.723   8.826  71.042  1.00  0.00    -0.365 I  
HETATM   14  I   UNL     1      -9.151   3.136  68.634  1.00  0.00    -0.222 I  
HETATM   15  C   UNL     1      -9.201   6.116  69.572  1.00  0.00    -0.143 A  
HETATM   16  C   UNL     1      -9.068   5.296  68.406  1.00  0.00    -0.110 A  
BRANCH  12  17
HETATM   17  C   UNL     1      -9.030   5.147  65.827  1.00  0.00    -0.152 C  
HETATM   18  N   UNL     1      -7.956   4.608  65.159  1.00  0.00    -0.094 N  
HETATM   19  H   UNL     1      -7.013   4.799  65.499  1.00  0.00     0.000 HD 
HETATM   20  O   UNL     1     -10.171   5.032  65.389  1.00  0.00    -0.038 OA 
BRANCH  18  21
HETATM   21  C   UNL     1      -8.130   3.768  63.973  1.00  0.00    -0.089 C  
BRANCH  21  22
HETATM   22  C   UNL     1      -8.526   2.347  64.390  1.00  0.00    -0.088 C  
HETATM   23  O   UNL     1      -9.283   1.738  63.333  1.00  0.00    -0.090 OA 
HETATM   24  H   UNL     1      -9.528   0.857  63.591  1.00  0.00     0.000 HD 
BRANCH  22  25
HETATM   25  C   UNL     1      -7.312   1.479  64.748  1.00  0.00    -0.053 C  
HETATM   26  H   UNL     1      -5.778   1.564  65.989  1.00  0.00     0.000 HD 
HETATM   27  O   UNL     1      -6.529   2.101  65.767  1.00  0.00    -0.023 OA 
ENDBRANCH  22  25
ENDBRANCH  21  22
ENDBRANCH  18  21
ENDBRANCH  12  17
BRANCH  15  28
HETATM   28  C   UNL     1      -9.529   5.492  70.896  1.00  0.00    -0.166 C  
HETATM   29  O   UNL     1     -10.689   5.242  71.200  1.00  0.00    -0.206 OA 
HETATM   30  H   UNL     1      -7.513   5.406  71.476  1.00  0.00     0.000 HD 
HETATM   31  N   UNL     1      -8.474   5.202  71.749  1.00  0.00    -0.124 N  
BRANCH  31  32
HETATM   32  C   UNL     1      -8.768   4.599  73.044  1.00  0.00    -0.113 C  
BRANCH  32  33
HETATM   33  C   UNL     1      -7.994   3.300  73.298  1.00  0.00    -0.069 C  
HETATM   34  H   UNL     1      -8.049   1.449  72.628  1.00  0.00     0.000 HD 
HETATM   35  O   UNL     1      -8.528   2.254  72.471  1.00  0.00    -0.061 OA 
BRANCH  33  36
HETATM   36  C   UNL     1      -6.497   3.501  73.012  1.00  0.00    -0.024 C  
HETATM   37  O   UNL     1      -6.083   4.838  73.285  1.00  0.00    -0.026 OA 
HETATM   38  H   UNL     1      -5.158   4.963  73.108  1.00  0.00     0.000 HD 
ENDBRANCH  33  36
ENDBRANCH  32  33
ENDBRANCH  31  32
ENDBRANCH  15  28
ENDBRANCH   5   8
BRANCH   6  39
HETATM   39  C   UNL     1      -7.025  11.505  68.984  1.00  0.00    -0.112 C  
HETATM   40  O   UNL     1      -6.861  12.065  70.282  1.00  0.00    -0.413 OA 
HETATM   41  H   UNL     1      -6.684  12.999  70.267  1.00  0.00     0.000 HD 
ENDBRANCH   6  39
ENDBRANCH   4   5
ENDBRANCH   3   4
TORSDOF 12
ENDMDL
MODEL      152
REMARK 921   NORMALIZED FREE ENERGY PREDICTED BY IDOCK:   -1.20 KCAL/MOL
REMARK 922        TOTAL FREE ENERGY PREDICTED BY IDOCK:   -2.32 KCAL/MOL
REMARK 923 INTER-LIGAND FREE ENERGY PREDICTED BY IDOCK:   -2.86 KCAL/MOL
REMARK 924 INTRA-LIGAND FREE ENERGY PREDICTED BY IDOCK:    0.54 KCAL/MOL
REMARK 927      BINDING AFFINITY PREDICTED BY RF-SCORE:    0.00 PKD
ROOT
HETATM    1  O   UNL     1      -9.968   5.877  67.251  1.00  0.00    -0.129 OA 
HETATM    2  H   UNL     1      -9.770   5.099  67.758  1.00  0.00     0.000 HD 
HETATM    3  C   UNL     1      -8.959   6.130  66.284  1.00  0.00    -0.154 C  
ENDROOT
BRANCH   3   4
HETATM    4  C   UNL     1      -9.279   7.387  65.467  1.00  0.00     0.322 C  
BRANCH   4   5
HETATM    5  N   UNL     1      -8.143   8.315  65.257  1.00  0.00    -0.133 N  
HETATM    6  C   UNL     1      -7.421   8.429  64.065  1.00  0.00    -0.111 C  
HETATM    7  O   UNL     1      -6.598   9.338  63.870  1.00  0.00    -0.089 OA 
BRANCH   5   8
HETATM    8  C   UNL     1      -7.903   9.306  66.276  1.00  0.00    -0.103 A  
HETATM    9  C   UNL     1      -6.948   9.085  67.308  1.00  0.00    -0.078 A  
HETATM   10  C   UNL     1      -8.682  10.488  66.304  1.00  0.00    -0.151 A  
HETATM   11  I   UNL     1      -5.711   7.295  67.210  1.00  0.00    -0.032 I  
HETATM   12  C   UNL     1      -6.739  10.041  68.343  1.00  0.00    -0.055 A  
HETATM   13  I   UNL     1     -10.470  10.597  65.083  1.00  0.00     0.087 I  
HETATM   14  I   UNL     1      -6.822  12.954  69.515  1.00  0.00     0.441 I  
HETATM   15  C   UNL     1      -8.372  11.528  67.206  1.00  0.00    -0.154 A  
HETATM   16  C   UNL     1      -7.392  11.300  68.224  1.00  0.00    -0.095 A  
BRANCH  12  17
HETATM   17  C   UNL     1      -6.005   9.597  69.586  1.00  0.00    -0.036 C  
HETATM   18  N   UNL     1      -6.314   8.384  70.154  1.00  0.00    -0.037 N  
HETATM   19  H   UNL     1      -7.105   7.852  69.791  1.00  0.00     0.000 HD 
HETATM   20  O   UNL     1      -5.133  10.317  70.062  1.00  0.00    -0.037 OA 
BRANCH  18  21
HETATM   21  C   UNL     1      -5.536   7.835  71.266  1.00  0.00    -0.034 C  
BRANCH  21  22
HETATM   22  C   UNL     1      -6.398   6.866  72.082  1.00  0.00    -0.045 C  
HETATM   23  O   UNL     1      -7.755   6.935  71.618  1.00  0.00    -0.093 OA 
HETATM   24  H   UNL     1      -8.290   6.334  72.124  1.00  0.00     0.000 HD 
BRANCH  22  25
HETATM   25  C   UNL     1      -5.883   5.422  72.016  1.00  0.00    -0.022 C  
HETATM   26  H   UNL     1      -5.918   3.922  70.732  1.00  0.00     0.000 HD 
HETATM   27  O   UNL     1      -6.237   4.816  70.773  1.00  0.00    -0.017 OA 
ENDBRANCH  22  25
ENDBRANCH  21  22
ENDBRANCH  18  21
ENDBRANCH  12  17
BRANCH  15  28
HETATM   28  C   UNL     1      -9.084  12.846  67.131  1.00  0.00    -0.220 C  
HETATM   29  O   UNL     1      -8.502  13.850  66.735  1.00  0.00    -0.130 OA 
HETATM   30  H   UNL     1     -10.890  12.035  67.828  1.00  0.00     0.000 HD 
HETATM   31  N   UNL     1     -10.417  12.881  67.512  1.00  0.00    -0.222 N  
BRANCH  31  32
HETATM   32  C   UNL     1     -11.128  14.153  67.452  1.00  0.00    -0.306 C  
BRANCH  32  33
HETATM   33  C   UNL     1     -11.603  14.516  66.040  1.00  0.00    -0.356 C  
HETATM   34  H   UNL     1     -13.320  14.563  65.077  1.00  0.00     0.000 HD 
HETATM   35  O   UNL     1     -13.025  14.338  65.952  1.00  0.00    -0.380 OA 
BRANCH  33  36
HETATM   36  C   UNL     1     -11.220  15.966  65.701  1.00  0.00     0.003 C  
HETATM   37  O   UNL     1      -9.824  16.197  65.876  1.00  0.00    -0.320 OA 
HETATM   38  H   UNL     1      -9.587  17.093  65.666  1.00  0.00     0.000 HD 
ENDBRANCH  33  36
ENDBRANCH  32  33
ENDBRANCH  31  32
ENDBRANCH  15  28
ENDBRANCH   5   8
BRANCH   6  39
HETATM   39  C   UNL     1      -7.687   7.406  62.951  1.00  0.00    -0.128 C  
HETATM   40  O   UNL     1      -7.212   6.101  63.265  1.00  0.00    -0.049 OA 
HETATM   41  H   UNL     1      -7.377   5.468  62.575  1.00  0.00     0.000 HD 
ENDBRANCH   6  39
ENDBRANCH   4   5
ENDBRANCH   3   4
TORSDOF 12
ENDMDL
MODEL      153
REMARK 921   NORMALIZED FREE ENERGY PREDICTED BY IDOCK:   -1.18 KCAL/MOL
REMARK 922        TOTAL FREE ENERGY PREDICTED BY IDOCK:   -2.28 KCAL/MOL
REMARK 923 INTER-LIGAND FREE ENERGY PREDICTED BY IDOCK:   -3.98 KCAL/MOL
REMARK 924 INTRA-LIGAND FREE ENERGY PREDICTED BY IDOCK:    1.71 KCAL/MOL
REMARK 927      BINDING AFFINITY PREDICTED BY RF-SCORE:    0.00 PKD
ROOT
HETATM    1  O   UNL     1      -7.225   5.733  71.942  1.00  0.00    -0.086 OA 
HETATM    2  H   UNL     1      -6.810   4.893  72.098  1.00  0.00     0.000 HD 
HETATM    3  C   UNL     1      -8.290   5.612  71.011  1.00  0.00    -0.122 C  
ENDROOT
BRANCH   3   4
HETATM    4  C   UNL     1      -8.960   6.969  70.760  1.00  0.00    -0.150 C  
BRANCH   4   5
HETATM    5  N   UNL     1     -10.037   6.967  69.742  1.00  0.00    -0.186 N  
HETATM    6  C   UNL     1     -11.403   6.907  70.030  1.00  0.00    -0.294 C  
HETATM    7  O   UNL     1     -12.275   7.088  69.165  1.00  0.00     0.856 OA 
BRANCH   5   8
HETATM    8  C   UNL     1      -9.658   7.253  68.380  1.00  0.00    -0.139 A  
HETATM    9  C   UNL     1      -9.615   8.589  67.892  1.00  0.00    -0.152 A  
HETATM   10  C   UNL     1      -9.401   6.188  67.484  1.00  0.00    -0.113 A  
HETATM   11  I   UNL     1      -9.945  10.218  69.301  1.00  0.00    -0.227 I  
HETATM   12  C   UNL     1      -9.285   8.875  66.537  1.00  0.00    -0.231 A  
HETATM   13  I   UNL     1      -9.973   4.175  68.052  1.00  0.00     0.475 I  
HETATM   14  I   UNL     1      -7.929   8.192  63.787  1.00  0.00    -0.006 I  
HETATM   15  C   UNL     1      -8.898   6.446  66.191  1.00  0.00    -0.158 A  
HETATM   16  C   UNL     1      -8.837   7.797  65.723  1.00  0.00    -0.106 A  
BRANCH  12  17
HETATM   17  C   UNL     1      -9.615  10.246  65.996  1.00  0.00    -0.206 C  
HETATM   18  N   UNL     1     -10.882  10.751  66.167  1.00  0.00    -0.119 N  
HETATM   19  H   UNL     1     -11.608  10.152  66.559  1.00  0.00     0.000 HD 
HETATM   20  O   UNL     1      -8.744  10.897  65.428  1.00  0.00    -0.188 OA 
BRANCH  18  21
HETATM   21  C   UNL     1     -11.217  12.128  65.799  1.00  0.00    -0.339 C  
BRANCH  21  22
HETATM   22  C   UNL     1     -10.473  13.110  66.711  1.00  0.00    -0.261 C  
HETATM   23  O   UNL     1      -9.530  13.860  65.930  1.00  0.00    -0.485 OA 
HETATM   24  H   UNL     1      -9.069  14.469  66.495  1.00  0.00     0.000 HD 
BRANCH  22  25
HETATM   25  C   UNL     1     -11.424  14.058  67.456  1.00  0.00    -0.343 C  
HETATM   26  H   UNL     1     -12.052  15.922  67.282  1.00  0.00     0.000 HD 
HETATM   27  O   UNL     1     -11.464  15.336  66.821  1.00  0.00    -0.259 OA 
ENDBRANCH  22  25
ENDBRANCH  21  22
ENDBRANCH  18  21
ENDBRANCH  12  17
BRANCH  15  28
HETATM   28  C   UNL     1      -8.467   5.321  65.297  1.00  0.00    -0.147 C  
HETATM   29  O   UNL     1      -9.276   4.747  64.578  1.00  0.00    -0.141 OA 
HETATM   30  H   UNL     1      -6.462   5.463  65.905  1.00  0.00     0.000 HD 
HETATM   31  N   UNL     1      -7.125   4.968  65.309  1.00  0.00    -0.062 N  
BRANCH  31  32
HETATM   32  C   UNL     1      -6.682   3.874  64.453  1.00  0.00    -0.044 C  
BRANCH  32  33
HETATM   33  C   UNL     1      -6.476   4.293  62.991  1.00  0.00    -0.026 C  
HETATM   34  H   UNL     1      -7.619   4.869  61.495  1.00  0.00     0.000 HD 
HETATM   35  O   UNL     1      -7.746   4.610  62.400  1.00  0.00    -0.053 OA 
BRANCH  33  36
HETATM   36  C   UNL     1      -5.526   5.499  62.907  1.00  0.00    -0.014 C  
HETATM   37  O   UNL     1      -5.131   5.950  64.200  1.00  0.00    -0.012 OA 
HETATM   38  H   UNL     1      -4.544   6.696  64.148  1.00  0.00     0.000 HD 
ENDBRANCH  33  36
ENDBRANCH  32  33
ENDBRANCH  31  32
ENDBRANCH  15  28
ENDBRANCH   5   8
BRANCH   6  39
HETATM   39  C   UNL     1     -11.830   6.640  71.482  1.00  0.00    -0.337 C  
HETATM   40  O   UNL     1     -11.810   7.809  72.295  1.00  0.00    -0.309 OA 
HETATM   41  H   UNL     1     -12.074   7.643  73.193  1.00  0.00     0.000 HD 
ENDBRANCH   6  39
ENDBRANCH   4   5
ENDBRANCH   3   4
TORSDOF 12
ENDMDL
MODEL      154
REMARK 921   NORMALIZED FREE ENERGY PREDICTED BY IDOCK:   -1.18 KCAL/MOL
REMARK 922        TOTAL FREE ENERGY PREDICTED BY IDOCK:   -2.28 KCAL/MOL
REMARK 923 INTER-LIGAND FREE ENERGY PREDICTED BY IDOCK:   -4.78 KCAL/MOL
REMARK 924 INTRA-LIGAND FREE ENERGY PREDICTED BY IDOCK:    2.50 KCAL/MOL
REMARK 927      BINDING AFFINITY PREDICTED BY RF-SCORE:    0.00 PKD
ROOT
HETATM    1  O   UNL     1     -10.655  11.458  68.963  1.00  0.00    -0.209 OA 
HETATM    2  H   UNL     1     -11.135  12.186  69.340  1.00  0.00     0.000 HD 
HETATM    3  C   UNL     1     -10.541  11.594  67.554  1.00  0.00    -0.209 C  
ENDROOT
BRANCH   3   4
HETATM    4  C   UNL     1      -9.766  10.419  66.947  1.00  0.00    -0.181 C  
BRANCH   4   5
HETATM    5  N   UNL     1      -8.679   9.870  67.790  1.00  0.00    -0.128 N  
HETATM    6  C   UNL     1      -7.792  10.642  68.545  1.00  0.00    -0.115 C  
HETATM    7  O   UNL     1      -7.014  10.144  69.374  1.00  0.00    -0.058 OA 
BRANCH   5   8
HETATM    8  C   UNL     1      -8.666   8.444  68.006  1.00  0.00    -0.139 A  
HETATM    9  C   UNL     1      -8.146   7.554  67.025  1.00  0.00    -0.117 A  
HETATM   10  C   UNL     1      -9.252   7.906  69.177  1.00  0.00    -0.144 A  
HETATM   11  I   UNL     1      -7.186   8.402  65.262  1.00  0.00    -0.090 I  
HETATM   12  C   UNL     1      -8.172   6.143  67.213  1.00  0.00    -0.106 A  
HETATM   13  I   UNL     1     -10.504   9.181  70.406  1.00  0.00    -0.352 I  
HETATM   14  I   UNL     1      -8.267   3.565  69.004  1.00  0.00    -0.097 I  
HETATM   15  C   UNL     1      -9.130   6.532  69.472  1.00  0.00    -0.140 A  
HETATM   16  C   UNL     1      -8.582   5.652  68.485  1.00  0.00    -0.107 A  
BRANCH  12  17
HETATM   17  C   UNL     1      -7.957   5.258  66.009  1.00  0.00    -0.104 C  
HETATM   18  N   UNL     1      -8.940   5.171  65.052  1.00  0.00    -0.252 N  
HETATM   19  H   UNL     1      -9.841   5.619  65.222  1.00  0.00     0.000 HD 
HETATM   20  O   UNL     1      -6.902   4.644  65.891  1.00  0.00    -0.055 OA 
BRANCH  18  21
HETATM   21  C   UNL     1      -8.728   4.451  63.795  1.00  0.00    -0.129 C  
BRANCH  21  22
HETATM   22  C   UNL     1      -8.065   5.374  62.767  1.00  0.00    -0.099 C  
HETATM   23  O   UNL     1      -8.688   6.667  62.821  1.00  0.00    -0.329 OA 
HETATM   24  H   UNL     1      -8.277   7.239  62.184  1.00  0.00     0.000 HD 
BRANCH  22  25
HETATM   25  C   UNL     1      -6.551   5.501  62.981  1.00  0.00    -0.025 C  
HETATM   26  H   UNL     1      -4.934   4.430  62.611  1.00  0.00     0.000 HD 
HETATM   27  O   UNL     1      -5.871   4.351  62.479  1.00  0.00    -0.015 OA 
ENDBRANCH  22  25
ENDBRANCH  21  22
ENDBRANCH  18  21
ENDBRANCH  12  17
BRANCH  15  28
HETATM   28  C   UNL     1      -9.601   5.984  70.787  1.00  0.00    -0.169 C  
HETATM   29  O   UNL     1     -10.763   5.625  70.935  1.00  0.00    -0.255 OA 
HETATM   30  H   UNL     1      -7.708   6.185  71.671  1.00  0.00     0.000 HD 
HETATM   31  N   UNL     1      -8.674   5.892  71.814  1.00  0.00    -0.138 N  
BRANCH  31  32
HETATM   32  C   UNL     1      -9.110   5.368  73.104  1.00  0.00    -0.126 C  
BRANCH  32  33
HETATM   33  C   UNL     1      -8.853   6.332  74.269  1.00  0.00    -0.140 C  
HETATM   34  H   UNL     1      -7.280   7.070  75.193  1.00  0.00     0.000 HD 
HETATM   35  O   UNL     1      -7.439   6.473  74.471  1.00  0.00    -0.099 OA 
BRANCH  33  36
HETATM   36  C   UNL     1      -9.497   7.699  73.986  1.00  0.00    -0.073 C  
HETATM   37  O   UNL     1      -8.527   8.668  73.596  1.00  0.00    -0.353 OA 
HETATM   38  H   UNL     1      -8.924   9.513  73.421  1.00  0.00     0.000 HD 
ENDBRANCH  33  36
ENDBRANCH  32  33
ENDBRANCH  31  32
ENDBRANCH  15  28
ENDBRANCH   5   8
BRANCH   6  39
HETATM   39  C   UNL     1      -7.813  12.167  68.358  1.00  0.00    -0.149 C  
HETATM   40  O   UNL     1      -6.607  12.799  68.775  1.00  0.00    -0.078 OA 
HETATM   41  H   UNL     1      -6.620  13.742  68.660  1.00  0.00     0.000 HD 
ENDBRANCH   6  39
ENDBRANCH   4   5
ENDBRANCH   3   4
TORSDOF 12
ENDMDL
MODEL      155
REMARK 921   NORMALIZED FREE ENERGY PREDICTED BY IDOCK:   -1.13 KCAL/MOL
REMARK 922        TOTAL FREE ENERGY PREDICTED BY IDOCK:   -2.19 KCAL/MOL
REMARK 923 INTER-LIGAND FREE ENERGY PREDICTED BY IDOCK:   -4.55 KCAL/MOL
REMARK 924 INTRA-LIGAND FREE ENERGY PREDICTED BY IDOCK:    2.35 KCAL/MOL
REMARK 927      BINDING AFFINITY PREDICTED BY RF-SCORE:    0.00 PKD
ROOT
HETATM    1  O   UNL     1     -14.410  13.026  72.947  1.00  0.00    -0.545 OA 
HETATM    2  H   UNL     1     -14.868  13.168  73.767  1.00  0.00     0.000 HD 
HETATM    3  C   UNL     1     -14.285  14.235  72.213  1.00  0.00    -0.496 C  
ENDROOT
BRANCH   3   4
HETATM    4  C   UNL     1     -13.545  14.003  70.890  1.00  0.00     0.054 C  
BRANCH   4   5
HETATM    5  N   UNL     1     -12.112  14.376  70.889  1.00  0.00    -0.327 N  
HETATM    6  C   UNL     1     -11.461  15.035  71.936  1.00  0.00    -0.289 C  
HETATM    7  O   UNL     1     -10.228  15.170  71.975  1.00  0.00     1.121 OA 
BRANCH   5   8
HETATM    8  C   UNL     1     -11.291  13.843  69.829  1.00  0.00    -0.156 A  
HETATM    9  C   UNL     1     -10.613  14.701  68.919  1.00  0.00    -0.253 A  
HETATM   10  C   UNL     1     -11.217  12.443  69.636  1.00  0.00    -0.036 A  
HETATM   11  I   UNL     1     -10.681  16.850  69.273  1.00  0.00     0.113 I  
HETATM   12  C   UNL     1      -9.838  14.180  67.844  1.00  0.00    -0.224 A  
HETATM   13  I   UNL     1     -12.640  11.164  70.657  1.00  0.00    -0.276 I  
HETATM   14  I   UNL     1      -8.134  11.934  66.460  1.00  0.00     0.300 I  
HETATM   15  C   UNL     1     -10.317  11.896  68.696  1.00  0.00    -0.218 A  
HETATM   16  C   UNL     1      -9.623  12.774  67.803  1.00  0.00    -0.204 A  
BRANCH  12  17
HETATM   17  C   UNL     1      -9.462  15.113  66.718  1.00  0.00    -0.242 C  
HETATM   18  N   UNL     1      -8.367  15.933  66.859  1.00  0.00    -0.221 N  
HETATM   19  H   UNL     1      -7.892  15.977  67.760  1.00  0.00     0.000 HD 
HETATM   20  O   UNL     1     -10.126  15.114  65.687  1.00  0.00    -0.312 OA 
BRANCH  18  21
HETATM   21  C   UNL     1      -7.867  16.746  65.748  1.00  0.00     0.537 C  
BRANCH  21  22
HETATM   22  C   UNL     1      -7.669  18.195  66.206  1.00  0.00    -0.255 C  
HETATM   23  O   UNL     1      -8.934  18.739  66.614  1.00  0.00    -0.295 OA 
HETATM   24  H   UNL     1      -8.811  19.637  66.898  1.00  0.00     0.000 HD 
BRANCH  22  25
HETATM   25  C   UNL     1      -6.642  18.319  67.340  1.00  0.00    -0.191 C  
HETATM   26  H   UNL     1      -4.688  18.140  67.560  1.00  0.00     0.000 HD 
HETATM   27  O   UNL     1      -5.323  18.063  66.858  1.00  0.00    -0.129 OA 
ENDBRANCH  22  25
ENDBRANCH  21  22
ENDBRANCH  18  21
ENDBRANCH  12  17
BRANCH  15  28
HETATM   28  C   UNL     1     -10.112  10.414  68.603  1.00  0.00    -0.176 C  
HETATM   29  O   UNL     1     -10.906   9.709  67.991  1.00  0.00    -0.242 OA 
HETATM   30  H   UNL     1      -8.334  10.480  69.716  1.00  0.00     0.000 HD 
HETATM   31  N   UNL     1      -8.991   9.879  69.221  1.00  0.00    -0.166 N  
BRANCH  31  32
HETATM   32  C   UNL     1      -8.773   8.439  69.148  1.00  0.00    -0.142 C  
BRANCH  32  33
HETATM   33  C   UNL     1      -7.593   8.048  68.249  1.00  0.00    -0.109 C  
HETATM   34  H   UNL     1      -6.099   6.768  68.327  1.00  0.00     0.000 HD 
HETATM   35  O   UNL     1      -6.830   7.010  68.884  1.00  0.00    -0.067 OA 
BRANCH  33  36
HETATM   36  C   UNL     1      -8.096   7.584  66.873  1.00  0.00    -0.116 C  
HETATM   37  O   UNL     1      -9.520   7.591  66.802  1.00  0.00    -0.160 OA 
HETATM   38  H   UNL     1      -9.831   7.304  65.951  1.00  0.00     0.000 HD 
ENDBRANCH  33  36
ENDBRANCH  32  33
ENDBRANCH  31  32
ENDBRANCH  15  28
ENDBRANCH   5   8
BRANCH   6  39
HETATM   39  C   UNL     1     -12.312  15.580  73.094  1.00  0.00    -0.459 C  
HETATM   40  O   UNL     1     -11.980  16.917  73.451  1.00  0.00    -0.364 OA 
HETATM   41  H   UNL     1     -12.506  17.254  74.167  1.00  0.00     0.000 HD 
ENDBRANCH   6  39
ENDBRANCH   4   5
ENDBRANCH   3   4
TORSDOF 12
ENDMDL
MODEL      156
REMARK 921   NORMALIZED FREE ENERGY PREDICTED BY IDOCK:   -1.12 KCAL/MOL
REMARK 922        TOTAL FREE ENERGY PREDICTED BY IDOCK:   -2.18 KCAL/MOL
REMARK 923 INTER-LIGAND FREE ENERGY PREDICTED BY IDOCK:   -3.45 KCAL/MOL
REMARK 924 INTRA-LIGAND FREE ENERGY PREDICTED BY IDOCK:    1.27 KCAL/MOL
REMARK 927      BINDING AFFINITY PREDICTED BY RF-SCORE:    0.00 PKD
ROOT
HETATM    1  O   UNL     1     -13.556  14.904  65.764  1.00  0.00     0.185 OA 
HETATM    2  H   UNL     1     -14.208  15.509  66.097  1.00  0.00     0.000 HD 
HETATM    3  C   UNL     1     -12.606  14.574  66.767  1.00  0.00     0.296 C  
ENDROOT
BRANCH   3   4
HETATM    4  C   UNL     1     -11.553  13.596  66.230  1.00  0.00    -0.348 C  
BRANCH   4   5
HETATM    5  N   UNL     1     -10.218  14.181  65.966  1.00  0.00    -0.297 N  
HETATM    6  C   UNL     1      -9.964  15.196  65.039  1.00  0.00    -0.143 C  
HETATM    7  O   UNL     1      -8.871  15.781  64.974  1.00  0.00     1.062 OA 
BRANCH   5   8
HETATM    8  C   UNL     1      -9.151  13.824  66.868  1.00  0.00    -0.242 A  
HETATM    9  C   UNL     1      -8.607  12.509  66.883  1.00  0.00    -0.158 A  
HETATM   10  C   UNL     1      -8.685  14.769  67.813  1.00  0.00    -0.172 A  
HETATM   11  I   UNL     1      -9.287  11.089  65.376  1.00  0.00    -0.232 I  
HETATM   12  C   UNL     1      -7.584  12.139  67.801  1.00  0.00    -0.131 A  
HETATM   13  I   UNL     1      -9.844  16.568  68.159  1.00  0.00    -0.275 I  
HETATM   14  I   UNL     1      -5.177  12.785  69.713  1.00  0.00    -0.106 I  
HETATM   15  C   UNL     1      -7.554  14.487  68.609  1.00  0.00    -0.131 A  
HETATM   16  C   UNL     1      -7.003  13.167  68.595  1.00  0.00    -0.102 A  
BRANCH  12  17
HETATM   17  C   UNL     1      -7.319  10.668  68.019  1.00  0.00    -0.088 C  
HETATM   18  N   UNL     1      -6.237  10.080  67.407  1.00  0.00    -0.058 N  
HETATM   19  H   UNL     1      -5.695  10.619  66.732  1.00  0.00     0.000 HD 
HETATM   20  O   UNL     1      -8.061  10.022  68.752  1.00  0.00    -0.096 OA 
BRANCH  18  21
HETATM   21  C   UNL     1      -5.845   8.700  67.699  1.00  0.00    -0.043 C  
BRANCH  21  22
HETATM   22  C   UNL     1      -6.726   7.725  66.911  1.00  0.00    -0.067 C  
HETATM   23  O   UNL     1      -6.855   8.192  65.559  1.00  0.00    -0.061 OA 
HETATM   24  H   UNL     1      -7.401   7.588  65.070  1.00  0.00     0.000 HD 
BRANCH  22  25
HETATM   25  C   UNL     1      -6.180   6.291  66.931  1.00  0.00    -0.039 C  
HETATM   26  H   UNL     1      -6.740   4.531  67.632  1.00  0.00     0.000 HD 
HETATM   27  O   UNL     1      -7.077   5.419  67.620  1.00  0.00    -0.064 OA 
ENDBRANCH  22  25
ENDBRANCH  21  22
ENDBRANCH  18  21
ENDBRANCH  12  17
BRANCH  15  28
HETATM   28  C   UNL     1      -6.954  15.542  69.490  1.00  0.00    -0.190 C  
HETATM   29  O   UNL     1      -6.687  15.302  70.662  1.00  0.00     0.146 OA 
HETATM   30  H   UNL     1      -6.922  16.966  67.948  1.00  0.00     0.000 HD 
HETATM   31  N   UNL     1      -6.705  16.786  68.928  1.00  0.00    -0.183 N  
BRANCH  31  32
HETATM   32  C   UNL     1      -6.127  17.829  69.766  1.00  0.00    -0.213 C  
BRANCH  32  33
HETATM   33  C   UNL     1      -6.476  19.247  69.298  1.00  0.00    -0.306 C  
HETATM   34  H   UNL     1      -5.773  21.063  69.589  1.00  0.00     0.000 HD 
HETATM   35  O   UNL     1      -5.557  20.185  69.880  1.00  0.00    -0.241 OA 
BRANCH  33  36
HETATM   36  C   UNL     1      -6.434  19.332  67.763  1.00  0.00    -0.220 C  
HETATM   37  O   UNL     1      -7.360  20.293  67.262  1.00  0.00    -0.266 OA 
HETATM   38  H   UNL     1      -7.334  20.345  66.314  1.00  0.00     0.000 HD 
ENDBRANCH  33  36
ENDBRANCH  32  33
ENDBRANCH  31  32
ENDBRANCH  15  28
ENDBRANCH   5   8
BRANCH   6  39
HETATM   39  C   UNL     1     -11.098  15.618  64.093  1.00  0.00     0.255 C  
HETATM   40  O   UNL     1     -11.603  16.920  64.370  1.00  0.00    -0.916 OA 
HETATM   41  H   UNL     1     -12.304  17.181  63.784  1.00  0.00     0.000 HD 
ENDBRANCH   6  39
ENDBRANCH   4   5
ENDBRANCH   3   4
TORSDOF 12
ENDMDL
MODEL      157
REMARK 921   NORMALIZED FREE ENERGY PREDICTED BY IDOCK:   -0.93 KCAL/MOL
REMARK 922        TOTAL FREE ENERGY PREDICTED BY IDOCK:   -1.87 KCAL/MOL
REMARK 923 INTER-LIGAND FREE ENERGY PREDICTED BY IDOCK:   -2.48 KCAL/MOL
REMARK 924 INTRA-LIGAND FREE ENERGY PREDICTED BY IDOCK:    0.61 KCAL/MOL
REMARK 927      BINDING AFFINITY PREDICTED BY RF-SCORE:    0.00 PKD
ROOT
HETATM    1  O   UNL     1     -10.593   7.762  67.301  1.00  0.00    -0.301 OA 
HETATM    2  H   UNL     1     -10.801   7.483  68.185  1.00  0.00     0.000 HD 
HETATM    3  C   UNL     1     -10.570   9.179  67.205  1.00  0.00    -0.216 C  
ENDROOT
BRANCH   3   4
HETATM    4  C   UNL     1     -10.234   9.630  65.778  1.00  0.00    -0.102 C  
BRANCH   4   5
HETATM    5  N   UNL     1      -8.871  10.178  65.589  1.00  0.00    -0.158 N  
HETATM    6  C   UNL     1      -8.141  10.099  64.399  1.00  0.00    -0.163 C  
HETATM    7  O   UNL     1      -7.082  10.723  64.225  1.00  0.00     0.163 OA 
BRANCH   5   8
HETATM    8  C   UNL     1      -8.349  11.027  66.632  1.00  0.00    -0.155 A  
HETATM    9  C   UNL     1      -8.529  12.438  66.594  1.00  0.00    -0.030 A  
HETATM   10  C   UNL     1      -7.576  10.462  67.675  1.00  0.00    -0.089 A  
HETATM   11  I   UNL     1      -9.779  13.281  65.021  1.00  0.00     0.569 I  
HETATM   12  C   UNL     1      -7.978  13.284  67.597  1.00  0.00    -0.176 A  
HETATM   13  I   UNL     1      -6.854   8.428  67.465  1.00  0.00    -0.072 I  
HETATM   14  I   UNL     1      -6.889  13.847  70.489  1.00  0.00     1.429 I  
HETATM   15  C   UNL     1      -7.173  11.250  68.774  1.00  0.00    -0.104 A  
HETATM   16  C   UNL     1      -7.382  12.665  68.732  1.00  0.00    -0.066 A  
BRANCH  12  17
HETATM   17  C   UNL     1      -7.881  14.763  67.309  1.00  0.00    -0.194 C  
HETATM   18  N   UNL     1      -9.020  15.463  66.988  1.00  0.00    -0.215 N  
HETATM   19  H   UNL     1      -9.892  14.955  66.845  1.00  0.00     0.000 HD 
HETATM   20  O   UNL     1      -6.792  15.323  67.382  1.00  0.00    -0.185 OA 
BRANCH  18  21
HETATM   21  C   UNL     1      -9.012  16.921  66.847  1.00  0.00    -0.224 C  
BRANCH  21  22
HETATM   22  C   UNL     1      -9.784  17.564  68.004  1.00  0.00    -0.287 C  
HETATM   23  O   UNL     1      -9.949  16.601  69.056  1.00  0.00    -0.258 OA 
HETATM   24  H   UNL     1     -10.428  16.999  69.773  1.00  0.00     0.000 HD 
BRANCH  22  25
HETATM   25  C   UNL     1      -9.097  18.827  68.539  1.00  0.00    -0.342 C  
HETATM   26  H   UNL     1      -9.618  20.471  69.502  1.00  0.00     0.000 HD 
HETATM   27  O   UNL     1     -10.044  19.689  69.171  1.00  0.00    -0.438 OA 
ENDBRANCH  22  25
ENDBRANCH  21  22
ENDBRANCH  18  21
ENDBRANCH  12  17
BRANCH  15  28
HETATM   28  C   UNL     1      -6.500  10.625  69.960  1.00  0.00    -0.138 C  
HETATM   29  O   UNL     1      -5.324  10.865  70.210  1.00  0.00    -0.055 OA 
HETATM   30  H   UNL     1      -8.237   9.601  70.544  1.00  0.00     0.000 HD 
HETATM   31  N   UNL     1      -7.257   9.781  70.760  1.00  0.00    -0.069 N  
BRANCH  31  32
HETATM   32  C   UNL     1      -6.622   9.158  71.915  1.00  0.00     0.090 C  
BRANCH  32  33
HETATM   33  C   UNL     1      -6.273   7.681  71.693  1.00  0.00    -0.035 C  
HETATM   34  H   UNL     1      -4.957   6.666  70.636  1.00  0.00     0.000 HD 
HETATM   35  O   UNL     1      -5.174   7.581  70.774  1.00  0.00    -0.023 OA 
BRANCH  33  36
HETATM   36  C   UNL     1      -5.922   7.005  73.029  1.00  0.00    -0.056 C  
HETATM   37  O   UNL     1      -5.623   7.963  74.042  1.00  0.00    -0.062 OA 
HETATM   38  H   UNL     1      -5.406   7.545  74.867  1.00  0.00     0.000 HD 
ENDBRANCH  33  36
ENDBRANCH  32  33
ENDBRANCH  31  32
ENDBRANCH  15  28
ENDBRANCH   5   8
BRANCH   6  39
HETATM   39  C   UNL     1      -8.696   9.231  63.260  1.00  0.00    -0.176 C  
HETATM   40  O   UNL     1      -8.781   7.850  63.600  1.00  0.00    -0.336 OA 
HETATM   41  H   UNL     1      -9.125   7.313  62.895  1.00  0.00     0.000 HD 
ENDBRANCH   6  39
ENDBRANCH   4   5
ENDBRANCH   3   4
TORSDOF 12
ENDMDL
MODEL      158
REMARK 921   NORMALIZED FREE ENERGY PREDICTED BY IDOCK:   -0.82 KCAL/MOL
REMARK 922        TOTAL FREE ENERGY PREDICTED BY IDOCK:   -1.67 KCAL/MOL
REMARK 923 INTER-LIGAND FREE ENERGY PREDICTED BY IDOCK:   -3.87 KCAL/MOL
REMARK 924 INTRA-LIGAND FREE ENERGY PREDICTED BY IDOCK:    2.20 KCAL/MOL
REMARK 927      BINDING AFFINITY PREDICTED BY RF-SCORE:    0.00 PKD
ROOT
HETATM    1  O   UNL     1     -13.757   9.757  69.880  1.00  0.00     0.142 OA 
HETATM    2  H   UNL     1     -14.520  10.295  69.703  1.00  0.00     0.000 HD 
HETATM    3  C   UNL     1     -13.980   8.906  70.995  1.00  0.00     0.077 C  
ENDROOT
BRANCH   3   4
HETATM    4  C   UNL     1     -12.750   8.038  71.282  1.00  0.00    -0.217 C  
BRANCH   4   5
HETATM    5  N   UNL     1     -11.460   8.583  70.800  1.00  0.00    -0.268 N  
HETATM    6  C   UNL     1     -11.071   9.921  70.912  1.00  0.00    -0.348 C  
HETATM    7  O   UNL     1      -9.917  10.303  70.660  1.00  0.00     0.129 OA 
BRANCH   5   8
HETATM    8  C   UNL     1     -10.459   7.635  70.375  1.00  0.00    -0.220 A  
HETATM    9  C   UNL     1      -9.798   6.792  71.311  1.00  0.00    -0.176 A  
HETATM   10  C   UNL     1     -10.066   7.592  69.016  1.00  0.00    -0.192 A  
HETATM   11  I   UNL     1     -10.464   6.823  73.385  1.00  0.00    -0.343 I  
HETATM   12  C   UNL     1      -8.778   5.886  70.903  1.00  0.00    -0.131 A  
HETATM   13  I   UNL     1     -10.664   9.205  67.696  1.00  0.00     0.107 I  
HETATM   14  I   UNL     1      -7.323   4.089  68.778  1.00  0.00    -0.054 I  
HETATM   15  C   UNL     1      -9.192   6.584  68.555  1.00  0.00    -0.125 A  
HETATM   16  C   UNL     1      -8.553   5.727  69.507  1.00  0.00    -0.112 A  
BRANCH  12  17
HETATM   17  C   UNL     1      -7.873   5.305  71.964  1.00  0.00    -0.108 C  
HETATM   18  N   UNL     1      -8.315   4.246  72.720  1.00  0.00    -0.100 N  
HETATM   19  H   UNL     1      -9.283   3.938  72.627  1.00  0.00     0.000 HD 
HETATM   20  O   UNL     1      -6.752   5.775  72.125  1.00  0.00    -0.063 OA 
BRANCH  18  21
HETATM   21  C   UNL     1      -7.432   3.547  73.656  1.00  0.00    -0.061 C  
BRANCH  21  22
HETATM   22  C   UNL     1      -7.678   2.036  73.582  1.00  0.00    -0.042 C  
HETATM   23  O   UNL     1      -9.017   1.754  74.017  1.00  0.00    -0.060 OA 
HETATM   24  H   UNL     1      -9.170   0.817  73.971  1.00  0.00     0.000 HD 
BRANCH  22  25
HETATM   25  C   UNL     1      -7.442   1.470  72.175  1.00  0.00    -0.039 C  
HETATM   26  H   UNL     1      -8.450   1.305  70.484  1.00  0.00     0.000 HD 
HETATM   27  O   UNL     1      -8.596   1.656  71.355  1.00  0.00    -0.050 OA 
ENDBRANCH  22  25
ENDBRANCH  21  22
ENDBRANCH  18  21
ENDBRANCH  12  17
BRANCH  15  28
HETATM   28  C   UNL     1      -8.902   6.429  67.092  1.00  0.00    -0.113 C  
HETATM   29  O   UNL     1      -9.549   5.647  66.405  1.00  0.00    -0.151 OA 
HETATM   30  H   UNL     1      -7.368   7.861  67.134  1.00  0.00     0.000 HD 
HETATM   31  N   UNL     1      -7.889   7.207  66.551  1.00  0.00    -0.103 N  
BRANCH  31  32
HETATM   32  C   UNL     1      -7.586   7.071  65.131  1.00  0.00    -0.102 C  
BRANCH  32  33
HETATM   33  C   UNL     1      -6.754   8.233  64.574  1.00  0.00    -0.068 C  
HETATM   34  H   UNL     1      -6.853   9.450  63.029  1.00  0.00     0.000 HD 
HETATM   35  O   UNL     1      -7.368   8.730  63.374  1.00  0.00    -0.096 OA 
BRANCH  33  36
HETATM   36  C   UNL     1      -6.629   9.354  65.619  1.00  0.00    -0.070 C  
HETATM   37  O   UNL     1      -6.331  10.609  65.013  1.00  0.00    -0.306 OA 
HETATM   38  H   UNL     1      -6.253  11.302  65.659  1.00  0.00     0.000 HD 
ENDBRANCH  33  36
ENDBRANCH  32  33
ENDBRANCH  31  32
ENDBRANCH  15  28
ENDBRANCH   5   8
BRANCH   6  39
HETATM   39  C   UNL     1     -12.110  10.943  71.399  1.00  0.00    -0.138 C  
HETATM   40  O   UNL     1     -11.953  12.227  70.803  1.00  0.00    -0.473 OA 
HETATM   41  H   UNL     1     -12.596  12.859  71.104  1.00  0.00     0.000 HD 
ENDBRANCH   6  39
ENDBRANCH   4   5
ENDBRANCH   3   4
TORSDOF 12
ENDMDL
MODEL      159
REMARK 921   NORMALIZED FREE ENERGY PREDICTED BY IDOCK:   -0.54 KCAL/MOL
REMARK 922        TOTAL FREE ENERGY PREDICTED BY IDOCK:   -1.20 KCAL/MOL
REMARK 923 INTER-LIGAND FREE ENERGY PREDICTED BY IDOCK:   -4.79 KCAL/MOL
REMARK 924 INTRA-LIGAND FREE ENERGY PREDICTED BY IDOCK:    3.59 KCAL/MOL
REMARK 927      BINDING AFFINITY PREDICTED BY RF-SCORE:    0.00 PKD
ROOT
HETATM    1  O   UNL     1     -14.064   9.965  72.243  1.00  0.00    -0.337 OA 
HETATM    2  H   UNL     1     -14.961  10.111  72.520  1.00  0.00     0.000 HD 
HETATM    3  C   UNL     1     -13.359   9.174  73.189  1.00  0.00     0.716 C  
ENDROOT
BRANCH   3   4
HETATM    4  C   UNL     1     -11.911   8.938  72.742  1.00  0.00     0.224 C  
BRANCH   4   5
HETATM    5  N   UNL     1     -11.752   8.191  71.473  1.00  0.00    -0.275 N  
HETATM    6  C   UNL     1     -12.758   7.438  70.862  1.00  0.00    -0.118 C  
HETATM    7  O   UNL     1     -12.643   6.975  69.716  1.00  0.00     0.560 OA 
BRANCH   5   8
HETATM    8  C   UNL     1     -10.546   8.423  70.717  1.00  0.00    -0.207 A  
HETATM    9  C   UNL     1     -10.372   9.612  69.955  1.00  0.00    -0.249 A  
HETATM   10  C   UNL     1      -9.547   7.422  70.663  1.00  0.00    -0.171 A  
HETATM   11  I   UNL     1     -11.886  11.171  70.105  1.00  0.00    -0.433 I  
HETATM   12  C   UNL     1      -9.203   9.827  69.171  1.00  0.00    -0.177 A  
HETATM   13  I   UNL     1     -10.020   5.426  71.366  1.00  0.00    -0.272 I  
HETATM   14  I   UNL     1      -6.178   9.348  68.475  1.00  0.00    -0.048 I  
HETATM   15  C   UNL     1      -8.305   7.682  70.044  1.00  0.00    -0.134 A  
HETATM   16  C   UNL     1      -8.137   8.893  69.301  1.00  0.00    -0.109 A  
BRANCH  12  17
HETATM   17  C   UNL     1      -9.241  10.906  68.114  1.00  0.00    -0.158 C  
HETATM   18  N   UNL     1     -10.103  10.779  67.051  1.00  0.00    -0.200 N  
HETATM   19  H   UNL     1     -10.625   9.911  66.936  1.00  0.00     0.000 HD 
HETATM   20  O   UNL     1      -8.515  11.888  68.228  1.00  0.00    -0.152 OA 
BRANCH  18  21
HETATM   21  C   UNL     1     -10.292  11.859  66.081  1.00  0.00    -0.226 C  
BRANCH  21  22
HETATM   22  C   UNL     1     -11.781  12.199  65.957  1.00  0.00    -0.321 C  
HETATM   23  O   UNL     1     -12.139  13.135  66.986  1.00  0.00    -0.376 OA 
HETATM   24  H   UNL     1     -13.062  13.346  66.910  1.00  0.00     0.000 HD 
BRANCH  22  25
HETATM   25  C   UNL     1     -12.144  12.759  64.575  1.00  0.00    -0.414 C  
HETATM   26  H   UNL     1     -13.479  12.402  63.165  1.00  0.00     0.000 HD 
HETATM   27  O   UNL     1     -13.255  12.055  64.020  1.00  0.00    -0.681 OA 
ENDBRANCH  22  25
ENDBRANCH  21  22
ENDBRANCH  18  21
ENDBRANCH  12  17
BRANCH  15  28
HETATM   28  C   UNL     1      -7.184   6.689  70.127  1.00  0.00    -0.080 C  
HETATM   29  O   UNL     1      -6.106   7.003  70.617  1.00  0.00    -0.030 OA 
HETATM   30  H   UNL     1      -8.325   5.163  69.247  1.00  0.00     0.000 HD 
HETATM   31  N   UNL     1      -7.418   5.411  69.641  1.00  0.00    -0.065 N  
BRANCH  31  32
HETATM   32  C   UNL     1      -6.341   4.430  69.706  1.00  0.00    -0.028 C  
BRANCH  32  33
HETATM   33  C   UNL     1      -6.721   3.163  70.482  1.00  0.00    -0.033 C  
HETATM   34  H   UNL     1      -7.515   2.744  72.235  1.00  0.00     0.000 HD 
HETATM   35  O   UNL     1      -7.280   3.529  71.754  1.00  0.00    -0.043 OA 
BRANCH  33  36
HETATM   36  C   UNL     1      -7.722   2.319  69.676  1.00  0.00    -0.042 C  
HETATM   37  O   UNL     1      -8.192   3.015  68.524  1.00  0.00    -0.063 OA 
HETATM   38  H   UNL     1      -8.810   2.494  68.026  1.00  0.00     0.000 HD 
ENDBRANCH  33  36
ENDBRANCH  32  33
ENDBRANCH  31  32
ENDBRANCH  15  28
ENDBRANCH   5   8
BRANCH   6  39
HETATM   39  C   UNL     1     -14.066   7.208  71.635  1.00  0.00    -0.336 C  
HETATM   40  O   UNL     1     -14.045   6.029  72.432  1.00  0.00    -0.505 OA 
HETATM   41  H   UNL     1     -14.855   5.887  72.910  1.00  0.00     0.000 HD 
ENDBRANCH   6  39
ENDBRANCH   4   5
ENDBRANCH   3   4
TORSDOF 12
ENDMDL
MODEL      160
REMARK 921   NORMALIZED FREE ENERGY PREDICTED BY IDOCK:   -0.45 KCAL/MOL
REMARK 922        TOTAL FREE ENERGY PREDICTED BY IDOCK:   -1.04 KCAL/MOL
REMARK 923 INTER-LIGAND FREE ENERGY PREDICTED BY IDOCK:   -3.19 KCAL/MOL
REMARK 924 INTRA-LIGAND FREE ENERGY PREDICTED BY IDOCK:    2.16 KCAL/MOL
REMARK 927      BINDING AFFINITY PREDICTED BY RF-SCORE:    0.00 PKD
ROOT
HETATM    1  O   UNL     1     -13.757   9.755  69.882  1.00  0.00     0.142 OA 
HETATM    2  H   UNL     1     -14.517  10.294  69.696  1.00  0.00     0.000 HD 
HETATM    3  C   UNL     1     -13.989   8.909  70.998  1.00  0.00     0.077 C  
ENDROOT
BRANCH   3   4
HETATM    4  C   UNL     1     -12.761   8.040  71.298  1.00  0.00    -0.217 C  
BRANCH   4   5
HETATM    5  N   UNL     1     -11.468   8.580  70.819  1.00  0.00    -0.268 N  
HETATM    6  C   UNL     1     -11.080   9.919  70.918  1.00  0.00    -0.348 C  
HETATM    7  O   UNL     1      -9.924  10.298  70.670  1.00  0.00     0.129 OA 
BRANCH   5   8
HETATM    8  C   UNL     1     -10.464   7.627  70.413  1.00  0.00    -0.220 A  
HETATM    9  C   UNL     1      -9.806   6.799  71.365  1.00  0.00    -0.178 A  
HETATM   10  C   UNL     1     -10.064   7.563  69.057  1.00  0.00    -0.192 A  
HETATM   11  I   UNL     1     -10.483   6.860  73.435  1.00  0.00    -0.347 I  
HETATM   12  C   UNL     1      -8.783   5.889  70.976  1.00  0.00    -0.135 A  
HETATM   13  I   UNL     1     -10.658   9.155  67.710  1.00  0.00    -0.073 I  
HETATM   14  I   UNL     1      -7.316   4.061  68.885  1.00  0.00    -0.054 I  
HETATM   15  C   UNL     1      -9.186   6.550  68.616  1.00  0.00    -0.127 A  
HETATM   16  C   UNL     1      -8.551   5.708  69.584  1.00  0.00    -0.110 A  
BRANCH  12  17
HETATM   17  C   UNL     1      -7.883   5.325  72.051  1.00  0.00    -0.108 C  
HETATM   18  N   UNL     1      -8.327   4.276  72.820  1.00  0.00    -0.100 N  
HETATM   19  H   UNL     1      -9.294   3.965  72.727  1.00  0.00     0.000 HD 
HETATM   20  O   UNL     1      -6.763   5.799  72.210  1.00  0.00    -0.067 OA 
BRANCH  18  21
HETATM   21  C   UNL     1      -7.447   3.593  73.770  1.00  0.00    -0.062 C  
BRANCH  21  22
HETATM   22  C   UNL     1      -7.691   2.081  73.718  1.00  0.00    -0.042 C  
HETATM   23  O   UNL     1      -9.032   1.803  74.151  1.00  0.00    -0.063 OA 
HETATM   24  H   UNL     1      -9.184   0.866  74.119  1.00  0.00     0.000 HD 
BRANCH  22  25
HETATM   25  C   UNL     1      -7.448   1.493  72.321  1.00  0.00    -0.039 C  
HETATM   26  H   UNL     1      -8.452   1.291  70.632  1.00  0.00     0.000 HD 
HETATM   27  O   UNL     1      -8.603   1.655  71.497  1.00  0.00    -0.050 OA 
ENDBRANCH  22  25
ENDBRANCH  21  22
ENDBRANCH  18  21
ENDBRANCH  12  17
BRANCH  15  28
HETATM   28  C   UNL     1      -8.889   6.373  67.157  1.00  0.00    -0.113 C  
HETATM   29  O   UNL     1      -7.868   6.838  66.665  1.00  0.00    -0.103 OA 
HETATM   30  H   UNL     1     -10.643   5.268  66.822  1.00  0.00     0.000 HD 
HETATM   31  N   UNL     1      -9.803   5.659  66.395  1.00  0.00    -0.161 N  
BRANCH  31  32
HETATM   32  C   UNL     1      -9.538   5.479  64.973  1.00  0.00     0.467 C  
BRANCH  32  33
HETATM   33  C   UNL     1      -8.750   4.201  64.659  1.00  0.00    -0.131 C  
HETATM   34  H   UNL     1      -8.816   2.777  63.301  1.00  0.00     0.000 HD 
HETATM   35  O   UNL     1      -9.305   3.568  63.496  1.00  0.00    -0.104 OA 
BRANCH  33  36
HETATM   36  C   UNL     1      -7.263   4.528  64.438  1.00  0.00    -0.062 C  
HETATM   37  O   UNL     1      -6.911   4.470  63.058  1.00  0.00    -0.036 OA 
HETATM   38  H   UNL     1      -5.992   4.671  62.921  1.00  0.00     0.000 HD 
ENDBRANCH  33  36
ENDBRANCH  32  33
ENDBRANCH  31  32
ENDBRANCH  15  28
ENDBRANCH   5   8
BRANCH   6  39
HETATM   39  C   UNL     1     -12.123  10.947  71.384  1.00  0.00    -0.138 C  
HETATM   40  O   UNL     1     -12.223  12.073  70.519  1.00  0.00    -0.364 OA 
HETATM   41  H   UNL     1     -12.868  12.709  70.807  1.00  0.00     0.000 HD 
ENDBRANCH   6  39
ENDBRANCH   4   5
ENDBRANCH   3   4
TORSDOF 12
ENDMDL
MODEL      161
REMARK 921   NORMALIZED FREE ENERGY PREDICTED BY IDOCK:   -0.31 KCAL/MOL
REMARK 922        TOTAL FREE ENERGY PREDICTED BY IDOCK:   -0.80 KCAL/MOL
REMARK 923 INTER-LIGAND FREE ENERGY PREDICTED BY IDOCK:   -5.26 KCAL/MOL
REMARK 924 INTRA-LIGAND FREE ENERGY PREDICTED BY IDOCK:    4.46 KCAL/MOL
REMARK 927      BINDING AFFINITY PREDICTED BY RF-SCORE:    0.00 PKD
ROOT
HETATM    1  O   UNL     1     -12.890  14.852  64.556  1.00  0.00    -0.447 OA 
HETATM    2  H   UNL     1     -13.668  15.392  64.624  1.00  0.00     0.000 HD 
HETATM    3  C   UNL     1     -12.848  13.882  65.593  1.00  0.00    -0.424 C  
ENDROOT
BRANCH   3   4
HETATM    4  C   UNL     1     -11.592  13.010  65.484  1.00  0.00    -0.347 C  
BRANCH   4   5
HETATM    5  N   UNL     1     -10.831  12.831  66.741  1.00  0.00    -0.260 N  
HETATM    6  C   UNL     1     -10.478  13.866  67.611  1.00  0.00    -0.245 C  
HETATM    7  O   UNL     1      -9.999  13.657  68.738  1.00  0.00    -0.191 OA 
BRANCH   5   8
HETATM    8  C   UNL     1     -10.621  11.479  67.200  1.00  0.00    -0.237 A  
HETATM    9  C   UNL     1     -11.012  11.075  68.507  1.00  0.00    -0.228 A  
HETATM   10  C   UNL     1      -9.942  10.554  66.370  1.00  0.00    -0.218 A  
HETATM   11  I   UNL     1     -12.117  12.490  69.742  1.00  0.00    -0.024 I  
HETATM   12  C   UNL     1     -10.767   9.755  68.980  1.00  0.00    -0.238 A  
HETATM   13  I   UNL     1      -8.884  11.286  64.625  1.00  0.00     0.513 I  
HETATM   14  I   UNL     1     -10.251   6.686  68.559  1.00  0.00    -0.279 I  
HETATM   15  C   UNL     1      -9.847   9.196  66.742  1.00  0.00    -0.291 A  
HETATM   16  C   UNL     1     -10.268   8.800  68.051  1.00  0.00    -0.213 A  
BRANCH  12  17
HETATM   17  C   UNL     1     -10.861   9.501  70.466  1.00  0.00    -0.292 C  
HETATM   18  N   UNL     1      -9.976   8.631  71.059  1.00  0.00    -0.199 N  
HETATM   19  H   UNL     1      -9.342   8.090  70.471  1.00  0.00     0.000 HD 
HETATM   20  O   UNL     1     -11.712  10.087  71.127  1.00  0.00    -0.345 OA 
BRANCH  18  21
HETATM   21  C   UNL     1      -9.922   8.461  72.512  1.00  0.00    -0.285 C  
BRANCH  21  22
HETATM   22  C   UNL     1     -11.017   7.491  72.968  1.00  0.00    -0.390 C  
HETATM   23  O   UNL     1     -12.296   8.133  72.855  1.00  0.00    -0.617 OA 
HETATM   24  H   UNL     1     -12.974   7.532  73.138  1.00  0.00     0.000 HD 
BRANCH  22  25
HETATM   25  C   UNL     1     -11.006   6.177  72.176  1.00  0.00    -0.262 C  
HETATM   26  H   UNL     1      -9.667   5.001  71.323  1.00  0.00     0.000 HD 
HETATM   27  O   UNL     1      -9.673   5.815  71.814  1.00  0.00    -0.155 OA 
ENDBRANCH  22  25
ENDBRANCH  21  22
ENDBRANCH  18  21
ENDBRANCH  12  17
BRANCH  15  28
HETATM   28  C   UNL     1      -9.279   8.180  65.796  1.00  0.00    -0.034 C  
HETATM   29  O   UNL     1      -9.839   7.930  64.735  1.00  0.00     1.930 OA 
HETATM   30  H   UNL     1      -7.638   7.778  67.043  1.00  0.00     0.000 HD 
HETATM   31  N   UNL     1      -8.098   7.550  66.162  1.00  0.00    -0.110 N  
BRANCH  31  32
HETATM   32  C   UNL     1      -7.529   6.555  65.261  1.00  0.00    -0.082 C  
BRANCH  32  33
HETATM   33  C   UNL     1      -7.389   5.167  65.899  1.00  0.00    -0.081 C  
HETATM   34  H   UNL     1      -7.173   4.447  67.719  1.00  0.00     0.000 HD 
HETATM   35  O   UNL     1      -7.260   5.306  67.323  1.00  0.00    -0.072 OA 
BRANCH  33  36
HETATM   36  C   UNL     1      -8.603   4.290  65.551  1.00  0.00    -0.119 C  
HETATM   37  O   UNL     1      -9.543   4.990  64.740  1.00  0.00    -0.358 OA 
HETATM   38  H   UNL     1     -10.293   4.448  64.525  1.00  0.00     0.000 HD 
ENDBRANCH  33  36
ENDBRANCH  32  33
ENDBRANCH  31  32
ENDBRANCH  15  28
ENDBRANCH   5   8
BRANCH   6  39
HETATM   39  C   UNL     1     -10.727  15.314  67.159  1.00  0.00    -0.316 C  
HETATM   40  O   UNL     1     -11.227  16.146  68.200  1.00  0.00    -0.347 OA 
HETATM   41  H   UNL     1     -11.381  17.042  67.920  1.00  0.00     0.000 HD 
ENDBRANCH   6  39
ENDBRANCH   4   5
ENDBRANCH   3   4
TORSDOF 12
ENDMDL
MODEL      162
REMARK 921   NORMALIZED FREE ENERGY PREDICTED BY IDOCK:   -0.11 KCAL/MOL
REMARK 922        TOTAL FREE ENERGY PREDICTED BY IDOCK:   -0.47 KCAL/MOL
REMARK 923 INTER-LIGAND FREE ENERGY PREDICTED BY IDOCK:   -2.46 KCAL/MOL
REMARK 924 INTRA-LIGAND FREE ENERGY PREDICTED BY IDOCK:    1.99 KCAL/MOL
REMARK 927      BINDING AFFINITY PREDICTED BY RF-SCORE:    0.00 PKD
ROOT
HETATM    1  O   UNL     1     -13.309  14.293  69.224  1.00  0.00     0.768 OA 
HETATM    2  H   UNL     1     -13.456  15.128  69.653  1.00  0.00     0.000 HD 
HETATM    3  C   UNL     1     -11.941  14.126  68.884  1.00  0.00    -0.341 C  
ENDROOT
BRANCH   3   4
HETATM    4  C   UNL     1     -11.705  12.779  68.190  1.00  0.00    -0.345 C  
BRANCH   4   5
HETATM    5  N   UNL     1     -10.772  11.861  68.885  1.00  0.00    -0.219 N  
HETATM    6  C   UNL     1     -11.122  11.031  69.954  1.00  0.00    -0.205 C  
HETATM    7  O   UNL     1     -10.363  10.150  70.390  1.00  0.00    -0.258 OA 
BRANCH   5   8
HETATM    8  C   UNL     1      -9.475  11.660  68.286  1.00  0.00    -0.191 A  
HETATM    9  C   UNL     1      -9.124  10.418  67.686  1.00  0.00    -0.138 A  
HETATM   10  C   UNL     1      -8.501  12.684  68.363  1.00  0.00    -0.121 A  
HETATM   11  I   UNL     1     -10.658   8.880  67.515  1.00  0.00    -0.012 I  
HETATM   12  C   UNL     1      -7.830  10.200  67.134  1.00  0.00    -0.099 A  
HETATM   13  I   UNL     1      -8.828  14.348  69.714  1.00  0.00     1.490 I  
HETATM   14  I   UNL     1      -5.132  11.183  65.862  1.00  0.00     0.173 I  
HETATM   15  C   UNL     1      -7.278  12.562  67.668  1.00  0.00    -0.136 A  
HETATM   16  C   UNL     1      -6.950  11.314  67.049  1.00  0.00    -0.126 A  
BRANCH  12  17
HETATM   17  C   UNL     1      -7.403   8.777  66.858  1.00  0.00    -0.079 C  
HETATM   18  N   UNL     1      -6.511   8.165  67.705  1.00  0.00    -0.052 N  
HETATM   19  H   UNL     1      -6.069   8.714  68.443  1.00  0.00     0.000 HD 
HETATM   20  O   UNL     1      -7.872   8.183  65.893  1.00  0.00    -0.088 OA 
BRANCH  18  21
HETATM   21  C   UNL     1      -6.177   6.746  67.576  1.00  0.00    -0.040 C  
BRANCH  21  22
HETATM   22  C   UNL     1      -7.391   5.886  67.943  1.00  0.00    -0.077 C  
HETATM   23  O   UNL     1      -7.390   4.696  67.138  1.00  0.00    -0.075 OA 
HETATM   24  H   UNL     1      -8.142   4.163  67.366  1.00  0.00     0.000 HD 
BRANCH  22  25
HETATM   25  C   UNL     1      -7.425   5.522  69.434  1.00  0.00    -0.070 C  
HETATM   26  H   UNL     1      -7.889   6.406  71.138  1.00  0.00     0.000 HD 
HETATM   27  O   UNL     1      -7.868   6.632  70.215  1.00  0.00    -0.102 OA 
ENDBRANCH  22  25
ENDBRANCH  21  22
ENDBRANCH  18  21
ENDBRANCH  12  17
BRANCH  15  28
HETATM   28  C   UNL     1      -6.312  13.708  67.607  1.00  0.00    -0.138 C  
HETATM   29  O   UNL     1      -5.127  13.542  67.870  1.00  0.00    -0.105 OA 
HETATM   30  H   UNL     1      -7.796  15.067  67.009  1.00  0.00     0.000 HD 
HETATM   31  N   UNL     1      -6.809  14.948  67.235  1.00  0.00    -0.087 N  
BRANCH  31  32
HETATM   32  C   UNL     1      -5.890  16.079  67.173  1.00  0.00     0.051 C  
BRANCH  32  33
HETATM   33  C   UNL     1      -6.492  17.314  66.492  1.00  0.00    -0.237 C  
HETATM   34  H   UNL     1      -8.294  17.941  66.002  1.00  0.00     0.000 HD 
HETATM   35  O   UNL     1      -7.920  17.176  66.424  1.00  0.00    -0.259 OA 
BRANCH  33  36
HETATM   36  C   UNL     1      -6.110  18.591  67.259  1.00  0.00    -0.165 C  
HETATM   37  O   UNL     1      -7.095  18.936  68.231  1.00  0.00    -0.245 OA 
HETATM   38  H   UNL     1      -6.859  19.725  68.705  1.00  0.00     0.000 HD 
ENDBRANCH  33  36
ENDBRANCH  32  33
ENDBRANCH  31  32
ENDBRANCH  15  28
ENDBRANCH   5   8
BRANCH   6  39
HETATM   39  C   UNL     1     -12.513  11.202  70.583  1.00  0.00    -0.356 C  
HETATM   40  O   UNL     1     -13.375  10.094  70.345  1.00  0.00    -0.573 OA 
HETATM   41  H   UNL     1     -14.235  10.200  70.734  1.00  0.00     0.000 HD 
ENDBRANCH   6  39
ENDBRANCH   4   5
ENDBRANCH   3   4
TORSDOF 12
ENDMDL
MODEL      163
REMARK 921   NORMALIZED FREE ENERGY PREDICTED BY IDOCK:   -0.02 KCAL/MOL
REMARK 922        TOTAL FREE ENERGY PREDICTED BY IDOCK:   -0.31 KCAL/MOL
REMARK 923 INTER-LIGAND FREE ENERGY PREDICTED BY IDOCK:   -2.21 KCAL/MOL
REMARK 924 INTRA-LIGAND FREE ENERGY PREDICTED BY IDOCK:    1.89 KCAL/MOL
REMARK 927      BINDING AFFINITY PREDICTED BY RF-SCORE:    0.00 PKD
ROOT
HETATM    1  O   UNL     1     -13.328  14.292  69.219  1.00  0.00     0.768 OA 
HETATM    2  H   UNL     1     -13.484  15.116  69.663  1.00  0.00     0.000 HD 
HETATM    3  C   UNL     1     -11.952  14.130  68.907  1.00  0.00    -0.341 C  
ENDROOT
BRANCH   3   4
HETATM    4  C   UNL     1     -11.701  12.799  68.189  1.00  0.00    -0.345 C  
BRANCH   4   5
HETATM    5  N   UNL     1     -10.781  11.866  68.881  1.00  0.00    -0.219 N  
HETATM    6  C   UNL     1     -11.147  11.030  69.940  1.00  0.00    -0.205 C  
HETATM    7  O   UNL     1     -10.400  10.138  70.374  1.00  0.00    -0.258 OA 
BRANCH   5   8
HETATM    8  C   UNL     1      -9.481  11.660  68.291  1.00  0.00    -0.191 A  
HETATM    9  C   UNL     1      -9.132  10.416  67.696  1.00  0.00    -0.138 A  
HETATM   10  C   UNL     1      -8.504  12.680  68.372  1.00  0.00    -0.121 A  
HETATM   11  I   UNL     1     -10.670   8.883  67.518  1.00  0.00     0.203 I  
HETATM   12  C   UNL     1      -7.835  10.192  67.152  1.00  0.00    -0.099 A  
HETATM   13  I   UNL     1      -8.833  14.348  69.719  1.00  0.00     1.490 I  
HETATM   14  I   UNL     1      -5.126  11.163  65.895  1.00  0.00     0.173 I  
HETATM   15  C   UNL     1      -7.277  12.553  67.686  1.00  0.00    -0.136 A  
HETATM   16  C   UNL     1      -6.950  11.303  67.070  1.00  0.00    -0.126 A  
BRANCH  12  17
HETATM   17  C   UNL     1      -7.411   8.767  66.881  1.00  0.00    -0.090 C  
HETATM   18  N   UNL     1      -7.892   8.122  65.767  1.00  0.00    -0.091 N  
HETATM   19  H   UNL     1      -8.608   8.575  65.199  1.00  0.00     0.000 HD 
HETATM   20  O   UNL     1      -6.632   8.213  67.649  1.00  0.00    -0.055 OA 
BRANCH  18  21
HETATM   21  C   UNL     1      -7.401   6.800  65.373  1.00  0.00    -0.080 C  
BRANCH  21  22
HETATM   22  C   UNL     1      -6.323   6.940  64.293  1.00  0.00    -0.036 C  
HETATM   23  O   UNL     1      -5.322   5.930  64.489  1.00  0.00    -0.016 OA 
HETATM   24  H   UNL     1      -4.653   6.017  63.820  1.00  0.00     0.000 HD 
BRANCH  22  25
HETATM   25  C   UNL     1      -6.898   6.854  62.872  1.00  0.00    -0.051 C  
HETATM   26  H   UNL     1      -8.171   7.868  61.753  1.00  0.00     0.000 HD 
HETATM   27  O   UNL     1      -7.816   7.921  62.632  1.00  0.00    -0.128 OA 
ENDBRANCH  22  25
ENDBRANCH  21  22
ENDBRANCH  18  21
ENDBRANCH  12  17
BRANCH  15  28
HETATM   28  C   UNL     1      -6.307  13.695  67.629  1.00  0.00    -0.138 C  
HETATM   29  O   UNL     1      -5.125  13.527  67.906  1.00  0.00    -0.105 OA 
HETATM   30  H   UNL     1      -7.779  15.055  67.004  1.00  0.00     0.000 HD 
HETATM   31  N   UNL     1      -6.795  14.935  67.243  1.00  0.00    -0.087 N  
BRANCH  31  32
HETATM   32  C   UNL     1      -5.872  16.062  67.185  1.00  0.00     0.051 C  
BRANCH  32  33
HETATM   33  C   UNL     1      -6.562  17.396  66.873  1.00  0.00    -0.189 C  
HETATM   34  H   UNL     1      -6.491  18.741  65.436  1.00  0.00     0.000 HD 
HETATM   35  O   UNL     1      -6.064  17.914  65.629  1.00  0.00    -0.210 OA 
BRANCH  33  36
HETATM   36  C   UNL     1      -8.087  17.210  66.807  1.00  0.00    -0.243 C  
HETATM   37  O   UNL     1      -8.699  18.173  65.953  1.00  0.00    -0.505 OA 
HETATM   38  H   UNL     1      -9.641  18.058  65.912  1.00  0.00     0.000 HD 
ENDBRANCH  33  36
ENDBRANCH  32  33
ENDBRANCH  31  32
ENDBRANCH  15  28
ENDBRANCH   5   8
BRANCH   6  39
HETATM   39  C   UNL     1     -12.541  11.207  70.560  1.00  0.00    -0.274 C  
HETATM   40  O   UNL     1     -13.485  10.245  70.100  1.00  0.00    -0.415 OA 
HETATM   41  H   UNL     1     -14.347  10.355  70.484  1.00  0.00     0.000 HD 
ENDBRANCH   6  39
ENDBRANCH   4   5
ENDBRANCH   3   4
TORSDOF 12
ENDMDL
MODEL      164
REMARK 921   NORMALIZED FREE ENERGY PREDICTED BY IDOCK:    0.09 KCAL/MOL
REMARK 922        TOTAL FREE ENERGY PREDICTED BY IDOCK:   -0.12 KCAL/MOL
REMARK 923 INTER-LIGAND FREE ENERGY PREDICTED BY IDOCK:   -3.82 KCAL/MOL
REMARK 924 INTRA-LIGAND FREE ENERGY PREDICTED BY IDOCK:    3.70 KCAL/MOL
REMARK 927      BINDING AFFINITY PREDICTED BY RF-SCORE:    0.00 PKD
ROOT
HETATM    1  O   UNL     1     -12.811  13.272  65.593  1.00  0.00    -0.410 OA 
HETATM    2  H   UNL     1     -13.120  14.063  66.019  1.00  0.00     0.000 HD 
HETATM    3  C   UNL     1     -11.812  12.628  66.370  1.00  0.00    -0.402 C  
ENDROOT
BRANCH   3   4
HETATM    4  C   UNL     1     -11.313  11.352  65.682  1.00  0.00     0.001 C  
BRANCH   4   5
HETATM    5  N   UNL     1      -9.853  11.288  65.443  1.00  0.00    -0.226 N  
HETATM    6  C   UNL     1      -9.256  11.214  64.181  1.00  0.00    -0.105 C  
HETATM    7  O   UNL     1      -8.033  11.342  64.013  1.00  0.00     0.563 OA 
BRANCH   5   8
HETATM    8  C   UNL     1      -8.988  11.526  66.573  1.00  0.00    -0.189 A  
HETATM    9  C   UNL     1      -8.509  10.451  67.373  1.00  0.00    -0.121 A  
HETATM   10  C   UNL     1      -8.669  12.853  66.946  1.00  0.00    -0.161 A  
HETATM   11  I   UNL     1      -8.951   8.412  66.743  1.00  0.00    -0.222 I  
HETATM   12  C   UNL     1      -7.691  10.683  68.515  1.00  0.00    -0.107 A  
HETATM   13  I   UNL     1      -9.800  14.488  66.081  1.00  0.00    -0.313 I  
HETATM   14  I   UNL     1      -5.661  12.387  70.199  1.00  0.00    -0.159 I  
HETATM   15  C   UNL     1      -7.719  13.103  67.959  1.00  0.00    -0.146 A  
HETATM   16  C   UNL     1      -7.228  12.009  68.740  1.00  0.00    -0.108 A  
BRANCH  12  17
HETATM   17  C   UNL     1      -7.530   9.563  69.516  1.00  0.00    -0.092 C  
HETATM   18  N   UNL     1      -6.610   8.571  69.275  1.00  0.00    -0.045 N  
HETATM   19  H   UNL     1      -6.127   8.547  68.376  1.00  0.00     0.000 HD 
HETATM   20  O   UNL     1      -8.209   9.563  70.537  1.00  0.00    -0.181 OA 
BRANCH  18  21
HETATM   21  C   UNL     1      -6.303   7.546  70.275  1.00  0.00    -0.034 C  
BRANCH  21  22
HETATM   22  C   UNL     1      -7.253   6.354  70.114  1.00  0.00    -0.084 C  
HETATM   23  O   UNL     1      -6.672   5.406  69.206  1.00  0.00    -0.048 OA 
HETATM   24  H   UNL     1      -7.260   4.667  69.106  1.00  0.00     0.000 HD 
BRANCH  22  25
HETATM   25  C   UNL     1      -7.583   5.680  71.453  1.00  0.00    -0.104 C  
HETATM   26  H   UNL     1      -9.101   5.615  72.715  1.00  0.00     0.000 HD 
HETATM   27  O   UNL     1      -8.896   6.032  71.886  1.00  0.00    -0.137 OA 
ENDBRANCH  22  25
ENDBRANCH  21  22
ENDBRANCH  18  21
ENDBRANCH  12  17
BRANCH  15  28
HETATM   28  C   UNL     1      -7.253  14.500  68.246  1.00  0.00    -0.119 C  
HETATM   29  O   UNL     1      -6.156  14.885  67.861  1.00  0.00    -0.139 OA 
HETATM   30  H   UNL     1      -9.026  15.000  69.253  1.00  0.00     0.000 HD 
HETATM   31  N   UNL     1      -8.112  15.333  68.949  1.00  0.00    -0.165 N  
BRANCH  31  32
HETATM   32  C   UNL     1      -7.679  16.694  69.245  1.00  0.00    -0.110 C  
BRANCH  32  33
HETATM   33  C   UNL     1      -6.419  17.111  68.475  1.00  0.00    -0.164 C  
HETATM   34  H   UNL     1      -5.785  18.722  67.537  1.00  0.00     0.000 HD 
HETATM   35  O   UNL     1      -6.565  18.463  68.014  1.00  0.00    -0.204 OA 
BRANCH  33  36
HETATM   36  C   UNL     1      -5.174  16.976  69.367  1.00  0.00    -0.141 C  
HETATM   37  O   UNL     1      -5.518  16.957  70.751  1.00  0.00    -0.193 OA 
HETATM   38  H   UNL     1      -4.748  16.874  71.303  1.00  0.00     0.000 HD 
ENDBRANCH  33  36
ENDBRANCH  32  33
ENDBRANCH  31  32
ENDBRANCH  15  28
ENDBRANCH   5   8
BRANCH   6  39
HETATM   39  C   UNL     1     -10.162  10.998  62.959  1.00  0.00    -0.178 C  
HETATM   40  O   UNL     1     -10.309   9.626  62.606  1.00  0.00     0.423 OA 
HETATM   41  H   UNL     1     -10.869   9.493  61.850  1.00  0.00     0.000 HD 
ENDBRANCH   6  39
ENDBRANCH   4   5
ENDBRANCH   3   4
TORSDOF 12
ENDMDL
MODEL      165
REMARK 921   NORMALIZED FREE ENERGY PREDICTED BY IDOCK:    0.11 KCAL/MOL
REMARK 922        TOTAL FREE ENERGY PREDICTED BY IDOCK:   -0.09 KCAL/MOL
REMARK 923 INTER-LIGAND FREE ENERGY PREDICTED BY IDOCK:   -2.83 KCAL/MOL
REMARK 924 INTRA-LIGAND FREE ENERGY PREDICTED BY IDOCK:    2.75 KCAL/MOL
REMARK 927      BINDING AFFINITY PREDICTED BY RF-SCORE:    0.00 PKD
ROOT
HETATM    1  O   UNL     1     -12.860  13.188  65.606  1.00  0.00    -0.444 OA 
HETATM    2  H   UNL     1     -13.291  13.784  66.208  1.00  0.00     0.000 HD 
HETATM    3  C   UNL     1     -12.057  12.247  66.303  1.00  0.00    -0.074 C  
ENDROOT
BRANCH   3   4
HETATM    4  C   UNL     1     -11.362  11.286  65.331  1.00  0.00     0.097 C  
BRANCH   4   5
HETATM    5  N   UNL     1      -9.999  11.683  64.910  1.00  0.00    -0.249 N  
HETATM    6  C   UNL     1      -9.522  11.617  63.597  1.00  0.00    -0.131 C  
HETATM    7  O   UNL     1      -8.441  12.123  63.255  1.00  0.00     0.850 OA 
BRANCH   5   8
HETATM    8  C   UNL     1      -9.183  12.373  65.878  1.00  0.00     0.014 A  
HETATM    9  C   UNL     1      -8.352  11.658  66.786  1.00  0.00    -0.171 A  
HETATM   10  C   UNL     1      -9.264  13.782  65.987  1.00  0.00     0.089 A  
HETATM   11  I   UNL     1      -8.186   9.498  66.557  1.00  0.00    -0.127 I  
HETATM   12  C   UNL     1      -7.579  12.332  67.773  1.00  0.00    -0.131 A  
HETATM   13  I   UNL     1     -10.890  14.821  64.999  1.00  0.00    -0.386 I  
HETATM   14  I   UNL     1      -6.071  14.842  68.908  1.00  0.00    -0.101 I  
HETATM   15  C   UNL     1      -8.378  14.487  66.830  1.00  0.00    -0.133 A  
HETATM   16  C   UNL     1      -7.531  13.753  67.720  1.00  0.00    -0.163 A  
BRANCH  12  17
HETATM   17  C   UNL     1      -7.024  11.521  68.921  1.00  0.00    -0.100 C  
HETATM   18  N   UNL     1      -5.901  10.754  68.723  1.00  0.00    -0.040 N  
HETATM   19  H   UNL     1      -5.523  10.659  67.781  1.00  0.00     0.000 HD 
HETATM   20  O   UNL     1      -7.573  11.573  70.017  1.00  0.00     0.500 OA 
BRANCH  18  21
HETATM   21  C   UNL     1      -5.234  10.069  69.832  1.00  0.00    -0.037 C  
BRANCH  21  22
HETATM   22  C   UNL     1      -5.924   8.730  70.113  1.00  0.00    -0.030 C  
HETATM   23  O   UNL     1      -5.307   7.703  69.322  1.00  0.00    -0.015 OA 
HETATM   24  H   UNL     1      -5.735   6.873  69.496  1.00  0.00     0.000 HD 
BRANCH  22  25
HETATM   25  C   UNL     1      -5.889   8.352  71.601  1.00  0.00    -0.041 C  
HETATM   26  H   UNL     1      -6.459   9.144  73.318  1.00  0.00     0.000 HD 
HETATM   27  O   UNL     1      -6.480   9.379  72.397  1.00  0.00    -0.298 OA 
ENDBRANCH  22  25
ENDBRANCH  21  22
ENDBRANCH  18  21
ENDBRANCH  12  17
BRANCH  15  28
HETATM   28  C   UNL     1      -8.345  15.986  66.827  1.00  0.00    -0.270 C  
HETATM   29  O   UNL     1      -7.322  16.589  66.524  1.00  0.00    -0.240 OA 
HETATM   30  H   UNL     1     -10.357  16.140  67.406  1.00  0.00     0.000 HD 
HETATM   31  N   UNL     1      -9.511  16.656  67.167  1.00  0.00    -0.227 N  
BRANCH  31  32
HETATM   32  C   UNL     1      -9.502  18.115  67.176  1.00  0.00    -0.264 C  
BRANCH  32  33
HETATM   33  C   UNL     1      -8.801  18.710  68.403  1.00  0.00    -0.339 C  
HETATM   34  H   UNL     1      -7.466  20.117  68.745  1.00  0.00     0.000 HD 
HETATM   35  O   UNL     1      -7.901  19.747  67.985  1.00  0.00    -0.299 OA 
BRANCH  33  36
HETATM   36  C   UNL     1      -9.835  19.262  69.398  1.00  0.00    -0.124 C  
HETATM   37  O   UNL     1     -10.785  20.109  68.755  1.00  0.00    -0.391 OA 
HETATM   38  H   UNL     1     -11.424  20.451  69.369  1.00  0.00     0.000 HD 
ENDBRANCH  33  36
ENDBRANCH  32  33
ENDBRANCH  31  32
ENDBRANCH  15  28
ENDBRANCH   5   8
BRANCH   6  39
HETATM   39  C   UNL     1     -10.391  10.918  62.541  1.00  0.00     0.498 C  
HETATM   40  O   UNL     1     -10.149   9.518  62.454  1.00  0.00    -0.055 OA 
HETATM   41  H   UNL     1     -10.687   9.086  61.800  1.00  0.00     0.000 HD 
ENDBRANCH   6  39
ENDBRANCH   4   5
ENDBRANCH   3   4
TORSDOF 12
ENDMDL
MODEL      166
REMARK 921   NORMALIZED FREE ENERGY PREDICTED BY IDOCK:    0.11 KCAL/MOL
REMARK 922        TOTAL FREE ENERGY PREDICTED BY IDOCK:   -0.08 KCAL/MOL
REMARK 923 INTER-LIGAND FREE ENERGY PREDICTED BY IDOCK:   -2.75 KCAL/MOL
REMARK 924 INTRA-LIGAND FREE ENERGY PREDICTED BY IDOCK:    2.67 KCAL/MOL
REMARK 927      BINDING AFFINITY PREDICTED BY RF-SCORE:    0.00 PKD
ROOT
HETATM    1  O   UNL     1     -11.966   9.188  71.712  1.00  0.00    -0.335 OA 
HETATM    2  H   UNL     1     -12.423   9.840  72.229  1.00  0.00     0.000 HD 
HETATM    3  C   UNL     1     -11.845   9.600  70.359  1.00  0.00    -0.155 C  
ENDROOT
BRANCH   3   4
HETATM    4  C   UNL     1     -11.106   8.546  69.524  1.00  0.00     0.052 C  
BRANCH   4   5
HETATM    5  N   UNL     1      -9.691   8.856  69.217  1.00  0.00    -0.162 N  
HETATM    6  C   UNL     1      -8.634   8.725  70.122  1.00  0.00    -0.146 C  
HETATM    7  O   UNL     1      -7.445   8.822  69.778  1.00  0.00    -0.054 OA 
BRANCH   5   8
HETATM    8  C   UNL     1      -9.355   9.111  67.837  1.00  0.00    -0.137 A  
HETATM    9  C   UNL     1      -8.918   8.062  66.980  1.00  0.00    -0.138 A  
HETATM   10  C   UNL     1      -9.382  10.436  67.341  1.00  0.00    -0.145 A  
HETATM   11  I   UNL     1      -8.949   6.021  67.739  1.00  0.00    -0.107 I  
HETATM   12  C   UNL     1      -8.542   8.315  65.630  1.00  0.00    -0.189 A  
HETATM   13  I   UNL     1      -9.524  12.081  68.746  1.00  0.00     0.355 I  
HETATM   14  I   UNL     1      -8.622   9.990  62.974  1.00  0.00    -0.287 I  
HETATM   15  C   UNL     1      -9.190  10.690  65.966  1.00  0.00    -0.208 A  
HETATM   16  C   UNL     1      -8.774   9.620  65.111  1.00  0.00    -0.166 A  
BRANCH  12  17
HETATM   17  C   UNL     1      -7.748   7.258  64.900  1.00  0.00    -0.117 C  
HETATM   18  N   UNL     1      -8.387   6.434  64.004  1.00  0.00    -0.327 N  
HETATM   19  H   UNL     1      -9.403   6.479  63.925  1.00  0.00     0.000 HD 
HETATM   20  O   UNL     1      -6.543   7.159  65.104  1.00  0.00    -0.045 OA 
BRANCH  18  21
HETATM   21  C   UNL     1      -7.647   5.496  63.159  1.00  0.00    -0.072 C  
BRANCH  21  22
HETATM   22  C   UNL     1      -7.953   4.055  63.582  1.00  0.00    -0.088 C  
HETATM   23  O   UNL     1      -7.008   3.645  64.582  1.00  0.00    -0.048 OA 
HETATM   24  H   UNL     1      -7.198   2.752  64.844  1.00  0.00     0.000 HD 
BRANCH  22  25
HETATM   25  C   UNL     1      -9.388   3.886  64.100  1.00  0.00    -0.150 C  
HETATM   26  H   UNL     1     -11.001   2.857  63.610  1.00  0.00     0.000 HD 
HETATM   27  O   UNL     1     -10.113   2.961  63.289  1.00  0.00    -0.116 OA 
ENDBRANCH  22  25
ENDBRANCH  21  22
ENDBRANCH  18  21
ENDBRANCH  12  17
BRANCH  15  28
HETATM   28  C   UNL     1      -9.382  12.068  65.406  1.00  0.00     0.017 C  
HETATM   29  O   UNL     1      -8.505  12.597  64.734  1.00  0.00     2.096 OA 
HETATM   30  H   UNL     1     -11.308  12.248  66.221  1.00  0.00     0.000 HD 
HETATM   31  N   UNL     1     -10.584  12.708  65.669  1.00  0.00    -0.268 N  
BRANCH  31  32
HETATM   32  C   UNL     1     -10.792  14.051  65.139  1.00  0.00    -0.369 C  
BRANCH  32  33
HETATM   33  C   UNL     1     -10.699  15.146  66.209  1.00  0.00    -0.320 C  
HETATM   34  H   UNL     1     -11.080  15.299  68.135  1.00  0.00     0.000 HD 
HETATM   35  O   UNL     1     -11.137  14.621  67.472  1.00  0.00    -0.292 OA 
BRANCH  33  36
HETATM   36  C   UNL     1      -9.258  15.673  66.315  1.00  0.00    -0.330 C  
HETATM   37  O   UNL     1      -8.438  14.810  67.100  1.00  0.00    -0.199 OA 
HETATM   38  H   UNL     1      -7.548  15.136  67.166  1.00  0.00     0.000 HD 
ENDBRANCH  33  36
ENDBRANCH  32  33
ENDBRANCH  31  32
ENDBRANCH  15  28
ENDBRANCH   5   8
BRANCH   6  39
HETATM   39  C   UNL     1      -8.966   8.418  71.590  1.00  0.00    -0.199 C  
HETATM   40  O   UNL     1      -9.967   9.276  72.129  1.00  0.00    -0.098 OA 
HETATM   41  H   UNL     1     -10.173   9.085  73.037  1.00  0.00     0.000 HD 
ENDBRANCH   6  39
ENDBRANCH   4   5
ENDBRANCH   3   4
TORSDOF 12
ENDMDL
MODEL      167
REMARK 921   NORMALIZED FREE ENERGY PREDICTED BY IDOCK:    0.19 KCAL/MOL
REMARK 922        TOTAL FREE ENERGY PREDICTED BY IDOCK:    0.04 KCAL/MOL
REMARK 923 INTER-LIGAND FREE ENERGY PREDICTED BY IDOCK:   -2.49 KCAL/MOL
REMARK 924 INTRA-LIGAND FREE ENERGY PREDICTED BY IDOCK:    2.53 KCAL/MOL
REMARK 927      BINDING AFFINITY PREDICTED BY RF-SCORE:    0.00 PKD
ROOT
HETATM    1  O   UNL     1     -10.170   9.817  64.495  1.00  0.00    -0.344 OA 
HETATM    2  H   UNL     1      -9.967   9.400  63.666  1.00  0.00     0.000 HD 
HETATM    3  C   UNL     1     -10.980  10.968  64.305  1.00  0.00    -0.078 C  
ENDROOT
BRANCH   3   4
HETATM    4  C   UNL     1     -11.306  11.641  65.644  1.00  0.00    -0.170 C  
BRANCH   4   5
HETATM    5  N   UNL     1     -10.250  11.546  66.678  1.00  0.00    -0.213 N  
HETATM    6  C   UNL     1      -9.037  12.240  66.642  1.00  0.00    -0.203 C  
HETATM    7  O   UNL     1      -8.258  12.273  67.608  1.00  0.00    -0.145 OA 
BRANCH   5   8
HETATM    8  C   UNL     1     -10.581  10.853  67.899  1.00  0.00    -0.207 A  
HETATM    9  C   UNL     1     -10.161   9.512  68.122  1.00  0.00    -0.193 A  
HETATM   10  C   UNL     1     -11.404  11.483  68.862  1.00  0.00    -0.268 A  
HETATM   11  I   UNL     1      -8.838   8.583  66.662  1.00  0.00    -0.205 I  
HETATM   12  C   UNL     1     -10.523   8.808  69.306  1.00  0.00    -0.228 A  
HETATM   13  I   UNL     1     -12.474  13.287  68.312  1.00  0.00     1.446 I  
HETATM   14  I   UNL     1     -11.399   8.673  72.319  1.00  0.00    -0.102 I  
HETATM   15  C   UNL     1     -11.627  10.880  70.118  1.00  0.00    -0.425 A  
HETATM   16  C   UNL     1     -11.178   9.539  70.337  1.00  0.00    -0.270 A  
BRANCH  12  17
HETATM   17  C   UNL     1     -10.372   7.305  69.317  1.00  0.00    -0.205 C  
HETATM   18  N   UNL     1      -9.356   6.735  70.048  1.00  0.00    -0.158 N  
HETATM   19  H   UNL     1      -8.658   7.338  70.483  1.00  0.00     0.000 HD 
HETATM   20  O   UNL     1     -11.166   6.613  68.689  1.00  0.00    -0.239 OA 
BRANCH  18  21
HETATM   21  C   UNL     1      -9.251   5.285  70.218  1.00  0.00    -0.143 C  
BRANCH  21  22
HETATM   22  C   UNL     1      -7.778   4.867  70.266  1.00  0.00    -0.062 C  
HETATM   23  O   UNL     1      -7.111   5.347  69.088  1.00  0.00    -0.054 OA 
HETATM   24  H   UNL     1      -6.198   5.088  69.118  1.00  0.00     0.000 HD 
BRANCH  22  25
HETATM   25  C   UNL     1      -7.064   5.372  71.527  1.00  0.00    -0.068 C  
HETATM   26  H   UNL     1      -5.220   5.818  72.076  1.00  0.00     0.000 HD 
HETATM   27  O   UNL     1      -5.662   5.506  71.295  1.00  0.00    -0.018 OA 
ENDBRANCH  22  25
ENDBRANCH  21  22
ENDBRANCH  18  21
ENDBRANCH  12  17
BRANCH  15  28
HETATM   28  C   UNL     1     -12.358  11.613  71.203  1.00  0.00    -0.246 C  
HETATM   29  O   UNL     1     -13.197  11.041  71.889  1.00  0.00    -0.473 OA 
HETATM   30  H   UNL     1     -11.332  13.406  70.831  1.00  0.00     0.000 HD 
HETATM   31  N   UNL     1     -12.041  12.949  71.403  1.00  0.00     0.241 N  
BRANCH  31  32
HETATM   32  C   UNL     1     -12.743  13.684  72.449  1.00  0.00    -0.103 C  
BRANCH  32  33
HETATM   33  C   UNL     1     -13.556  14.870  71.916  1.00  0.00    -0.407 C  
HETATM   34  H   UNL     1     -14.885  16.132  72.637  1.00  0.00     0.000 HD 
HETATM   35  O   UNL     1     -14.381  15.397  72.967  1.00  0.00    -0.074 OA 
BRANCH  33  36
HETATM   36  C   UNL     1     -12.621  15.960  71.366  1.00  0.00    -0.381 C  
HETATM   37  O   UNL     1     -11.762  16.477  72.380  1.00  0.00    -0.507 OA 
HETATM   38  H   UNL     1     -11.184  17.150  72.040  1.00  0.00     0.000 HD 
ENDBRANCH  33  36
ENDBRANCH  32  33
ENDBRANCH  31  32
ENDBRANCH  15  28
ENDBRANCH   5   8
BRANCH   6  39
HETATM   39  C   UNL     1      -8.680  13.016  65.364  1.00  0.00     1.633 C  
HETATM   40  O   UNL     1      -8.675  12.200  64.197  1.00  0.00     0.380 OA 
HETATM   41  H   UNL     1      -8.454  12.680  63.407  1.00  0.00     0.000 HD 
ENDBRANCH   6  39
ENDBRANCH   4   5
ENDBRANCH   3   4
TORSDOF 12
ENDMDL
MODEL      168
REMARK 921   NORMALIZED FREE ENERGY PREDICTED BY IDOCK:    0.27 KCAL/MOL
REMARK 922        TOTAL FREE ENERGY PREDICTED BY IDOCK:    0.19 KCAL/MOL
REMARK 923 INTER-LIGAND FREE ENERGY PREDICTED BY IDOCK:   -4.89 KCAL/MOL
REMARK 924 INTRA-LIGAND FREE ENERGY PREDICTED BY IDOCK:    5.08 KCAL/MOL
REMARK 927      BINDING AFFINITY PREDICTED BY RF-SCORE:    0.00 PKD
ROOT
HETATM    1  O   UNL     1     -13.904  10.601  72.507  1.00  0.00    -0.405 OA 
HETATM    2  H   UNL     1     -13.916  10.241  73.386  1.00  0.00     0.000 HD 
HETATM    3  C   UNL     1     -13.158   9.776  71.625  1.00  0.00    -0.419 C  
ENDROOT
BRANCH   3   4
HETATM    4  C   UNL     1     -13.139  10.358  70.207  1.00  0.00     0.046 C  
BRANCH   4   5
HETATM    5  N   UNL     1     -12.073  11.352  69.942  1.00  0.00    -0.327 N  
HETATM    6  C   UNL     1     -11.989  12.608  70.550  1.00  0.00    -0.192 C  
HETATM    7  O   UNL     1     -10.990  13.337  70.439  1.00  0.00     0.645 OA 
BRANCH   5   8
HETATM    8  C   UNL     1     -10.941  10.915  69.163  1.00  0.00    -0.239 A  
HETATM    9  C   UNL     1     -10.753  11.357  67.823  1.00  0.00    -0.211 A  
HETATM   10  C   UNL     1     -10.039   9.969  69.705  1.00  0.00    -0.248 A  
HETATM   11  I   UNL     1     -12.110  12.865  67.029  1.00  0.00     0.238 I  
HETATM   12  C   UNL     1      -9.662  10.893  67.035  1.00  0.00    -0.203 A  
HETATM   13  I   UNL     1     -10.596   8.900  71.508  1.00  0.00    -0.410 I  
HETATM   14  I   UNL     1      -6.779   9.698  66.681  1.00  0.00    -0.083 I  
HETATM   15  C   UNL     1      -8.855   9.632  69.016  1.00  0.00    -0.147 A  
HETATM   16  C   UNL     1      -8.668  10.103  67.678  1.00  0.00    -0.121 A  
BRANCH  12  17
HETATM   17  C   UNL     1      -9.725  11.098  65.539  1.00  0.00    -0.228 C  
HETATM   18  N   UNL     1     -10.940  11.332  64.941  1.00  0.00    -0.224 N  
HETATM   19  H   UNL     1     -11.791  11.257  65.499  1.00  0.00     0.000 HD 
HETATM   20  O   UNL     1      -8.690  11.069  64.882  1.00  0.00    -0.121 OA 
BRANCH  18  21
HETATM   21  C   UNL     1     -11.045  11.685  63.524  1.00  0.00    -0.393 C  
BRANCH  21  22
HETATM   22  C   UNL     1     -11.334  13.183  63.377  1.00  0.00    -0.042 C  
HETATM   23  O   UNL     1     -12.735  13.371  63.124  1.00  0.00    -0.663 OA 
HETATM   24  H   UNL     1     -12.914  14.300  63.032  1.00  0.00     0.000 HD 
BRANCH  22  25
HETATM   25  C   UNL     1     -10.900  13.990  64.608  1.00  0.00    -0.403 C  
HETATM   26  H   UNL     1      -9.269  14.900  65.251  1.00  0.00     0.000 HD 
HETATM   27  O   UNL     1      -9.538  14.400  64.489  1.00  0.00     0.333 OA 
ENDBRANCH  22  25
ENDBRANCH  21  22
ENDBRANCH  18  21
ENDBRANCH  12  17
BRANCH  15  28
HETATM   28  C   UNL     1      -7.816   8.760  69.657  1.00  0.00    -0.090 C  
HETATM   29  O   UNL     1      -6.924   9.248  70.341  1.00  0.00    -0.062 OA 
HETATM   30  H   UNL     1      -8.666   6.999  68.892  1.00  0.00     0.000 HD 
HETATM   31  N   UNL     1      -7.911   7.391  69.455  1.00  0.00    -0.122 N  
BRANCH  31  32
HETATM   32  C   UNL     1      -6.910   6.523  70.063  1.00  0.00    -0.054 C  
BRANCH  32  33
HETATM   33  C   UNL     1      -6.580   5.289  69.215  1.00  0.00    -0.047 C  
HETATM   34  H   UNL     1      -7.553   3.714  68.543  1.00  0.00     0.000 HD 
HETATM   35  O   UNL     1      -7.757   4.479  69.068  1.00  0.00    -0.069 OA 
BRANCH  33  36
HETATM   36  C   UNL     1      -6.042   5.712  67.837  1.00  0.00    -0.025 C  
HETATM   37  O   UNL     1      -6.940   5.354  66.789  1.00  0.00    -0.062 OA 
HETATM   38  H   UNL     1      -6.607   5.616  65.938  1.00  0.00     0.000 HD 
ENDBRANCH  33  36
ENDBRANCH  32  33
ENDBRANCH  31  32
ENDBRANCH  15  28
ENDBRANCH   5   8
BRANCH   6  39
HETATM   39  C   UNL     1     -13.168  13.079  71.415  1.00  0.00    -0.192 C  
HETATM   40  O   UNL     1     -13.502  14.448  71.208  1.00  0.00    -0.354 OA 
HETATM   41  H   UNL     1     -14.231  14.739  71.743  1.00  0.00     0.000 HD 
ENDBRANCH   6  39
ENDBRANCH   4   5
ENDBRANCH   3   4
TORSDOF 12
ENDMDL
MODEL      169
REMARK 921   NORMALIZED FREE ENERGY PREDICTED BY IDOCK:    0.30 KCAL/MOL
REMARK 922        TOTAL FREE ENERGY PREDICTED BY IDOCK:    0.24 KCAL/MOL
REMARK 923 INTER-LIGAND FREE ENERGY PREDICTED BY IDOCK:   -3.51 KCAL/MOL
REMARK 924 INTRA-LIGAND FREE ENERGY PREDICTED BY IDOCK:    3.75 KCAL/MOL
REMARK 927      BINDING AFFINITY PREDICTED BY RF-SCORE:    0.00 PKD
ROOT
HETATM    1  O   UNL     1      -8.826  20.616  66.386  1.00  0.00    -0.545 OA 
HETATM    2  H   UNL     1      -9.532  21.239  66.507  1.00  0.00     0.000 HD 
HETATM    3  C   UNL     1      -9.257  19.292  66.663  1.00  0.00    -0.338 C  
ENDROOT
BRANCH   3   4
HETATM    4  C   UNL     1      -8.116  18.287  66.468  1.00  0.00    -0.269 C  
BRANCH   4   5
HETATM    5  N   UNL     1      -7.605  17.656  67.707  1.00  0.00    -0.203 N  
HETATM    6  C   UNL     1      -6.674  18.241  68.571  1.00  0.00    -0.238 C  
HETATM    7  O   UNL     1      -6.407  17.763  69.685  1.00  0.00    -0.241 OA 
BRANCH   5   8
HETATM    8  C   UNL     1      -8.264  16.455  68.157  1.00  0.00    -0.170 A  
HETATM    9  C   UNL     1      -9.514  16.509  68.835  1.00  0.00    -0.260 A  
HETATM   10  C   UNL     1      -7.625  15.202  67.996  1.00  0.00    -0.120 A  
HETATM   11  I   UNL     1     -10.514  18.437  69.011  1.00  0.00     0.862 I  
HETATM   12  C   UNL     1     -10.147  15.330  69.321  1.00  0.00    -0.252 A  
HETATM   13  I   UNL     1      -5.524  15.154  67.461  1.00  0.00     0.528 I  
HETATM   14  I   UNL     1     -10.682  12.235  69.302  1.00  0.00     0.340 I  
HETATM   15  C   UNL     1      -8.308  14.006  68.304  1.00  0.00    -0.162 A  
HETATM   16  C   UNL     1      -9.576  14.077  68.964  1.00  0.00     0.090 A  
BRANCH  12  17
HETATM   17  C   UNL     1     -11.255  15.482  70.336  1.00  0.00    -0.337 C  
HETATM   18  N   UNL     1     -12.478  14.903  70.091  1.00  0.00    -0.463 N  
HETATM   19  H   UNL     1     -12.651  14.472  69.182  1.00  0.00     0.000 HD 
HETATM   20  O   UNL     1     -11.044  16.104  71.371  1.00  0.00    -0.178 OA 
BRANCH  18  21
HETATM   21  C   UNL     1     -13.538  14.888  71.100  1.00  0.00    -0.403 C  
BRANCH  21  22
HETATM   22  C   UNL     1     -13.603  13.512  71.772  1.00  0.00    -0.350 C  
HETATM   23  O   UNL     1     -12.512  12.705  71.305  1.00  0.00    -0.309 OA 
HETATM   24  H   UNL     1     -12.552  11.852  71.721  1.00  0.00     0.000 HD 
BRANCH  22  25
HETATM   25  C   UNL     1     -13.583  13.604  73.304  1.00  0.00     1.220 C  
HETATM   26  H   UNL     1     -12.581  14.593  74.690  1.00  0.00     0.000 HD 
HETATM   27  O   UNL     1     -12.594  14.536  73.742  1.00  0.00    -0.427 OA 
ENDBRANCH  22  25
ENDBRANCH  21  22
ENDBRANCH  18  21
ENDBRANCH  12  17
BRANCH  15  28
HETATM   28  C   UNL     1      -7.703  12.672  67.981  1.00  0.00    -0.139 C  
HETATM   29  O   UNL     1      -6.613  12.351  68.442  1.00  0.00    -0.056 OA 
HETATM   30  H   UNL     1      -9.335  12.098  66.792  1.00  0.00     0.000 HD 
HETATM   31  N   UNL     1      -8.424  11.820  67.158  1.00  0.00    -0.163 N  
BRANCH  31  32
HETATM   32  C   UNL     1      -7.854  10.520  66.825  1.00  0.00    -0.121 C  
BRANCH  32  33
HETATM   33  C   UNL     1      -7.762   9.572  68.028  1.00  0.00    -0.087 C  
HETATM   34  H   UNL     1      -9.009   8.461  69.071  1.00  0.00     0.000 HD 
HETATM   35  O   UNL     1      -9.065   9.049  68.327  1.00  0.00    -0.133 OA 
BRANCH  33  36
HETATM   36  C   UNL     1      -6.775   8.429  67.737  1.00  0.00    -0.066 C  
HETATM   37  O   UNL     1      -5.555   8.915  67.182  1.00  0.00    -0.040 OA 
HETATM   38  H   UNL     1      -4.945   8.208  67.002  1.00  0.00     0.000 HD 
ENDBRANCH  33  36
ENDBRANCH  32  33
ENDBRANCH  31  32
ENDBRANCH  15  28
ENDBRANCH   5   8
BRANCH   6  39
HETATM   39  C   UNL     1      -5.987  19.542  68.128  1.00  0.00    -0.212 C  
HETATM   40  O   UNL     1      -6.425  20.683  68.859  1.00  0.00    -0.264 OA 
HETATM   41  H   UNL     1      -5.999  21.487  68.584  1.00  0.00     0.000 HD 
ENDBRANCH   6  39
ENDBRANCH   4   5
ENDBRANCH   3   4
TORSDOF 12
ENDMDL
MODEL      170
REMARK 921   NORMALIZED FREE ENERGY PREDICTED BY IDOCK:    0.31 KCAL/MOL
REMARK 922        TOTAL FREE ENERGY PREDICTED BY IDOCK:    0.25 KCAL/MOL
REMARK 923 INTER-LIGAND FREE ENERGY PREDICTED BY IDOCK:   -1.29 KCAL/MOL
REMARK 924 INTRA-LIGAND FREE ENERGY PREDICTED BY IDOCK:    1.54 KCAL/MOL
REMARK 927      BINDING AFFINITY PREDICTED BY RF-SCORE:    0.00 PKD
ROOT
HETATM    1  O   UNL     1     -10.846  14.743  73.018  1.00  0.00     0.650 OA 
HETATM    2  H   UNL     1     -11.256  14.242  73.713  1.00  0.00     0.000 HD 
HETATM    3  C   UNL     1     -11.802  15.156  72.053  1.00  0.00    -0.416 C  
ENDROOT
BRANCH   3   4
HETATM    4  C   UNL     1     -11.141  15.965  70.931  1.00  0.00    -0.279 C  
BRANCH   4   5
HETATM    5  N   UNL     1     -11.101  15.301  69.607  1.00  0.00    -0.257 N  
HETATM    6  C   UNL     1     -12.213  15.107  68.782  1.00  0.00    -0.069 C  
HETATM    7  O   UNL     1     -12.112  14.711  67.610  1.00  0.00    -0.333 OA 
BRANCH   5   8
HETATM    8  C   UNL     1      -9.802  15.024  69.046  1.00  0.00    -0.236 A  
HETATM    9  C   UNL     1      -8.957  16.074  68.589  1.00  0.00    -0.210 A  
HETATM   10  C   UNL     1      -9.385  13.683  68.870  1.00  0.00     0.154 A  
HETATM   11  I   UNL     1      -9.584  18.132  68.931  1.00  0.00    -0.037 I  
HETATM   12  C   UNL     1      -7.693  15.804  67.993  1.00  0.00    -0.136 A  
HETATM   13  I   UNL     1     -10.848  12.094  69.061  1.00  0.00    -0.039 I  
HETATM   14  I   UNL     1      -5.154  14.017  67.514  1.00  0.00     0.699 I  
HETATM   15  C   UNL     1      -8.069  13.391  68.452  1.00  0.00    -0.138 A  
HETATM   16  C   UNL     1      -7.222  14.461  68.018  1.00  0.00    -0.141 A  
BRANCH  12  17
HETATM   17  C   UNL     1      -7.025  16.906  67.205  1.00  0.00    -0.166 C  
HETATM   18  N   UNL     1      -5.923  17.538  67.732  1.00  0.00    -0.147 N  
HETATM   19  H   UNL     1      -5.640  17.329  68.689  1.00  0.00     0.000 HD 
HETATM   20  O   UNL     1      -7.462  17.209  66.101  1.00  0.00    -0.296 OA 
BRANCH  18  21
HETATM   21  C   UNL     1      -5.147  18.505  66.954  1.00  0.00    -0.127 C  
BRANCH  21  22
HETATM   22  C   UNL     1      -5.836  19.874  66.980  1.00  0.00    -0.172 C  
HETATM   23  O   UNL     1      -5.471  20.564  68.185  1.00  0.00    -0.211 OA 
HETATM   24  H   UNL     1      -5.898  21.412  68.201  1.00  0.00     0.000 HD 
BRANCH  22  25
HETATM   25  C   UNL     1      -5.494  20.728  65.751  1.00  0.00    -0.206 C  
HETATM   26  H   UNL     1      -5.119  20.435  63.834  1.00  0.00     0.000 HD 
HETATM   27  O   UNL     1      -5.330  19.907  64.594  1.00  0.00    -0.157 OA 
ENDBRANCH  22  25
ENDBRANCH  21  22
ENDBRANCH  18  21
ENDBRANCH  12  17
BRANCH  15  28
HETATM   28  C   UNL     1      -7.568  11.978  68.423  1.00  0.00    -0.128 C  
HETATM   29  O   UNL     1      -6.905  11.530  69.351  1.00  0.00    -0.111 OA 
HETATM   30  H   UNL     1      -8.455  11.587  66.561  1.00  0.00     0.000 HD 
HETATM   31  N   UNL     1      -7.893  11.202  67.320  1.00  0.00    -0.130 N  
BRANCH  31  32
HETATM   32  C   UNL     1      -7.413   9.826  67.267  1.00  0.00    -0.088 C  
BRANCH  32  33
HETATM   33  C   UNL     1      -7.696   9.136  65.927  1.00  0.00    -0.095 C  
HETATM   34  H   UNL     1      -9.146   9.140  64.595  1.00  0.00     0.000 HD 
HETATM   35  O   UNL     1      -8.970   9.568  65.425  1.00  0.00    -0.173 OA 
BRANCH  33  36
HETATM   36  C   UNL     1      -6.582   9.451  64.914  1.00  0.00    -0.082 C  
HETATM   37  O   UNL     1      -6.536  10.841  64.597  1.00  0.00    -0.363 OA 
HETATM   38  H   UNL     1      -5.848  11.035  63.971  1.00  0.00     0.000 HD 
ENDBRANCH  33  36
ENDBRANCH  32  33
ENDBRANCH  31  32
ENDBRANCH  15  28
ENDBRANCH   5   8
BRANCH   6  39
HETATM   39  C   UNL     1     -13.604  15.431  69.346  1.00  0.00     2.300 C  
HETATM   40  O   UNL     1     -13.989  14.570  70.413  1.00  0.00    -0.155 OA 
HETATM   41  H   UNL     1     -14.851  14.771  70.762  1.00  0.00     0.000 HD 
ENDBRANCH   6  39
ENDBRANCH   4   5
ENDBRANCH   3   4
TORSDOF 12
ENDMDL
MODEL      171
REMARK 921   NORMALIZED FREE ENERGY PREDICTED BY IDOCK:    0.32 KCAL/MOL
REMARK 922        TOTAL FREE ENERGY PREDICTED BY IDOCK:    0.27 KCAL/MOL
REMARK 923 INTER-LIGAND FREE ENERGY PREDICTED BY IDOCK:   -2.48 KCAL/MOL
REMARK 924 INTRA-LIGAND FREE ENERGY PREDICTED BY IDOCK:    2.75 KCAL/MOL
REMARK 927      BINDING AFFINITY PREDICTED BY RF-SCORE:    0.00 PKD
ROOT
HETATM    1  O   UNL     1      -7.470  19.769  65.276  1.00  0.00    -0.378 OA 
HETATM    2  H   UNL     1      -7.422  19.501  64.366  1.00  0.00     0.000 HD 
HETATM    3  C   UNL     1      -7.376  18.651  66.146  1.00  0.00    -0.259 C  
ENDROOT
BRANCH   3   4
HETATM    4  C   UNL     1      -7.454  19.085  67.614  1.00  0.00    -0.229 C  
BRANCH   4   5
HETATM    5  N   UNL     1      -7.064  18.054  68.604  1.00  0.00    -0.258 N  
HETATM    6  C   UNL     1      -6.043  18.205  69.548  1.00  0.00    -0.248 C  
HETATM    7  O   UNL     1      -5.865  17.395  70.471  1.00  0.00    -0.152 OA 
BRANCH   5   8
HETATM    8  C   UNL     1      -7.927  16.906  68.737  1.00  0.00    -0.254 A  
HETATM    9  C   UNL     1      -7.539  15.631  68.237  1.00  0.00    -0.119 A  
HETATM   10  C   UNL     1      -9.215  17.058  69.302  1.00  0.00     0.042 A  
HETATM   11  I   UNL     1      -5.526  15.400  67.436  1.00  0.00     0.633 I  
HETATM   12  C   UNL     1      -8.405  14.505  68.326  1.00  0.00    -0.152 A  
HETATM   13  I   UNL     1     -10.015  19.056  69.572  1.00  0.00     0.869 I  
HETATM   14  I   UNL     1     -10.776  12.897  69.613  1.00  0.00     1.076 I  
HETATM   15  C   UNL     1     -10.019  15.929  69.565  1.00  0.00    -0.274 A  
HETATM   16  C   UNL     1      -9.605  14.649  69.078  1.00  0.00    -0.145 A  
BRANCH  12  17
HETATM   17  C   UNL     1      -8.101  13.302  67.464  1.00  0.00    -0.186 C  
HETATM   18  N   UNL     1      -9.132  12.646  66.835  1.00  0.00    -0.214 N  
HETATM   19  H   UNL     1     -10.094  12.915  67.044  1.00  0.00     0.000 HD 
HETATM   20  O   UNL     1      -6.938  12.937  67.324  1.00  0.00    -0.145 OA 
BRANCH  18  21
HETATM   21  C   UNL     1      -8.885  11.571  65.871  1.00  0.00    -0.105 C  
BRANCH  21  22
HETATM   22  C   UNL     1      -9.680  11.826  64.586  1.00  0.00    -0.149 C  
HETATM   23  O   UNL     1      -8.796  12.336  63.576  1.00  0.00    -0.033 OA 
HETATM   24  H   UNL     1      -9.288  12.494  62.779  1.00  0.00     0.000 HD 
BRANCH  22  25
HETATM   25  C   UNL     1     -10.401  10.569  64.081  1.00  0.00    -0.098 C  
HETATM   26  H   UNL     1      -9.908   8.767  63.440  1.00  0.00     0.000 HD 
HETATM   27  O   UNL     1      -9.462   9.545  63.752  1.00  0.00    -0.054 OA 
ENDBRANCH  22  25
ENDBRANCH  21  22
ENDBRANCH  18  21
ENDBRANCH  12  17
BRANCH  15  28
HETATM   28  C   UNL     1     -11.312  16.065  70.313  1.00  0.00    -0.382 C  
HETATM   29  O   UNL     1     -11.345  16.604  71.413  1.00  0.00    -0.200 OA 
HETATM   30  H   UNL     1     -12.417  15.135  68.789  1.00  0.00     0.000 HD 
HETATM   31  N   UNL     1     -12.460  15.571  69.710  1.00  0.00    -0.245 N  
BRANCH  31  32
HETATM   32  C   UNL     1     -13.728  15.687  70.421  1.00  0.00     0.765 C  
BRANCH  32  33
HETATM   33  C   UNL     1     -14.067  14.451  71.264  1.00  0.00    -0.209 C  
HETATM   34  H   UNL     1     -13.378  12.616  71.452  1.00  0.00     0.000 HD 
HETATM   35  O   UNL     1     -13.168  13.382  70.929  1.00  0.00    -0.114 OA 
BRANCH  33  36
HETATM   36  C   UNL     1     -13.976  14.782  72.763  1.00  0.00    -0.197 C  
HETATM   37  O   UNL     1     -13.676  16.159  72.981  1.00  0.00    -0.535 OA 
HETATM   38  H   UNL     1     -13.620  16.363  73.908  1.00  0.00     0.000 HD 
ENDBRANCH  33  36
ENDBRANCH  32  33
ENDBRANCH  31  32
ENDBRANCH  15  28
ENDBRANCH   5   8
BRANCH   6  39
HETATM   39  C   UNL     1      -5.135  19.440  69.447  1.00  0.00    -0.175 C  
HETATM   40  O   UNL     1      -5.807  20.655  69.761  1.00  0.00    -0.357 OA 
HETATM   41  H   UNL     1      -5.245  21.419  69.699  1.00  0.00     0.000 HD 
ENDBRANCH   6  39
ENDBRANCH   4   5
ENDBRANCH   3   4
TORSDOF 12
ENDMDL
MODEL      172
REMARK 921   NORMALIZED FREE ENERGY PREDICTED BY IDOCK:    0.44 KCAL/MOL
REMARK 922        TOTAL FREE ENERGY PREDICTED BY IDOCK:    0.48 KCAL/MOL
REMARK 923 INTER-LIGAND FREE ENERGY PREDICTED BY IDOCK:   -4.10 KCAL/MOL
REMARK 924 INTRA-LIGAND FREE ENERGY PREDICTED BY IDOCK:    4.57 KCAL/MOL
REMARK 927      BINDING AFFINITY PREDICTED BY RF-SCORE:    0.00 PKD
ROOT
HETATM    1  O   UNL     1     -11.984   9.427  71.870  1.00  0.00    -0.369 OA 
HETATM    2  H   UNL     1     -12.485   9.903  72.522  1.00  0.00     0.000 HD 
HETATM    3  C   UNL     1     -12.088  10.042  70.594  1.00  0.00    -0.292 C  
ENDROOT
BRANCH   3   4
HETATM    4  C   UNL     1     -11.280   9.274  69.542  1.00  0.00     0.004 C  
BRANCH   4   5
HETATM    5  N   UNL     1     -10.072   9.967  69.038  1.00  0.00    -0.179 N  
HETATM    6  C   UNL     1      -9.885  11.352  69.054  1.00  0.00    -0.037 C  
HETATM    7  O   UNL     1      -8.793  11.881  68.790  1.00  0.00    -0.084 OA 
BRANCH   5   8
HETATM    8  C   UNL     1      -8.933   9.148  68.699  1.00  0.00    -0.136 A  
HETATM    9  C   UNL     1      -8.212   8.438  69.699  1.00  0.00    -0.117 A  
HETATM   10  C   UNL     1      -8.472   9.107  67.362  1.00  0.00    -0.115 A  
HETATM   11  I   UNL     1      -8.978   8.456  71.739  1.00  0.00    -0.290 I  
HETATM   12  C   UNL     1      -7.061   7.665  69.377  1.00  0.00    -0.075 A  
HETATM   13  I   UNL     1      -9.215  10.573  65.948  1.00  0.00    -0.267 I  
HETATM   14  I   UNL     1      -5.276   6.003  67.398  1.00  0.00    -0.005 I  
HETATM   15  C   UNL     1      -7.449   8.211  66.985  1.00  0.00    -0.088 A  
HETATM   16  C   UNL     1      -6.748   7.485  68.000  1.00  0.00    -0.059 A  
BRANCH  12  17
HETATM   17  C   UNL     1      -6.141   7.252  70.501  1.00  0.00    -0.031 C  
HETATM   18  N   UNL     1      -6.214   5.972  70.997  1.00  0.00    -0.038 N  
HETATM   19  H   UNL     1      -6.959   5.355  70.673  1.00  0.00     0.000 HD 
HETATM   20  O   UNL     1      -5.329   8.058  70.944  1.00  0.00    -0.026 OA 
BRANCH  18  21
HETATM   21  C   UNL     1      -5.250   5.471  71.978  1.00  0.00    -0.016 C  
BRANCH  21  22
HETATM   22  C   UNL     1      -5.936   5.272  73.334  1.00  0.00    -0.031 C  
HETATM   23  O   UNL     1      -5.812   6.475  74.108  1.00  0.00    -0.060 OA 
HETATM   24  H   UNL     1      -6.237   6.351  74.949  1.00  0.00     0.000 HD 
BRANCH  22  25
HETATM   25  C   UNL     1      -7.412   4.876  73.194  1.00  0.00    -0.088 C  
HETATM   26  H   UNL     1      -8.565   3.355  73.700  1.00  0.00     0.000 HD 
HETATM   27  O   UNL     1      -7.652   3.600  73.787  1.00  0.00    -0.063 OA 
ENDBRANCH  22  25
ENDBRANCH  21  22
ENDBRANCH  18  21
ENDBRANCH  12  17
BRANCH  15  28
HETATM   28  C   UNL     1      -7.069   8.042  65.544  1.00  0.00    -0.060 C  
HETATM   29  O   UNL     1      -5.891   8.011  65.206  1.00  0.00    -0.040 OA 
HETATM   30  H   UNL     1      -9.070   7.929  64.917  1.00  0.00     0.000 HD 
HETATM   31  N   UNL     1      -8.095   7.913  64.619  1.00  0.00    -0.141 N  
BRANCH  31  32
HETATM   32  C   UNL     1      -7.750   7.752  63.211  1.00  0.00    -0.135 C  
BRANCH  32  33
HETATM   33  C   UNL     1      -7.989   9.019  62.380  1.00  0.00    -0.131 C  
HETATM   34  H   UNL     1      -9.277  10.509  62.382  1.00  0.00     0.000 HD 
HETATM   35  O   UNL     1      -9.129   9.724  62.896  1.00  0.00    -0.250 OA 
BRANCH  33  36
HETATM   36  C   UNL     1      -6.743   9.920  62.403  1.00  0.00    -0.110 C  
HETATM   37  O   UNL     1      -6.684  10.707  63.590  1.00  0.00    -0.351 OA 
HETATM   38  H   UNL     1      -5.914  11.264  63.604  1.00  0.00     0.000 HD 
ENDBRANCH  33  36
ENDBRANCH  32  33
ENDBRANCH  31  32
ENDBRANCH  15  28
ENDBRANCH   5   8
BRANCH   6  39
HETATM   39  C   UNL     1     -11.073  12.242  69.448  1.00  0.00    -0.101 C  
HETATM   40  O   UNL     1     -12.271  11.917  68.751  1.00  0.00    -0.318 OA 
HETATM   41  H   UNL     1     -13.006  12.468  68.995  1.00  0.00     0.000 HD 
ENDBRANCH   6  39
ENDBRANCH   4   5
ENDBRANCH   3   4
TORSDOF 12
ENDMDL
MODEL      173
REMARK 921   NORMALIZED FREE ENERGY PREDICTED BY IDOCK:    0.47 KCAL/MOL
REMARK 922        TOTAL FREE ENERGY PREDICTED BY IDOCK:    0.52 KCAL/MOL
REMARK 923 INTER-LIGAND FREE ENERGY PREDICTED BY IDOCK:   -2.50 KCAL/MOL
REMARK 924 INTRA-LIGAND FREE ENERGY PREDICTED BY IDOCK:    3.02 KCAL/MOL
REMARK 927      BINDING AFFINITY PREDICTED BY RF-SCORE:    0.00 PKD
ROOT
HETATM    1  O   UNL     1      -7.864   7.274  71.636  1.00  0.00    -0.090 OA 
HETATM    2  H   UNL     1      -8.594   7.138  72.228  1.00  0.00     0.000 HD 
HETATM    3  C   UNL     1      -7.837   8.608  71.152  1.00  0.00    -0.117 C  
ENDROOT
BRANCH   3   4
HETATM    4  C   UNL     1      -6.657   8.826  70.197  1.00  0.00    -0.039 C  
BRANCH   4   5
HETATM    5  N   UNL     1      -6.611  10.150  69.535  1.00  0.00    -0.052 N  
HETATM    6  C   UNL     1      -5.886  11.249  70.006  1.00  0.00    -0.118 C  
HETATM    7  O   UNL     1      -5.728  12.281  69.335  1.00  0.00    -0.072 OA 
BRANCH   5   8
HETATM    8  C   UNL     1      -7.182  10.250  68.214  1.00  0.00    -0.083 A  
HETATM    9  C   UNL     1      -6.699   9.450  67.141  1.00  0.00    -0.076 A  
HETATM   10  C   UNL     1      -8.186  11.212  67.955  1.00  0.00    -0.121 A  
HETATM   11  I   UNL     1      -5.203   7.926  67.574  1.00  0.00    -0.034 I  
HETATM   12  C   UNL     1      -7.228   9.576  65.825  1.00  0.00    -0.097 A  
HETATM   13  I   UNL     1      -8.549  12.773  69.415  1.00  0.00     2.133 I  
HETATM   14  I   UNL     1      -9.489  10.342  63.784  1.00  0.00    -0.155 I  
HETATM   15  C   UNL     1      -8.852  11.234  66.710  1.00  0.00    -0.170 A  
HETATM   16  C   UNL     1      -8.370  10.407  65.647  1.00  0.00    -0.163 A  
BRANCH  12  17
HETATM   17  C   UNL     1      -6.439   8.987  64.679  1.00  0.00    -0.070 C  
HETATM   18  N   UNL     1      -6.960   7.926  63.978  1.00  0.00    -0.061 N  
HETATM   19  H   UNL     1      -7.818   7.484  64.308  1.00  0.00     0.000 HD 
HETATM   20  O   UNL     1      -5.355   9.475  64.380  1.00  0.00    -0.057 OA 
BRANCH  18  21
HETATM   21  C   UNL     1      -6.314   7.412  62.768  1.00  0.00    -0.054 C  
BRANCH  21  22
HETATM   22  C   UNL     1      -5.481   6.171  63.105  1.00  0.00    -0.018 C  
HETATM   23  O   UNL     1      -5.143   6.191  64.500  1.00  0.00    -0.013 OA 
HETATM   24  H   UNL     1      -4.627   5.422  64.709  1.00  0.00     0.000 HD 
BRANCH  22  25
HETATM   25  C   UNL     1      -6.204   4.864  62.749  1.00  0.00    -0.021 C  
HETATM   26  H   UNL     1      -7.617   3.724  63.526  1.00  0.00     0.000 HD 
HETATM   27  O   UNL     1      -7.170   4.533  63.746  1.00  0.00    -0.048 OA 
ENDBRANCH  22  25
ENDBRANCH  21  22
ENDBRANCH  18  21
ENDBRANCH  12  17
BRANCH  15  28
HETATM   28  C   UNL     1     -10.027  12.138  66.485  1.00  0.00    -0.213 C  
HETATM   29  O   UNL     1     -11.117  11.679  66.164  1.00  0.00    -0.301 OA 
HETATM   30  H   UNL     1      -8.925  13.865  66.941  1.00  0.00     0.000 HD 
HETATM   31  N   UNL     1      -9.835  13.500  66.663  1.00  0.00    -0.272 N  
BRANCH  31  32
HETATM   32  C   UNL     1     -10.962  14.400  66.445  1.00  0.00    -0.319 C  
BRANCH  32  33
HETATM   33  C   UNL     1     -11.208  14.716  64.964  1.00  0.00    -0.386 C  
HETATM   34  H   UNL     1     -10.246  14.451  63.267  1.00  0.00     0.000 HD 
HETATM   35  O   UNL     1     -10.093  14.256  64.184  1.00  0.00     0.225 OA 
BRANCH  33  36
HETATM   36  C   UNL     1     -12.512  14.057  64.483  1.00  0.00    -0.308 C  
HETATM   37  O   UNL     1     -12.380  13.528  63.166  1.00  0.00    -0.968 OA 
HETATM   38  H   UNL     1     -13.185  13.121  62.869  1.00  0.00     0.000 HD 
ENDBRANCH  33  36
ENDBRANCH  32  33
ENDBRANCH  31  32
ENDBRANCH  15  28
ENDBRANCH   5   8
BRANCH   6  39
HETATM   39  C   UNL     1      -5.238  11.152  71.396  1.00  0.00    -0.027 C  
HETATM   40  O   UNL     1      -5.138  12.410  72.056  1.00  0.00    -0.337 OA 
HETATM   41  H   UNL     1      -4.737  12.350  72.915  1.00  0.00     0.000 HD 
ENDBRANCH   6  39
ENDBRANCH   4   5
ENDBRANCH   3   4
TORSDOF 12
ENDMDL
MODEL      174
REMARK 921   NORMALIZED FREE ENERGY PREDICTED BY IDOCK:    0.54 KCAL/MOL
REMARK 922        TOTAL FREE ENERGY PREDICTED BY IDOCK:    0.64 KCAL/MOL
REMARK 923 INTER-LIGAND FREE ENERGY PREDICTED BY IDOCK:   -5.87 KCAL/MOL
REMARK 924 INTRA-LIGAND FREE ENERGY PREDICTED BY IDOCK:    6.50 KCAL/MOL
REMARK 927      BINDING AFFINITY PREDICTED BY RF-SCORE:    0.00 PKD
ROOT
HETATM    1  O   UNL     1     -14.306   8.994  70.290  1.00  0.00     0.246 OA 
HETATM    2  H   UNL     1     -14.084   8.102  70.051  1.00  0.00     0.000 HD 
HETATM    3  C   UNL     1     -13.242   9.615  70.996  1.00  0.00    -0.232 C  
ENDROOT
BRANCH   3   4
HETATM    4  C   UNL     1     -13.600  11.055  71.381  1.00  0.00     0.317 C  
BRANCH   4   5
HETATM    5  N   UNL     1     -12.689  12.099  70.858  1.00  0.00    -0.249 N  
HETATM    6  C   UNL     1     -12.456  13.333  71.473  1.00  0.00    -0.125 C  
HETATM    7  O   UNL     1     -11.556  14.103  71.103  1.00  0.00    -0.147 OA 
BRANCH   5   8
HETATM    8  C   UNL     1     -11.832  11.736  69.756  1.00  0.00    -0.349 A  
HETATM    9  C   UNL     1     -10.976  10.602  69.830  1.00  0.00    -0.274 A  
HETATM   10  C   UNL     1     -11.778  12.562  68.608  1.00  0.00    -0.325 A  
HETATM   11  I   UNL     1     -11.124   9.304  71.574  1.00  0.00    -0.253 I  
HETATM   12  C   UNL     1     -10.096  10.264  68.763  1.00  0.00    -0.198 A  
HETATM   13  I   UNL     1     -12.654  14.543  68.695  1.00  0.00     1.454 I  
HETATM   14  I   UNL     1      -9.219  10.299  65.747  1.00  0.00    -0.283 I  
HETATM   15  C   UNL     1     -11.053  12.155  67.467  1.00  0.00    -0.328 A  
HETATM   16  C   UNL     1     -10.215  10.998  67.549  1.00  0.00    -0.188 A  
BRANCH  12  17
HETATM   17  C   UNL     1      -8.971   9.297  69.045  1.00  0.00    -0.140 C  
HETATM   18  N   UNL     1      -9.099   7.983  68.661  1.00  0.00    -0.140 N  
HETATM   19  H   UNL     1      -9.992   7.659  68.289  1.00  0.00     0.000 HD 
HETATM   20  O   UNL     1      -7.952   9.700  69.596  1.00  0.00    -0.106 OA 
BRANCH  18  21
HETATM   21  C   UNL     1      -7.987   7.037  68.771  1.00  0.00    -0.120 C  
BRANCH  21  22
HETATM   22  C   UNL     1      -8.328   5.942  69.786  1.00  0.00    -0.124 C  
HETATM   23  O   UNL     1      -7.608   6.184  71.004  1.00  0.00    -0.092 OA 
HETATM   24  H   UNL     1      -7.819   5.505  71.633  1.00  0.00     0.000 HD 
BRANCH  22  25
HETATM   25  C   UNL     1      -9.835   5.847  70.066  1.00  0.00    -0.175 C  
HETATM   26  H   UNL     1     -11.382   4.831  69.376  1.00  0.00     0.000 HD 
HETATM   27  O   UNL     1     -10.450   4.890  69.202  1.00  0.00    -0.126 OA 
ENDBRANCH  22  25
ENDBRANCH  21  22
ENDBRANCH  18  21
ENDBRANCH  12  17
BRANCH  15  28
HETATM   28  C   UNL     1     -11.126  12.941  66.191  1.00  0.00    -0.286 C  
HETATM   29  O   UNL     1     -11.791  12.537  65.245  1.00  0.00    -0.374 OA 
HETATM   30  H   UNL     1      -9.885  14.463  66.932  1.00  0.00     0.000 HD 
HETATM   31  N   UNL     1     -10.425  14.136  66.131  1.00  0.00    -0.289 N  
BRANCH  31  32
HETATM   32  C   UNL     1     -10.475  14.915  64.900  1.00  0.00    -0.359 C  
BRANCH  32  33
HETATM   33  C   UNL     1     -10.283  16.420  65.125  1.00  0.00     0.054 C  
HETATM   34  H   UNL     1     -11.168  18.078  64.539  1.00  0.00     0.000 HD 
HETATM   35  O   UNL     1     -11.287  17.146  64.399  1.00  0.00    -1.115 OA 
BRANCH  33  36
HETATM   36  C   UNL     1     -10.356  16.752  66.625  1.00  0.00    -0.297 C  
HETATM   37  O   UNL     1      -9.062  16.778  67.223  1.00  0.00    -0.215 OA 
HETATM   38  H   UNL     1      -9.108  16.983  68.150  1.00  0.00     0.000 HD 
ENDBRANCH  33  36
ENDBRANCH  32  33
ENDBRANCH  31  32
ENDBRANCH  15  28
ENDBRANCH   5   8
BRANCH   6  39
HETATM   39  C   UNL     1     -13.333  13.724  72.673  1.00  0.00    -0.514 C  
HETATM   40  O   UNL     1     -12.802  14.813  73.422  1.00  0.00    -0.515 OA 
HETATM   41  H   UNL     1     -13.344  15.055  74.164  1.00  0.00     0.000 HD 
ENDBRANCH   6  39
ENDBRANCH   4   5
ENDBRANCH   3   4
TORSDOF 12
ENDMDL
MODEL      175
REMARK 921   NORMALIZED FREE ENERGY PREDICTED BY IDOCK:    0.54 KCAL/MOL
REMARK 922        TOTAL FREE ENERGY PREDICTED BY IDOCK:    0.65 KCAL/MOL
REMARK 923 INTER-LIGAND FREE ENERGY PREDICTED BY IDOCK:   -2.71 KCAL/MOL
REMARK 924 INTRA-LIGAND FREE ENERGY PREDICTED BY IDOCK:    3.36 KCAL/MOL
REMARK 927      BINDING AFFINITY PREDICTED BY RF-SCORE:    0.00 PKD
ROOT
HETATM    1  O   UNL     1     -11.348   8.359  68.214  1.00  0.00    -0.115 OA 
HETATM    2  H   UNL     1     -12.149   7.963  68.537  1.00  0.00     0.000 HD 
HETATM    3  C   UNL     1     -11.035   7.891  66.910  1.00  0.00     0.252 C  
ENDROOT
BRANCH   3   4
HETATM    4  C   UNL     1      -9.742   8.529  66.390  1.00  0.00    -0.258 C  
BRANCH   4   5
HETATM    5  N   UNL     1      -8.487   7.911  66.877  1.00  0.00    -0.125 N  
HETATM    6  C   UNL     1      -7.705   7.014  66.142  1.00  0.00    -0.095 C  
HETATM    7  O   UNL     1      -6.575   6.658  66.510  1.00  0.00    -0.042 OA 
BRANCH   5   8
HETATM    8  C   UNL     1      -7.929   8.426  68.103  1.00  0.00    -0.119 A  
HETATM    9  C   UNL     1      -7.822   7.610  69.264  1.00  0.00    -0.121 A  
HETATM   10  C   UNL     1      -7.552   9.788  68.185  1.00  0.00    -0.082 A  
HETATM   11  I   UNL     1      -8.341   5.501  69.100  1.00  0.00    -0.097 I  
HETATM   12  C   UNL     1      -7.314   8.126  70.490  1.00  0.00    -0.056 A  
HETATM   13  I   UNL     1      -8.192  11.152  66.625  1.00  0.00    -0.126 I  
HETATM   14  I   UNL     1      -5.599  10.149  72.173  1.00  0.00     0.643 I  
HETATM   15  C   UNL     1      -6.880  10.277  69.326  1.00  0.00    -0.068 A  
HETATM   16  C   UNL     1      -6.759   9.437  70.478  1.00  0.00    -0.087 A  
BRANCH  12  17
HETATM   17  C   UNL     1      -7.570   7.342  71.755  1.00  0.00    -0.086 C  
HETATM   18  N   UNL     1      -8.267   6.159  71.685  1.00  0.00    -0.117 N  
HETATM   19  H   UNL     1      -8.693   5.884  70.800  1.00  0.00     0.000 HD 
HETATM   20  O   UNL     1      -7.138   7.761  72.823  1.00  0.00    -0.068 OA 
BRANCH  18  21
HETATM   21  C   UNL     1      -8.415   5.284  72.849  1.00  0.00    -0.116 C  
BRANCH  21  22
HETATM   22  C   UNL     1      -9.900   5.021  73.123  1.00  0.00    -0.153 C  
HETATM   23  O   UNL     1     -10.687   6.024  72.464  1.00  0.00    -0.206 OA 
HETATM   24  H   UNL     1     -11.608   5.861  72.634  1.00  0.00     0.000 HD 
BRANCH  22  25
HETATM   25  C   UNL     1     -10.341   3.619  72.681  1.00  0.00    -0.147 C  
HETATM   26  H   UNL     1      -9.775   2.265  71.359  1.00  0.00     0.000 HD 
HETATM   27  O   UNL     1      -9.502   3.132  71.633  1.00  0.00    -0.120 OA 
ENDBRANCH  22  25
ENDBRANCH  21  22
ENDBRANCH  18  21
ENDBRANCH  12  17
BRANCH  15  28
HETATM   28  C   UNL     1      -6.331  11.673  69.353  1.00  0.00    -0.106 C  
HETATM   29  O   UNL     1      -5.142  11.873  69.574  1.00  0.00    -0.060 OA 
HETATM   30  H   UNL     1      -8.195  12.532  68.915  1.00  0.00     0.000 HD 
HETATM   31  N   UNL     1      -7.211  12.716  69.109  1.00  0.00     0.010 N  
BRANCH  31  32
HETATM   32  C   UNL     1      -6.701  14.082  69.135  1.00  0.00    -0.112 C  
BRANCH  32  33
HETATM   33  C   UNL     1      -7.742  15.127  68.713  1.00  0.00    -0.143 C  
HETATM   34  H   UNL     1      -8.012  16.339  67.185  1.00  0.00     0.000 HD 
HETATM   35  O   UNL     1      -7.368  15.692  67.447  1.00  0.00    -0.166 OA 
BRANCH  33  36
HETATM   36  C   UNL     1      -9.139  14.489  68.627  1.00  0.00    -0.187 C  
HETATM   37  O   UNL     1     -10.129  15.440  68.243  1.00  0.00    -0.215 OA 
HETATM   38  H   UNL     1     -10.992  15.046  68.190  1.00  0.00     0.000 HD 
ENDBRANCH  33  36
ENDBRANCH  32  33
ENDBRANCH  31  32
ENDBRANCH  15  28
ENDBRANCH   5   8
BRANCH   6  39
HETATM   39  C   UNL     1      -8.264   6.480  64.814  1.00  0.00    -0.073 C  
HETATM   40  O   UNL     1      -8.819   5.174  64.925  1.00  0.00    -0.154 OA 
HETATM   41  H   UNL     1      -9.164   4.844  64.103  1.00  0.00     0.000 HD 
ENDBRANCH   6  39
ENDBRANCH   4   5
ENDBRANCH   3   4
TORSDOF 12
ENDMDL
MODEL      176
REMARK 921   NORMALIZED FREE ENERGY PREDICTED BY IDOCK:    0.72 KCAL/MOL
REMARK 922        TOTAL FREE ENERGY PREDICTED BY IDOCK:    0.94 KCAL/MOL
REMARK 923 INTER-LIGAND FREE ENERGY PREDICTED BY IDOCK:   -1.54 KCAL/MOL
REMARK 924 INTRA-LIGAND FREE ENERGY PREDICTED BY IDOCK:    2.48 KCAL/MOL
REMARK 927      BINDING AFFINITY PREDICTED BY RF-SCORE:    0.00 PKD
ROOT
HETATM    1  O   UNL     1     -11.331   9.955  66.864  1.00  0.00    -0.043 OA 
HETATM    2  H   UNL     1     -11.178   9.078  66.532  1.00  0.00     0.000 HD 
HETATM    3  C   UNL     1     -10.957  10.937  65.909  1.00  0.00     0.016 C  
ENDROOT
BRANCH   3   4
HETATM    4  C   UNL     1     -11.205  12.352  66.446  1.00  0.00    -0.319 C  
BRANCH   4   5
HETATM    5  N   UNL     1     -10.939  12.539  67.892  1.00  0.00    -0.218 N  
HETATM    6  C   UNL     1     -11.698  11.971  68.919  1.00  0.00    -0.326 C  
HETATM    7  O   UNL     1     -11.341  12.003  70.108  1.00  0.00    -0.103 OA 
BRANCH   5   8
HETATM    8  C   UNL     1      -9.699  13.178  68.258  1.00  0.00    -0.223 A  
HETATM    9  C   UNL     1      -9.598  14.595  68.347  1.00  0.00    -0.217 A  
HETATM   10  C   UNL     1      -8.538  12.394  68.458  1.00  0.00    -0.060 A  
HETATM   11  I   UNL     1     -11.410  15.781  68.105  1.00  0.00    -0.161 I  
HETATM   12  C   UNL     1      -8.365  15.233  68.664  1.00  0.00    -0.162 A  
HETATM   13  I   UNL     1      -8.545  10.323  67.816  1.00  0.00    -0.117 I  
HETATM   14  I   UNL     1      -5.499  15.292  69.946  1.00  0.00    -0.128 I  
HETATM   15  C   UNL     1      -7.353  12.982  68.949  1.00  0.00    -0.017 A  
HETATM   16  C   UNL     1      -7.274  14.407  69.055  1.00  0.00    -0.129 A  
BRANCH  12  17
HETATM   17  C   UNL     1      -8.233  16.710  68.380  1.00  0.00    -0.206 C  
HETATM   18  N   UNL     1      -7.728  17.121  67.170  1.00  0.00    -0.168 N  
HETATM   19  H   UNL     1      -7.351  16.425  66.526  1.00  0.00     0.000 HD 
HETATM   20  O   UNL     1      -8.593  17.523  69.226  1.00  0.00     0.022 OA 
BRANCH  18  21
HETATM   21  C   UNL     1      -7.716  18.533  66.780  1.00  0.00    -0.236 C  
BRANCH  21  22
HETATM   22  C   UNL     1      -9.145  19.014  66.509  1.00  0.00    -0.334 C  
HETATM   23  O   UNL     1      -9.100  20.206  65.710  1.00  0.00    -0.509 OA 
HETATM   24  H   UNL     1      -9.985  20.505  65.542  1.00  0.00     0.000 HD 
BRANCH  22  25
HETATM   25  C   UNL     1     -10.006  17.944  65.822  1.00  0.00     0.031 C  
HETATM   26  H   UNL     1     -11.404  17.874  64.429  1.00  0.00     0.000 HD 
HETATM   27  O   UNL     1     -10.871  18.536  64.854  1.00  0.00    -0.508 OA 
ENDBRANCH  22  25
ENDBRANCH  21  22
ENDBRANCH  18  21
ENDBRANCH  12  17
BRANCH  15  28
HETATM   28  C   UNL     1      -6.172  12.135  69.320  1.00  0.00    -0.097 C  
HETATM   29  O   UNL     1      -5.164  12.127  68.625  1.00  0.00    -0.050 OA 
HETATM   30  H   UNL     1      -7.106  11.404  71.053  1.00  0.00     0.000 HD 
HETATM   31  N   UNL     1      -6.264  11.377  70.479  1.00  0.00    -0.065 N  
BRANCH  31  32
HETATM   32  C   UNL     1      -5.130  10.541  70.858  1.00  0.00    -0.078 C  
BRANCH  32  33
HETATM   33  C   UNL     1      -5.509   9.405  71.816  1.00  0.00    -0.073 C  
HETATM   34  H   UNL     1      -5.999   9.240  73.716  1.00  0.00     0.000 HD 
HETATM   35  O   UNL     1      -5.764   9.944  73.122  1.00  0.00    -0.303 OA 
BRANCH  33  36
HETATM   36  C   UNL     1      -6.742   8.650  71.293  1.00  0.00    -0.072 C  
HETATM   37  O   UNL     1      -6.592   8.277  69.925  1.00  0.00    -0.038 OA 
HETATM   38  H   UNL     1      -7.354   7.811  69.602  1.00  0.00     0.000 HD 
ENDBRANCH  33  36
ENDBRANCH  32  33
ENDBRANCH  31  32
ENDBRANCH  15  28
ENDBRANCH   5   8
BRANCH   6  39
HETATM   39  C   UNL     1     -13.005  11.253  68.548  1.00  0.00     2.834 C  
HETATM   40  O   UNL     1     -13.224  10.066  69.302  1.00  0.00     0.517 OA 
HETATM   41  H   UNL     1     -14.033   9.622  69.072  1.00  0.00     0.000 HD 
ENDBRANCH   6  39
ENDBRANCH   4   5
ENDBRANCH   3   4
TORSDOF 12
ENDMDL
MODEL      177
REMARK 921   NORMALIZED FREE ENERGY PREDICTED BY IDOCK:    0.92 KCAL/MOL
REMARK 922        TOTAL FREE ENERGY PREDICTED BY IDOCK:    1.28 KCAL/MOL
REMARK 923 INTER-LIGAND FREE ENERGY PREDICTED BY IDOCK:   -5.60 KCAL/MOL
REMARK 924 INTRA-LIGAND FREE ENERGY PREDICTED BY IDOCK:    6.88 KCAL/MOL
REMARK 927      BINDING AFFINITY PREDICTED BY RF-SCORE:    0.00 PKD
ROOT
HETATM    1  O   UNL     1     -14.306   8.994  70.290  1.00  0.00     0.246 OA 
HETATM    2  H   UNL     1     -14.085   8.102  70.052  1.00  0.00     0.000 HD 
HETATM    3  C   UNL     1     -13.242   9.614  70.996  1.00  0.00    -0.232 C  
ENDROOT
BRANCH   3   4
HETATM    4  C   UNL     1     -13.599  11.055  71.382  1.00  0.00     0.317 C  
BRANCH   4   5
HETATM    5  N   UNL     1     -12.687  12.098  70.858  1.00  0.00    -0.249 N  
HETATM    6  C   UNL     1     -12.454  13.332  71.473  1.00  0.00    -0.125 C  
HETATM    7  O   UNL     1     -11.554  14.102  71.103  1.00  0.00    -0.147 OA 
BRANCH   5   8
HETATM    8  C   UNL     1     -11.829  11.734  69.757  1.00  0.00    -0.349 A  
HETATM    9  C   UNL     1     -10.973  10.600  69.833  1.00  0.00    -0.274 A  
HETATM   10  C   UNL     1     -11.775  12.558  68.608  1.00  0.00    -0.325 A  
HETATM   11  I   UNL     1     -11.122   9.304  71.579  1.00  0.00    -0.253 I  
HETATM   12  C   UNL     1     -10.092  10.262  68.767  1.00  0.00    -0.198 A  
HETATM   13  I   UNL     1     -12.653  14.539  68.693  1.00  0.00     1.454 I  
HETATM   14  I   UNL     1      -9.213  10.293  65.752  1.00  0.00    -0.283 I  
HETATM   15  C   UNL     1     -11.050  12.150  67.468  1.00  0.00    -0.328 A  
HETATM   16  C   UNL     1     -10.211  10.994  67.552  1.00  0.00    -0.188 A  
BRANCH  12  17
HETATM   17  C   UNL     1      -8.967   9.295  69.051  1.00  0.00    -0.140 C  
HETATM   18  N   UNL     1      -8.057   9.591  70.038  1.00  0.00    -0.148 N  
HETATM   19  H   UNL     1      -8.092  10.505  70.489  1.00  0.00     0.000 HD 
HETATM   20  O   UNL     1      -8.890   8.253  68.409  1.00  0.00    -0.136 OA 
BRANCH  18  21
HETATM   21  C   UNL     1      -7.038   8.628  70.458  1.00  0.00    -0.044 C  
BRANCH  21  22
HETATM   22  C   UNL     1      -5.641   9.159  70.119  1.00  0.00    -0.031 C  
HETATM   23  O   UNL     1      -5.135   8.461  68.971  1.00  0.00    -0.030 OA 
HETATM   24  H   UNL     1      -4.269   8.790  68.761  1.00  0.00     0.000 HD 
BRANCH  22  25
HETATM   25  C   UNL     1      -5.632  10.674  69.871  1.00  0.00    -0.051 C  
HETATM   26  H   UNL     1      -5.330  12.319  70.921  1.00  0.00     0.000 HD 
HETATM   27  O   UNL     1      -5.336  11.382  71.075  1.00  0.00    -0.150 OA 
ENDBRANCH  22  25
ENDBRANCH  21  22
ENDBRANCH  18  21
ENDBRANCH  12  17
BRANCH  15  28
HETATM   28  C   UNL     1     -11.122  12.935  66.192  1.00  0.00    -0.286 C  
HETATM   29  O   UNL     1     -11.786  12.530  65.245  1.00  0.00    -0.374 OA 
HETATM   30  H   UNL     1      -9.882  14.459  66.931  1.00  0.00     0.000 HD 
HETATM   31  N   UNL     1     -10.421  14.130  66.131  1.00  0.00    -0.289 N  
BRANCH  31  32
HETATM   32  C   UNL     1     -10.472  14.908  64.898  1.00  0.00    -0.359 C  
BRANCH  32  33
HETATM   33  C   UNL     1     -10.280  16.413  65.122  1.00  0.00     0.054 C  
HETATM   34  H   UNL     1     -11.166  18.070  64.532  1.00  0.00     0.000 HD 
HETATM   35  O   UNL     1     -11.284  17.138  64.394  1.00  0.00    -1.143 OA 
BRANCH  33  36
HETATM   36  C   UNL     1     -10.355  16.747  66.621  1.00  0.00    -0.297 C  
HETATM   37  O   UNL     1      -9.061  16.775  67.220  1.00  0.00    -0.215 OA 
HETATM   38  H   UNL     1      -9.107  16.981  68.146  1.00  0.00     0.000 HD 
ENDBRANCH  33  36
ENDBRANCH  32  33
ENDBRANCH  31  32
ENDBRANCH  15  28
ENDBRANCH   5   8
BRANCH   6  39
HETATM   39  C   UNL     1     -13.332  13.724  72.672  1.00  0.00    -0.514 C  
HETATM   40  O   UNL     1     -12.801  14.813  73.421  1.00  0.00    -0.515 OA 
HETATM   41  H   UNL     1     -13.344  15.056  74.162  1.00  0.00     0.000 HD 
ENDBRANCH   6  39
ENDBRANCH   4   5
ENDBRANCH   3   4
TORSDOF 12
ENDMDL
MODEL      178
REMARK 921   NORMALIZED FREE ENERGY PREDICTED BY IDOCK:    0.96 KCAL/MOL
REMARK 922        TOTAL FREE ENERGY PREDICTED BY IDOCK:    1.36 KCAL/MOL
REMARK 923 INTER-LIGAND FREE ENERGY PREDICTED BY IDOCK:   -4.51 KCAL/MOL
REMARK 924 INTRA-LIGAND FREE ENERGY PREDICTED BY IDOCK:    5.87 KCAL/MOL
REMARK 927      BINDING AFFINITY PREDICTED BY RF-SCORE:    0.00 PKD
ROOT
HETATM    1  O   UNL     1     -14.398   9.688  70.144  1.00  0.00     0.288 OA 
HETATM    2  H   UNL     1     -14.291   8.864  69.683  1.00  0.00     0.000 HD 
HETATM    3  C   UNL     1     -13.205  10.056  70.819  1.00  0.00    -0.208 C  
ENDROOT
BRANCH   3   4
HETATM    4  C   UNL     1     -13.378  11.385  71.563  1.00  0.00    -0.083 C  
BRANCH   4   5
HETATM    5  N   UNL     1     -12.511  12.492  71.097  1.00  0.00    -0.305 N  
HETATM    6  C   UNL     1     -12.226  13.644  71.837  1.00  0.00     0.264 C  
HETATM    7  O   UNL     1     -11.357  14.461  71.491  1.00  0.00     0.091 OA 
BRANCH   5   8
HETATM    8  C   UNL     1     -11.749  12.273  69.892  1.00  0.00    -0.273 A  
HETATM    9  C   UNL     1     -10.915  11.129  69.746  1.00  0.00    -0.150 A  
HETATM   10  C   UNL     1     -11.763  13.247  68.866  1.00  0.00    -0.327 A  
HETATM   11  I   UNL     1     -10.959   9.607  71.304  1.00  0.00     0.003 I  
HETATM   12  C   UNL     1     -10.127  10.930  68.577  1.00  0.00    -0.193 A  
HETATM   13  I   UNL     1     -12.586  15.208  69.288  1.00  0.00     0.667 I  
HETATM   14  I   UNL     1      -9.481  11.365  65.534  1.00  0.00    -0.168 I  
HETATM   15  C   UNL     1     -11.137  12.990  67.627  1.00  0.00    -0.296 A  
HETATM   16  C   UNL     1     -10.322  11.823  67.486  1.00  0.00    -0.196 A  
BRANCH  12  17
HETATM   17  C   UNL     1      -9.005   9.919  68.636  1.00  0.00    -0.128 C  
HETATM   18  N   UNL     1      -9.190   8.674  68.085  1.00  0.00    -0.137 N  
HETATM   19  H   UNL     1     -10.115   8.415  67.741  1.00  0.00     0.000 HD 
HETATM   20  O   UNL     1      -7.940  10.229  69.160  1.00  0.00    -0.112 OA 
BRANCH  18  21
HETATM   21  C   UNL     1      -8.094   7.709  67.979  1.00  0.00    -0.123 C  
BRANCH  21  22
HETATM   22  C   UNL     1      -7.976   7.205  66.536  1.00  0.00    -0.112 C  
HETATM   23  O   UNL     1      -9.288   6.920  66.027  1.00  0.00    -0.354 OA 
HETATM   24  H   UNL     1      -9.215   6.607  65.133  1.00  0.00     0.000 HD 
BRANCH  22  25
HETATM   25  C   UNL     1      -7.253   8.203  65.621  1.00  0.00    -0.071 C  
HETATM   26  H   UNL     1      -6.183   9.851  65.823  1.00  0.00     0.000 HD 
HETATM   27  O   UNL     1      -6.631   9.234  66.389  1.00  0.00    -0.066 OA 
ENDBRANCH  22  25
ENDBRANCH  21  22
ENDBRANCH  18  21
ENDBRANCH  12  17
BRANCH  15  28
HETATM   28  C   UNL     1     -11.289  13.943  66.479  1.00  0.00    -0.331 C  
HETATM   29  O   UNL     1     -12.136  13.753  65.614  1.00  0.00    -0.369 OA 
HETATM   30  H   UNL     1      -9.754  15.196  67.175  1.00  0.00     0.000 HD 
HETATM   31  N   UNL     1     -10.446  15.045  66.442  1.00  0.00    -0.285 N  
BRANCH  31  32
HETATM   32  C   UNL     1     -10.571  15.983  65.332  1.00  0.00    -0.408 C  
BRANCH  32  33
HETATM   33  C   UNL     1      -9.783  17.282  65.544  1.00  0.00     0.349 C  
HETATM   34  H   UNL     1     -10.048  18.971  66.521  1.00  0.00     0.000 HD 
HETATM   35  O   UNL     1     -10.536  18.167  66.389  1.00  0.00    -0.379 OA 
BRANCH  33  36
HETATM   36  C   UNL     1      -8.409  16.982  66.165  1.00  0.00    -0.241 C  
HETATM   37  O   UNL     1      -7.363  17.680  65.494  1.00  0.00    -0.425 OA 
HETATM   38  H   UNL     1      -6.514  17.494  65.878  1.00  0.00     0.000 HD 
ENDBRANCH  33  36
ENDBRANCH  32  33
ENDBRANCH  31  32
ENDBRANCH  15  28
ENDBRANCH   5   8
BRANCH   6  39
HETATM   39  C   UNL     1     -12.999  13.880  73.144  1.00  0.00     0.102 C  
HETATM   40  O   UNL     1     -12.598  15.064  73.824  1.00  0.00    -0.533 OA 
HETATM   41  H   UNL     1     -13.077  15.210  74.633  1.00  0.00     0.000 HD 
ENDBRANCH   6  39
ENDBRANCH   4   5
ENDBRANCH   3   4
TORSDOF 12
ENDMDL
MODEL      179
REMARK 921   NORMALIZED FREE ENERGY PREDICTED BY IDOCK:    1.02 KCAL/MOL
REMARK 922        TOTAL FREE ENERGY PREDICTED BY IDOCK:    1.45 KCAL/MOL
REMARK 923 INTER-LIGAND FREE ENERGY PREDICTED BY IDOCK:   -4.70 KCAL/MOL
REMARK 924 INTRA-LIGAND FREE ENERGY PREDICTED BY IDOCK:    6.16 KCAL/MOL
REMARK 927      BINDING AFFINITY PREDICTED BY RF-SCORE:    0.00 PKD
ROOT
HETATM    1  O   UNL     1     -13.766  11.974  72.847  1.00  0.00    -0.261 OA 
HETATM    2  H   UNL     1     -14.052  11.700  73.710  1.00  0.00     0.000 HD 
HETATM    3  C   UNL     1     -14.361  13.209  72.478  1.00  0.00     0.085 C  
ENDROOT
BRANCH   3   4
HETATM    4  C   UNL     1     -13.901  13.650  71.083  1.00  0.00     0.239 C  
BRANCH   4   5
HETATM    5  N   UNL     1     -12.451  13.918  70.948  1.00  0.00    -0.356 N  
HETATM    6  C   UNL     1     -11.665  14.548  71.917  1.00  0.00     0.048 C  
HETATM    7  O   UNL     1     -10.427  14.594  71.845  1.00  0.00     1.390 OA 
BRANCH   5   8
HETATM    8  C   UNL     1     -11.767  13.307  69.834  1.00  0.00    -0.259 A  
HETATM    9  C   UNL     1     -11.251  14.093  68.766  1.00  0.00    -0.268 A  
HETATM   10  C   UNL     1     -11.673  11.897  69.757  1.00  0.00    -0.331 A  
HETATM   11  I   UNL     1     -11.342  16.263  68.936  1.00  0.00    -0.066 I  
HETATM   12  C   UNL     1     -10.615  13.491  67.643  1.00  0.00    -0.246 A  
HETATM   13  I   UNL     1     -12.897  10.688  71.076  1.00  0.00    -0.370 I  
HETATM   14  I   UNL     1      -9.044  11.164  66.236  1.00  0.00    -0.223 I  
HETATM   15  C   UNL     1     -10.894  11.286  68.751  1.00  0.00    -0.252 A  
HETATM   16  C   UNL     1     -10.360  12.092  67.696  1.00  0.00    -0.203 A  
BRANCH  12  17
HETATM   17  C   UNL     1     -10.430  14.325  66.397  1.00  0.00    -0.282 C  
HETATM   18  N   UNL     1     -11.110  15.513  66.273  1.00  0.00    -0.240 N  
HETATM   19  H   UNL     1     -11.809  15.761  66.974  1.00  0.00     0.000 HD 
HETATM   20  O   UNL     1      -9.662  13.940  65.521  1.00  0.00    -0.211 OA 
BRANCH  18  21
HETATM   21  C   UNL     1     -10.857  16.433  65.162  1.00  0.00    -0.275 C  
BRANCH  21  22
HETATM   22  C   UNL     1      -9.951  17.579  65.626  1.00  0.00     0.092 C  
HETATM   23  O   UNL     1     -10.765  18.676  66.067  1.00  0.00    -0.406 OA 
HETATM   24  H   UNL     1     -10.204  19.386  66.355  1.00  0.00     0.000 HD 
BRANCH  22  25
HETATM   25  C   UNL     1      -8.982  17.151  66.736  1.00  0.00    -0.241 C  
HETATM   26  H   UNL     1      -7.154  17.608  67.328  1.00  0.00     0.000 HD 
HETATM   27  O   UNL     1      -7.754  17.873  66.641  1.00  0.00    -0.216 OA 
ENDBRANCH  22  25
ENDBRANCH  21  22
ENDBRANCH  18  21
ENDBRANCH  12  17
BRANCH  15  28
HETATM   28  C   UNL     1     -10.654   9.806  68.760  1.00  0.00    -0.219 C  
HETATM   29  O   UNL     1     -11.265   9.068  67.997  1.00  0.00     0.101 OA 
HETATM   30  H   UNL     1      -9.204   9.941  70.272  1.00  0.00     0.000 HD 
HETATM   31  N   UNL     1      -9.712   9.312  69.652  1.00  0.00    -0.174 N  
BRANCH  31  32
HETATM   32  C   UNL     1      -9.465   7.875  69.682  1.00  0.00    -0.160 C  
BRANCH  32  33
HETATM   33  C   UNL     1      -9.749   7.240  71.049  1.00  0.00    -0.169 C  
HETATM   34  H   UNL     1     -11.344   6.764  72.101  1.00  0.00     0.000 HD 
HETATM   35  O   UNL     1     -11.168   7.158  71.255  1.00  0.00    -0.248 OA 
BRANCH  33  36
HETATM   36  C   UNL     1      -9.110   5.843  71.135  1.00  0.00    -0.143 C  
HETATM   37  O   UNL     1      -9.185   5.310  72.455  1.00  0.00    -0.136 OA 
HETATM   38  H   UNL     1      -8.790   4.447  72.509  1.00  0.00     0.000 HD 
ENDBRANCH  33  36
ENDBRANCH  32  33
ENDBRANCH  31  32
ENDBRANCH  15  28
ENDBRANCH   5   8
BRANCH   6  39
HETATM   39  C   UNL     1     -12.369  15.174  73.131  1.00  0.00    -0.432 C  
HETATM   40  O   UNL     1     -11.764  16.388  73.564  1.00  0.00    -0.274 OA 
HETATM   41  H   UNL     1     -12.200  16.775  74.315  1.00  0.00     0.000 HD 
ENDBRANCH   6  39
ENDBRANCH   4   5
ENDBRANCH   3   4
TORSDOF 12
ENDMDL
MODEL      180
REMARK 921   NORMALIZED FREE ENERGY PREDICTED BY IDOCK:    1.20 KCAL/MOL
REMARK 922        TOTAL FREE ENERGY PREDICTED BY IDOCK:    1.77 KCAL/MOL
REMARK 923 INTER-LIGAND FREE ENERGY PREDICTED BY IDOCK:   -4.64 KCAL/MOL
REMARK 924 INTRA-LIGAND FREE ENERGY PREDICTED BY IDOCK:    6.41 KCAL/MOL
REMARK 927      BINDING AFFINITY PREDICTED BY RF-SCORE:    0.00 PKD
ROOT
HETATM    1  O   UNL     1      -9.259   9.327  72.599  1.00  0.00     0.236 OA 
HETATM    2  H   UNL     1      -9.735   9.008  73.356  1.00  0.00     0.000 HD 
HETATM    3  C   UNL     1      -7.959   8.760  72.534  1.00  0.00     0.163 C  
ENDROOT
BRANCH   3   4
HETATM    4  C   UNL     1      -7.191   9.277  71.311  1.00  0.00     0.020 C  
BRANCH   4   5
HETATM    5  N   UNL     1      -7.940   9.254  70.034  1.00  0.00    -0.104 N  
HETATM    6  C   UNL     1      -8.532   8.115  69.479  1.00  0.00    -0.127 C  
HETATM    7  O   UNL     1      -9.300   8.170  68.505  1.00  0.00    -0.139 OA 
BRANCH   5   8
HETATM    8  C   UNL     1      -8.255  10.526  69.430  1.00  0.00    -0.119 A  
HETATM    9  C   UNL     1      -9.572  10.822  68.979  1.00  0.00    -0.180 A  
HETATM   10  C   UNL     1      -7.225  11.471  69.207  1.00  0.00    -0.048 A  
HETATM   11  I   UNL     1     -11.157   9.386  69.395  1.00  0.00     0.140 I  
HETATM   12  C   UNL     1      -9.878  12.058  68.342  1.00  0.00    -0.204 A  
HETATM   13  I   UNL     1      -5.159  10.838  69.393  1.00  0.00    -0.037 I  
HETATM   14  I   UNL     1      -9.360  15.098  67.746  1.00  0.00    -0.197 I  
HETATM   15  C   UNL     1      -7.532  12.768  68.745  1.00  0.00    -0.048 A  
HETATM   16  C   UNL     1      -8.867  13.059  68.318  1.00  0.00    -0.172 A  
BRANCH  12  17
HETATM   17  C   UNL     1     -11.171  12.160  67.567  1.00  0.00    -0.297 C  
HETATM   18  N   UNL     1     -11.132  12.187  66.193  1.00  0.00    -0.298 N  
HETATM   19  H   UNL     1     -10.229  12.246  65.722  1.00  0.00     0.000 HD 
HETATM   20  O   UNL     1     -12.236  12.200  68.173  1.00  0.00    -0.388 OA 
BRANCH  18  21
HETATM   21  C   UNL     1     -12.354  12.134  65.389  1.00  0.00     0.081 C  
BRANCH  21  22
HETATM   22  C   UNL     1     -12.784  13.550  64.992  1.00  0.00    -0.344 C  
HETATM   23  O   UNL     1     -13.783  14.017  65.912  1.00  0.00    -0.246 OA 
HETATM   24  H   UNL     1     -14.050  14.894  65.666  1.00  0.00     0.000 HD 
BRANCH  22  25
HETATM   25  C   UNL     1     -11.604  14.530  64.941  1.00  0.00    -0.401 C  
HETATM   26  H   UNL     1     -11.154  16.219  64.022  1.00  0.00     0.000 HD 
HETATM   27  O   UNL     1     -11.884  15.613  64.053  1.00  0.00    -0.491 OA 
ENDBRANCH  22  25
ENDBRANCH  21  22
ENDBRANCH  18  21
ENDBRANCH  12  17
BRANCH  15  28
HETATM   28  C   UNL     1      -6.471  13.825  68.664  1.00  0.00    -0.093 C  
HETATM   29  O   UNL     1      -5.333  13.544  68.306  1.00  0.00    -0.085 OA 
HETATM   30  H   UNL     1      -7.783  15.343  69.283  1.00  0.00     0.000 HD 
HETATM   31  N   UNL     1      -6.829  15.123  68.997  1.00  0.00    -0.113 N  
BRANCH  31  32
HETATM   32  C   UNL     1      -5.813  16.167  68.931  1.00  0.00    -0.118 C  
BRANCH  32  33
HETATM   33  C   UNL     1      -5.455  16.577  67.497  1.00  0.00    -0.147 C  
HETATM   34  H   UNL     1      -6.308  16.470  65.726  1.00  0.00     0.000 HD 
HETATM   35  O   UNL     1      -6.529  16.216  66.614  1.00  0.00    -0.254 OA 
BRANCH  33  36
HETATM   36  C   UNL     1      -5.180  18.088  67.423  1.00  0.00    -0.136 C  
HETATM   37  O   UNL     1      -6.318  18.851  67.816  1.00  0.00    -0.205 OA 
HETATM   38  H   UNL     1      -6.148  19.785  67.770  1.00  0.00     0.000 HD 
ENDBRANCH  33  36
ENDBRANCH  32  33
ENDBRANCH  31  32
ENDBRANCH  15  28
ENDBRANCH   5   8
BRANCH   6  39
HETATM   39  C   UNL     1      -8.240   6.754  70.128  1.00  0.00    -0.133 C  
HETATM   40  O   UNL     1      -9.264   6.330  71.023  1.00  0.00    -0.153 OA 
HETATM   41  H   UNL     1      -9.083   5.488  71.425  1.00  0.00     0.000 HD 
ENDBRANCH   6  39
ENDBRANCH   4   5
ENDBRANCH   3   4
TORSDOF 12
ENDMDL
MODEL      181
REMARK 921   NORMALIZED FREE ENERGY PREDICTED BY IDOCK:    1.75 KCAL/MOL
REMARK 922        TOTAL FREE ENERGY PREDICTED BY IDOCK:    2.70 KCAL/MOL
REMARK 923 INTER-LIGAND FREE ENERGY PREDICTED BY IDOCK:    2.54 KCAL/MOL
REMARK 924 INTRA-LIGAND FREE ENERGY PREDICTED BY IDOCK:    0.15 KCAL/MOL
REMARK 927      BINDING AFFINITY PREDICTED BY RF-SCORE:    0.00 PKD
ROOT
HETATM    1  O   UNL     1     -11.069  14.758  73.294  1.00  0.00     0.416 OA 
HETATM    2  H   UNL     1     -11.544  14.251  73.942  1.00  0.00     0.000 HD 
HETATM    3  C   UNL     1     -11.844  14.942  72.119  1.00  0.00    -0.310 C  
ENDROOT
BRANCH   3   4
HETATM    4  C   UNL     1     -11.076  15.760  71.073  1.00  0.00    -0.280 C  
BRANCH   4   5
HETATM    5  N   UNL     1     -11.079  15.201  69.701  1.00  0.00    -0.255 N  
HETATM    6  C   UNL     1     -12.201  15.142  68.870  1.00  0.00    -0.103 C  
HETATM    7  O   UNL     1     -12.126  14.833  67.670  1.00  0.00    -0.299 OA 
BRANCH   5   8
HETATM    8  C   UNL     1      -9.800  14.889  69.113  1.00  0.00    -0.199 A  
HETATM    9  C   UNL     1      -8.921  15.917  68.670  1.00  0.00    -0.203 A  
HETATM   10  C   UNL     1      -9.438  13.538  68.896  1.00  0.00     0.165 A  
HETATM   11  I   UNL     1      -9.463  17.988  69.075  1.00  0.00     0.161 I  
HETATM   12  C   UNL     1      -7.677  15.613  68.048  1.00  0.00    -0.133 A  
HETATM   13  I   UNL     1     -10.959  12.002  69.068  1.00  0.00    -0.153 I  
HETATM   14  I   UNL     1      -5.218  13.743  67.483  1.00  0.00     0.630 I  
HETATM   15  C   UNL     1      -8.141  13.206  68.450  1.00  0.00    -0.130 A  
HETATM   16  C   UNL     1      -7.260  14.253  68.031  1.00  0.00    -0.142 A  
BRANCH  12  17
HETATM   17  C   UNL     1      -6.978  16.709  67.278  1.00  0.00    -0.177 C  
HETATM   18  N   UNL     1      -5.959  17.410  67.879  1.00  0.00    -0.136 N  
HETATM   19  H   UNL     1      -5.763  17.253  68.868  1.00  0.00     0.000 HD 
HETATM   20  O   UNL     1      -7.317  16.947  66.124  1.00  0.00    -0.268 OA 
BRANCH  18  21
HETATM   21  C   UNL     1      -5.148  18.376  67.136  1.00  0.00    -0.131 C  
BRANCH  21  22
HETATM   22  C   UNL     1      -5.912  19.695  66.982  1.00  0.00    -0.176 C  
HETATM   23  O   UNL     1      -6.930  19.539  65.982  1.00  0.00    -0.235 OA 
HETATM   24  H   UNL     1      -7.404  20.356  65.887  1.00  0.00     0.000 HD 
BRANCH  22  25
HETATM   25  C   UNL     1      -6.530  20.175  68.303  1.00  0.00    -0.291 C  
HETATM   26  H   UNL     1      -5.961  20.391  70.182  1.00  0.00     0.000 HD 
HETATM   27  O   UNL     1      -5.579  20.094  69.365  1.00  0.00    -0.231 OA 
ENDBRANCH  22  25
ENDBRANCH  21  22
ENDBRANCH  18  21
ENDBRANCH  12  17
BRANCH  15  28
HETATM   28  C   UNL     1      -7.696  11.776  68.377  1.00  0.00    -0.131 C  
HETATM   29  O   UNL     1      -7.829  11.131  67.343  1.00  0.00    -0.113 OA 
HETATM   30  H   UNL     1      -7.011  11.775  70.361  1.00  0.00     0.000 HD 
HETATM   31  N   UNL     1      -7.125  11.221  69.513  1.00  0.00    -0.098 N  
BRANCH  31  32
HETATM   32  C   UNL     1      -6.689   9.830  69.468  1.00  0.00    -0.054 C  
BRANCH  32  33
HETATM   33  C   UNL     1      -6.762   9.127  70.829  1.00  0.00    -0.082 C  
HETATM   34  H   UNL     1      -6.250   9.547  72.684  1.00  0.00     0.000 HD 
HETATM   35  O   UNL     1      -6.205   9.982  71.840  1.00  0.00    -0.281 OA 
BRANCH  33  36
HETATM   36  C   UNL     1      -8.217   8.765  71.170  1.00  0.00    -0.165 C  
HETATM   37  O   UNL     1      -8.457   8.813  72.575  1.00  0.00    -0.403 OA 
HETATM   38  H   UNL     1      -9.356   8.590  72.785  1.00  0.00     0.000 HD 
ENDBRANCH  33  36
ENDBRANCH  32  33
ENDBRANCH  31  32
ENDBRANCH  15  28
ENDBRANCH   5   8
BRANCH   6  39
HETATM   39  C   UNL     1     -13.569  15.506  69.466  1.00  0.00     2.069 C  
HETATM   40  O   UNL     1     -14.045  16.779  69.038  1.00  0.00     4.281 OA 
HETATM   41  H   UNL     1     -14.891  17.004  69.407  1.00  0.00     0.000 HD 
ENDBRANCH   6  39
ENDBRANCH   4   5
ENDBRANCH   3   4
TORSDOF 12
ENDMDL
MODEL      182
REMARK 921   NORMALIZED FREE ENERGY PREDICTED BY IDOCK:    2.27 KCAL/MOL
REMARK 922        TOTAL FREE ENERGY PREDICTED BY IDOCK:    3.58 KCAL/MOL
REMARK 923 INTER-LIGAND FREE ENERGY PREDICTED BY IDOCK:   -1.73 KCAL/MOL
REMARK 924 INTRA-LIGAND FREE ENERGY PREDICTED BY IDOCK:    5.31 KCAL/MOL
REMARK 927      BINDING AFFINITY PREDICTED BY RF-SCORE:    0.00 PKD
ROOT
HETATM    1  O   UNL     1      -8.891   6.915  64.063  1.00  0.00    -0.055 OA 
HETATM    2  H   UNL     1      -9.036   7.841  64.216  1.00  0.00     0.000 HD 
HETATM    3  C   UNL     1      -8.607   6.234  65.276  1.00  0.00    -0.061 C  
ENDROOT
BRANCH   3   4
HETATM    4  C   UNL     1      -8.374   4.739  65.029  1.00  0.00    -0.132 C  
BRANCH   4   5
HETATM    5  N   UNL     1      -8.026   3.942  66.229  1.00  0.00    -0.093 N  
HETATM    6  C   UNL     1      -7.362   2.713  66.201  1.00  0.00    -0.067 C  
HETATM    7  O   UNL     1      -6.931   2.165  67.229  1.00  0.00    -0.039 OA 
BRANCH   5   8
HETATM    8  C   UNL     1      -8.201   4.573  67.514  1.00  0.00    -0.100 A  
HETATM    9  C   UNL     1      -9.368   5.333  67.809  1.00  0.00    -0.119 A  
HETATM   10  C   UNL     1      -7.165   4.507  68.475  1.00  0.00    -0.060 A  
HETATM   11  I   UNL     1     -10.982   5.365  66.346  1.00  0.00     0.825 I  
HETATM   12  C   UNL     1      -9.526   5.995  69.060  1.00  0.00    -0.143 A  
HETATM   13  I   UNL     1      -5.201   3.825  67.858  1.00  0.00    -0.009 I  
HETATM   14  I   UNL     1      -8.927   6.366  72.120  1.00  0.00    -0.133 I  
HETATM   15  C   UNL     1      -7.368   4.999  69.782  1.00  0.00    -0.056 A  
HETATM   16  C   UNL     1      -8.558   5.740  70.071  1.00  0.00    -0.128 A  
BRANCH  12  17
HETATM   17  C   UNL     1     -10.585   7.067  69.171  1.00  0.00    -0.219 C  
HETATM   18  N   UNL     1     -10.259   8.369  68.874  1.00  0.00    -0.207 N  
HETATM   19  H   UNL     1      -9.285   8.608  68.688  1.00  0.00     0.000 HD 
HETATM   20  O   UNL     1     -11.723   6.758  69.507  1.00  0.00    -0.187 OA 
BRANCH  18  21
HETATM   21  C   UNL     1     -11.275   9.422  68.818  1.00  0.00     0.159 C  
BRANCH  21  22
HETATM   22  C   UNL     1     -10.777  10.586  67.955  1.00  0.00    -0.260 C  
HETATM   23  O   UNL     1      -9.411  10.873  68.290  1.00  0.00    -0.155 OA 
HETATM   24  H   UNL     1      -9.102  11.595  67.755  1.00  0.00     0.000 HD 
BRANCH  22  25
HETATM   25  C   UNL     1     -10.910  10.303  66.452  1.00  0.00     0.045 C  
HETATM   26  H   UNL     1      -9.955   9.254  65.078  1.00  0.00     0.000 HD 
HETATM   27  O   UNL     1      -9.872   9.429  66.008  1.00  0.00    -0.269 OA 
ENDBRANCH  22  25
ENDBRANCH  21  22
ENDBRANCH  18  21
ENDBRANCH  12  17
BRANCH  15  28
HETATM   28  C   UNL     1      -6.339   4.784  70.852  1.00  0.00    -0.019 C  
HETATM   29  O   UNL     1      -5.579   5.688  71.180  1.00  0.00    -0.012 OA 
HETATM   30  H   UNL     1      -6.936   2.798  71.179  1.00  0.00     0.000 HD 
HETATM   31  N   UNL     1      -6.289   3.536  71.456  1.00  0.00    -0.015 N  
BRANCH  31  32
HETATM   32  C   UNL     1      -5.293   3.302  72.495  1.00  0.00     0.000 C  
BRANCH  32  33
HETATM   33  C   UNL     1      -5.862   3.405  73.916  1.00  0.00    -0.003 C  
HETATM   34  H   UNL     1      -6.596   4.829  75.061  1.00  0.00     0.000 HD 
HETATM   35  O   UNL     1      -6.243   4.764  74.181  1.00  0.00    -0.047 OA 
BRANCH  33  36
HETATM   36  C   UNL     1      -7.068   2.465  74.081  1.00  0.00    -0.035 C  
HETATM   37  O   UNL     1      -8.278   3.191  74.286  1.00  0.00    -0.068 OA 
HETATM   38  H   UNL     1      -9.023   2.610  74.388  1.00  0.00     0.000 HD 
ENDBRANCH  33  36
ENDBRANCH  32  33
ENDBRANCH  31  32
ENDBRANCH  15  28
ENDBRANCH   5   8
BRANCH   6  39
HETATM   39  C   UNL     1      -7.131   2.040  64.840  1.00  0.00    -0.052 C  
HETATM   40  O   UNL     1      -5.857   2.335  64.278  1.00  0.00    -0.012 OA 
HETATM   41  H   UNL     1      -5.714   1.918  63.436  1.00  0.00     0.000 HD 
ENDBRANCH   6  39
ENDBRANCH   4   5
ENDBRANCH   3   4
TORSDOF 12
ENDMDL
MODEL      183
REMARK 921   NORMALIZED FREE ENERGY PREDICTED BY IDOCK:    2.42 KCAL/MOL
REMARK 922        TOTAL FREE ENERGY PREDICTED BY IDOCK:    3.85 KCAL/MOL
REMARK 923 INTER-LIGAND FREE ENERGY PREDICTED BY IDOCK:    0.07 KCAL/MOL
REMARK 924 INTRA-LIGAND FREE ENERGY PREDICTED BY IDOCK:    3.78 KCAL/MOL
REMARK 927      BINDING AFFINITY PREDICTED BY RF-SCORE:    0.00 PKD
ROOT
HETATM    1  O   UNL     1     -11.330   9.955  66.864  1.00  0.00    -0.043 OA 
HETATM    2  H   UNL     1     -11.169   9.076  66.542  1.00  0.00     0.000 HD 
HETATM    3  C   UNL     1     -10.955  10.929  65.901  1.00  0.00     0.016 C  
ENDROOT
BRANCH   3   4
HETATM    4  C   UNL     1     -11.215  12.348  66.421  1.00  0.00    -0.319 C  
BRANCH   4   5
HETATM    5  N   UNL     1     -10.953  12.554  67.865  1.00  0.00    -0.218 N  
HETATM    6  C   UNL     1     -11.710  11.992  68.897  1.00  0.00    -0.326 C  
HETATM    7  O   UNL     1     -11.355  12.041  70.086  1.00  0.00    -0.103 OA 
BRANCH   5   8
HETATM    8  C   UNL     1      -9.719  13.206  68.226  1.00  0.00    -0.223 A  
HETATM    9  C   UNL     1      -9.628  14.624  68.299  1.00  0.00    -0.208 A  
HETATM   10  C   UNL     1      -8.552  12.433  68.436  1.00  0.00    -0.129 A  
HETATM   11  I   UNL     1     -11.448  15.794  68.042  1.00  0.00     0.027 I  
HETATM   12  C   UNL     1      -8.401  15.275  68.612  1.00  0.00    -0.162 A  
HETATM   13  I   UNL     1      -8.542  10.355  67.817  1.00  0.00    -0.122 I  
HETATM   14  I   UNL     1      -5.537  15.370  69.897  1.00  0.00    -0.139 I  
HETATM   15  C   UNL     1      -7.372  13.036  68.922  1.00  0.00    -0.017 A  
HETATM   16  C   UNL     1      -7.304  14.462  69.013  1.00  0.00    -0.127 A  
BRANCH  12  17
HETATM   17  C   UNL     1      -8.279  16.750  68.311  1.00  0.00    -0.204 C  
HETATM   18  N   UNL     1      -7.237  17.465  68.854  1.00  0.00    -0.252 N  
HETATM   19  H   UNL     1      -6.626  17.013  69.535  1.00  0.00     0.000 HD 
HETATM   20  O   UNL     1      -9.099  17.287  67.574  1.00  0.00    -0.221 OA 
BRANCH  18  21
HETATM   21  C   UNL     1      -6.982  18.857  68.480  1.00  0.00    -0.272 C  
BRANCH  21  22
HETATM   22  C   UNL     1      -6.170  19.555  69.577  1.00  0.00    -0.300 C  
HETATM   23  O   UNL     1      -6.579  20.929  69.666  1.00  0.00     0.097 OA 
HETATM   24  H   UNL     1      -6.076  21.361  70.345  1.00  0.00     0.000 HD 
BRANCH  22  25
HETATM   25  C   UNL     1      -6.310  18.866  70.941  1.00  0.00     0.661 C  
HETATM   26  H   UNL     1      -5.832  19.246  72.819  1.00  0.00     0.000 HD 
HETATM   27  O   UNL     1      -5.745  19.673  71.975  1.00  0.00    -0.363 OA 
ENDBRANCH  22  25
ENDBRANCH  21  22
ENDBRANCH  18  21
ENDBRANCH  12  17
BRANCH  15  28
HETATM   28  C   UNL     1      -6.186  12.201  69.305  1.00  0.00    -0.097 C  
HETATM   29  O   UNL     1      -5.176  12.193  68.611  1.00  0.00    -0.050 OA 
HETATM   30  H   UNL     1      -7.116  11.482  71.044  1.00  0.00     0.000 HD 
HETATM   31  N   UNL     1      -6.273  11.456  70.471  1.00  0.00    -0.065 N  
BRANCH  31  32
HETATM   32  C   UNL     1      -5.134  10.632  70.862  1.00  0.00    -0.081 C  
BRANCH  32  33
HETATM   33  C   UNL     1      -5.408   9.764  72.096  1.00  0.00    -0.014 C  
HETATM   34  H   UNL     1      -5.800  10.070  74.001  1.00  0.00     0.000 HD 
HETATM   35  O   UNL     1      -5.630  10.608  73.236  1.00  0.00     0.041 OA 
BRANCH  33  36
HETATM   36  C   UNL     1      -6.623   8.854  71.853  1.00  0.00    -0.028 C  
HETATM   37  O   UNL     1      -6.518   8.151  70.617  1.00  0.00    -0.036 OA 
HETATM   38  H   UNL     1      -7.269   7.588  70.468  1.00  0.00     0.000 HD 
ENDBRANCH  33  36
ENDBRANCH  32  33
ENDBRANCH  31  32
ENDBRANCH  15  28
ENDBRANCH   5   8
BRANCH   6  39
HETATM   39  C   UNL     1     -13.011  11.260  68.532  1.00  0.00     2.834 C  
HETATM   40  O   UNL     1     -13.208  10.064  69.279  1.00  0.00     0.517 OA 
HETATM   41  H   UNL     1     -14.013   9.612  69.053  1.00  0.00     0.000 HD 
ENDBRANCH   6  39
ENDBRANCH   4   5
ENDBRANCH   3   4
TORSDOF 12
ENDMDL
MODEL      184
REMARK 921   NORMALIZED FREE ENERGY PREDICTED BY IDOCK:    2.43 KCAL/MOL
REMARK 922        TOTAL FREE ENERGY PREDICTED BY IDOCK:    3.86 KCAL/MOL
REMARK 923 INTER-LIGAND FREE ENERGY PREDICTED BY IDOCK:    0.61 KCAL/MOL
REMARK 924 INTRA-LIGAND FREE ENERGY PREDICTED BY IDOCK:    3.24 KCAL/MOL
REMARK 927      BINDING AFFINITY PREDICTED BY RF-SCORE:    0.00 PKD
ROOT
HETATM    1  O   UNL     1      -7.592   8.224  68.835  1.00  0.00    -0.090 OA 
HETATM    2  H   UNL     1      -7.667   7.323  69.128  1.00  0.00     0.000 HD 
HETATM    3  C   UNL     1      -8.690   8.588  68.011  1.00  0.00    -0.142 C  
ENDROOT
BRANCH   3   4
HETATM    4  C   UNL     1      -8.568  10.041  67.538  1.00  0.00    -0.122 C  
BRANCH   4   5
HETATM    5  N   UNL     1      -9.809  10.639  66.993  1.00  0.00    -0.180 N  
HETATM    6  C   UNL     1     -10.807   9.926  66.323  1.00  0.00     0.212 C  
HETATM    7  O   UNL     1     -11.908  10.425  66.041  1.00  0.00     1.250 OA 
BRANCH   5   8
HETATM    8  C   UNL     1     -10.100  12.004  67.358  1.00  0.00    -0.194 A  
HETATM    9  C   UNL     1      -9.934  13.067  66.427  1.00  0.00    -0.277 A  
HETATM   10  C   UNL     1     -10.483  12.308  68.686  1.00  0.00    -0.208 A  
HETATM   11  I   UNL     1      -9.412  12.572  64.371  1.00  0.00     1.016 I  
HETATM   12  C   UNL     1     -10.177  14.421  66.795  1.00  0.00    -0.270 A  
HETATM   13  I   UNL     1     -10.228  10.803  70.226  1.00  0.00     1.547 I  
HETATM   14  I   UNL     1     -11.535  16.636  68.560  1.00  0.00     0.601 I  
HETATM   15  C   UNL     1     -10.904  13.612  69.029  1.00  0.00    -0.237 A  
HETATM   16  C   UNL     1     -10.753  14.666  68.073  1.00  0.00    -0.246 A  
BRANCH  12  17
HETATM   17  C   UNL     1      -9.635  15.512  65.902  1.00  0.00    -0.348 C  
HETATM   18  N   UNL     1      -9.071  16.629  66.470  1.00  0.00    -0.253 N  
HETATM   19  H   UNL     1      -9.123  16.754  67.481  1.00  0.00     0.000 HD 
HETATM   20  O   UNL     1      -9.690  15.378  64.684  1.00  0.00     0.050 OA 
BRANCH  18  21
HETATM   21  C   UNL     1      -8.396  17.645  65.660  1.00  0.00     0.532 C  
BRANCH  21  22
HETATM   22  C   UNL     1      -8.235  18.938  66.467  1.00  0.00    -0.297 C  
HETATM   23  O   UNL     1      -7.784  19.987  65.596  1.00  0.00    -0.405 OA 
HETATM   24  H   UNL     1      -7.684  20.788  66.096  1.00  0.00     0.000 HD 
BRANCH  22  25
HETATM   25  C   UNL     1      -9.531  19.353  67.177  1.00  0.00    -0.320 C  
HETATM   26  H   UNL     1     -10.980  20.669  66.909  1.00  0.00     0.000 HD 
HETATM   27  O   UNL     1     -10.178  20.412  66.470  1.00  0.00    -0.405 OA 
ENDBRANCH  22  25
ENDBRANCH  21  22
ENDBRANCH  18  21
ENDBRANCH  12  17
BRANCH  15  28
HETATM   28  C   UNL     1     -11.468  13.904  70.387  1.00  0.00    -0.003 C  
HETATM   29  O   UNL     1     -10.824  14.547  71.207  1.00  0.00     0.402 OA 
HETATM   30  H   UNL     1     -13.267  12.905  69.974  1.00  0.00     0.000 HD 
HETATM   31  N   UNL     1     -12.740  13.429  70.671  1.00  0.00    -0.226 N  
BRANCH  31  32
HETATM   32  C   UNL     1     -13.308  13.696  71.988  1.00  0.00    -0.459 C  
BRANCH  32  33
HETATM   33  C   UNL     1     -13.164  15.159  72.425  1.00  0.00    -0.395 C  
HETATM   34  H   UNL     1     -14.153  16.839  72.146  1.00  0.00     0.000 HD 
HETATM   35  O   UNL     1     -14.242  15.933  71.875  1.00  0.00    -0.350 OA 
BRANCH  33  36
HETATM   36  C   UNL     1     -13.155  15.263  73.960  1.00  0.00     0.218 C  
HETATM   37  O   UNL     1     -13.126  16.620  74.396  1.00  0.00    -0.707 OA 
HETATM   38  H   UNL     1     -13.120  16.684  75.344  1.00  0.00     0.000 HD 
ENDBRANCH  33  36
ENDBRANCH  32  33
ENDBRANCH  31  32
ENDBRANCH  15  28
ENDBRANCH   5   8
BRANCH   6  39
HETATM   39  C   UNL     1     -10.532   8.459  65.957  1.00  0.00     0.993 C  
HETATM   40  O   UNL     1     -11.399   7.545  66.621  1.00  0.00    -0.076 OA 
HETATM   41  H   UNL     1     -11.228   6.638  66.394  1.00  0.00     0.000 HD 
ENDBRANCH   6  39
ENDBRANCH   4   5
ENDBRANCH   3   4
TORSDOF 12
ENDMDL
MODEL      185
REMARK 921   NORMALIZED FREE ENERGY PREDICTED BY IDOCK:    2.53 KCAL/MOL
REMARK 922        TOTAL FREE ENERGY PREDICTED BY IDOCK:    4.04 KCAL/MOL
REMARK 923 INTER-LIGAND FREE ENERGY PREDICTED BY IDOCK:   -3.95 KCAL/MOL
REMARK 924 INTRA-LIGAND FREE ENERGY PREDICTED BY IDOCK:    7.99 KCAL/MOL
REMARK 927      BINDING AFFINITY PREDICTED BY RF-SCORE:    0.00 PKD
ROOT
HETATM    1  O   UNL     1      -7.272  13.445  68.903  1.00  0.00    -0.116 OA 
HETATM    2  H   UNL     1      -6.881  13.946  69.609  1.00  0.00     0.000 HD 
HETATM    3  C   UNL     1      -8.489  12.841  69.316  1.00  0.00     0.895 C  
ENDROOT
BRANCH   3   4
HETATM    4  C   UNL     1      -9.119  12.031  68.176  1.00  0.00    -0.191 C  
BRANCH   4   5
HETATM    5  N   UNL     1     -10.140  11.041  68.589  1.00  0.00    -0.191 N  
HETATM    6  C   UNL     1     -11.467  11.350  68.903  1.00  0.00    -0.298 C  
HETATM    7  O   UNL     1     -12.333  10.478  69.069  1.00  0.00    -0.259 OA 
BRANCH   5   8
HETATM    8  C   UNL     1      -9.797   9.645  68.459  1.00  0.00    -0.157 A  
HETATM    9  C   UNL     1     -10.118   8.709  69.482  1.00  0.00    -0.203 A  
HETATM   10  C   UNL     1      -9.060   9.206  67.334  1.00  0.00    -0.127 A  
HETATM   11  I   UNL     1     -11.314   9.390  71.171  1.00  0.00    -0.482 I  
HETATM   12  C   UNL     1      -9.743   7.340  69.379  1.00  0.00    -0.161 A  
HETATM   13  I   UNL     1      -8.116  10.680  66.054  1.00  0.00    -0.103 I  
HETATM   14  I   UNL     1      -8.964   4.771  67.749  1.00  0.00    -0.154 I  
HETATM   15  C   UNL     1      -8.833   7.829  67.120  1.00  0.00    -0.130 A  
HETATM   16  C   UNL     1      -9.184   6.897  68.148  1.00  0.00    -0.126 A  
BRANCH  12  17
HETATM   17  C   UNL     1      -9.777   6.495  70.631  1.00  0.00    -0.179 C  
HETATM   18  N   UNL     1      -8.964   5.390  70.720  1.00  0.00    -0.135 N  
HETATM   19  H   UNL     1      -8.432   5.097  69.901  1.00  0.00     0.000 HD 
HETATM   20  O   UNL     1     -10.515   6.816  71.556  1.00  0.00    -0.212 OA 
BRANCH  18  21
HETATM   21  C   UNL     1      -8.843   4.623  71.961  1.00  0.00    -0.123 C  
BRANCH  21  22
HETATM   22  C   UNL     1     -10.134   3.841  72.223  1.00  0.00    -0.157 C  
HETATM   23  O   UNL     1      -9.935   2.465  71.865  1.00  0.00    -0.157 OA 
HETATM   24  H   UNL     1     -10.736   1.980  72.027  1.00  0.00     0.000 HD 
BRANCH  22  25
HETATM   25  C   UNL     1     -10.603   3.951  73.681  1.00  0.00    -0.207 C  
HETATM   26  H   UNL     1     -10.100   3.191  75.433  1.00  0.00     0.000 HD 
HETATM   27  O   UNL     1      -9.810   3.122  74.531  1.00  0.00    -0.106 OA 
ENDBRANCH  22  25
ENDBRANCH  21  22
ENDBRANCH  18  21
ENDBRANCH  12  17
BRANCH  15  28
HETATM   28  C   UNL     1      -8.199   7.344  65.850  1.00  0.00    -0.134 C  
HETATM   29  O   UNL     1      -7.022   7.582  65.608  1.00  0.00    -0.058 OA 
HETATM   30  H   UNL     1      -9.964   6.413  65.198  1.00  0.00     0.000 HD 
HETATM   31  N   UNL     1      -8.989   6.612  64.976  1.00  0.00     0.302 N  
BRANCH  31  32
HETATM   32  C   UNL     1      -8.397   6.134  63.732  1.00  0.00     0.081 C  
BRANCH  32  33
HETATM   33  C   UNL     1      -7.297   5.087  63.947  1.00  0.00    -0.051 C  
HETATM   34  H   UNL     1      -6.427   4.223  65.488  1.00  0.00     0.000 HD 
HETATM   35  O   UNL     1      -7.108   4.872  65.354  1.00  0.00    -0.061 OA 
BRANCH  33  36
HETATM   36  C   UNL     1      -7.664   3.770  63.244  1.00  0.00    -0.067 C  
HETATM   37  O   UNL     1      -8.219   2.824  64.154  1.00  0.00    -0.082 OA 
HETATM   38  H   UNL     1      -8.446   2.010  63.720  1.00  0.00     0.000 HD 
ENDBRANCH  33  36
ENDBRANCH  32  33
ENDBRANCH  31  32
ENDBRANCH  15  28
ENDBRANCH   5   8
BRANCH   6  39
HETATM   39  C   UNL     1     -11.863  12.831  69.010  1.00  0.00    -0.297 C  
HETATM   40  O   UNL     1     -11.618  13.383  70.300  1.00  0.00    -0.506 OA 
HETATM   41  H   UNL     1     -11.864  14.299  70.366  1.00  0.00     0.000 HD 
ENDBRANCH   6  39
ENDBRANCH   4   5
ENDBRANCH   3   4
TORSDOF 12
ENDMDL
MODEL      186
REMARK 921   NORMALIZED FREE ENERGY PREDICTED BY IDOCK:    2.71 KCAL/MOL
REMARK 922        TOTAL FREE ENERGY PREDICTED BY IDOCK:    4.34 KCAL/MOL
REMARK 923 INTER-LIGAND FREE ENERGY PREDICTED BY IDOCK:   -1.75 KCAL/MOL
REMARK 924 INTRA-LIGAND FREE ENERGY PREDICTED BY IDOCK:    6.09 KCAL/MOL
REMARK 927      BINDING AFFINITY PREDICTED BY RF-SCORE:    0.00 PKD
ROOT
HETATM    1  O   UNL     1     -12.189  11.073  63.491  1.00  0.00     0.009 OA 
HETATM    2  H   UNL     1     -12.172  10.414  62.806  1.00  0.00     0.000 HD 
HETATM    3  C   UNL     1     -10.970  11.088  64.219  1.00  0.00    -0.078 C  
ENDROOT
BRANCH   3   4
HETATM    4  C   UNL     1     -10.999  12.151  65.323  1.00  0.00    -0.304 C  
BRANCH   4   5
HETATM    5  N   UNL     1      -9.798  12.202  66.188  1.00  0.00    -0.233 N  
HETATM    6  C   UNL     1      -9.182  13.379  66.625  1.00  0.00    -0.214 C  
HETATM    7  O   UNL     1      -8.291  13.384  67.489  1.00  0.00    -0.166 OA 
BRANCH   5   8
HETATM    8  C   UNL     1      -9.360  10.964  66.785  1.00  0.00    -0.165 A  
HETATM    9  C   UNL     1      -8.979   9.853  65.981  1.00  0.00    -0.149 A  
HETATM   10  C   UNL     1      -9.382  10.816  68.192  1.00  0.00    -0.155 A  
HETATM   11  I   UNL     1      -8.883  10.121  63.821  1.00  0.00    -0.314 I  
HETATM   12  C   UNL     1      -8.589   8.614  66.564  1.00  0.00    -0.124 A  
HETATM   13  I   UNL     1     -10.447  12.280  69.386  1.00  0.00     0.853 I  
HETATM   14  I   UNL     1      -7.453   6.866  68.913  1.00  0.00    -0.100 I  
HETATM   15  C   UNL     1      -8.832   9.667  68.800  1.00  0.00    -0.130 A  
HETATM   16  C   UNL     1      -8.430   8.568  67.978  1.00  0.00    -0.131 A  
BRANCH  12  17
HETATM   17  C   UNL     1      -8.560   7.388  65.682  1.00  0.00    -0.112 C  
HETATM   18  N   UNL     1      -7.403   7.066  65.013  1.00  0.00    -0.078 N  
HETATM   19  H   UNL     1      -6.617   7.716  65.037  1.00  0.00     0.000 HD 
HETATM   20  O   UNL     1      -9.562   6.688  65.588  1.00  0.00     0.234 OA 
BRANCH  18  21
HETATM   21  C   UNL     1      -7.269   5.814  64.267  1.00  0.00    -0.055 C  
BRANCH  21  22
HETATM   22  C   UNL     1      -5.871   5.719  63.646  1.00  0.00    -0.021 C  
HETATM   23  O   UNL     1      -5.916   4.841  62.511  1.00  0.00    -0.013 OA 
HETATM   24  H   UNL     1      -5.050   4.782  62.126  1.00  0.00     0.000 HD 
BRANCH  22  25
HETATM   25  C   UNL     1      -5.315   7.091  63.238  1.00  0.00    -0.032 C  
HETATM   26  H   UNL     1      -5.902   8.975  63.296  1.00  0.00     0.000 HD 
HETATM   27  O   UNL     1      -6.247   8.127  63.549  1.00  0.00    -0.070 OA 
ENDBRANCH  22  25
ENDBRANCH  21  22
ENDBRANCH  18  21
ENDBRANCH  12  17
BRANCH  15  28
HETATM   28  C   UNL     1      -8.701   9.577  70.292  1.00  0.00    -0.235 C  
HETATM   29  O   UNL     1      -9.684   9.377  70.995  1.00  0.00    -0.275 OA 
HETATM   30  H   UNL     1      -6.623   9.872  70.235  1.00  0.00     0.000 HD 
HETATM   31  N   UNL     1      -7.432   9.717  70.836  1.00  0.00    -0.027 N  
BRANCH  31  32
HETATM   32  C   UNL     1      -7.280   9.638  72.284  1.00  0.00     1.439 C  
BRANCH  32  33
HETATM   33  C   UNL     1      -7.305   8.201  72.819  1.00  0.00    -0.119 C  
HETATM   34  H   UNL     1      -6.217   7.115  74.051  1.00  0.00     0.000 HD 
HETATM   35  O   UNL     1      -6.203   8.006  73.719  1.00  0.00    -0.079 OA 
BRANCH  33  36
HETATM   36  C   UNL     1      -8.638   7.914  73.529  1.00  0.00    -0.243 C  
HETATM   37  O   UNL     1      -9.575   7.286  72.658  1.00  0.00    -0.145 OA 
HETATM   38  H   UNL     1     -10.399   7.109  73.097  1.00  0.00     0.000 HD 
ENDBRANCH  33  36
ENDBRANCH  32  33
ENDBRANCH  31  32
ENDBRANCH  15  28
ENDBRANCH   5   8
BRANCH   6  39
HETATM   39  C   UNL     1      -9.658  14.713  66.030  1.00  0.00    -0.290 C  
HETATM   40  O   UNL     1      -9.797  15.742  67.005  1.00  0.00    -0.229 OA 
HETATM   41  H   UNL     1     -10.091  16.567  66.637  1.00  0.00     0.000 HD 
ENDBRANCH   6  39
ENDBRANCH   4   5
ENDBRANCH   3   4
TORSDOF 12
ENDMDL
MODEL      187
REMARK 921   NORMALIZED FREE ENERGY PREDICTED BY IDOCK:    2.72 KCAL/MOL
REMARK 922        TOTAL FREE ENERGY PREDICTED BY IDOCK:    4.35 KCAL/MOL
REMARK 923 INTER-LIGAND FREE ENERGY PREDICTED BY IDOCK:   -1.85 KCAL/MOL
REMARK 924 INTRA-LIGAND FREE ENERGY PREDICTED BY IDOCK:    6.19 KCAL/MOL
REMARK 927      BINDING AFFINITY PREDICTED BY RF-SCORE:    0.00 PKD
ROOT
HETATM    1  O   UNL     1      -8.791   6.899  64.052  1.00  0.00    -0.055 OA 
HETATM    2  H   UNL     1      -9.026   7.794  64.269  1.00  0.00     0.000 HD 
HETATM    3  C   UNL     1      -8.315   6.203  65.194  1.00  0.00    -0.129 C  
ENDROOT
BRANCH   3   4
HETATM    4  C   UNL     1      -7.937   4.759  64.844  1.00  0.00    -0.098 C  
BRANCH   4   5
HETATM    5  N   UNL     1      -7.716   3.861  66.001  1.00  0.00    -0.089 N  
HETATM    6  C   UNL     1      -6.931   2.704  65.971  1.00  0.00    -0.052 C  
HETATM    7  O   UNL     1      -6.626   2.079  66.999  1.00  0.00    -0.033 OA 
BRANCH   5   8
HETATM    8  C   UNL     1      -8.171   4.320  67.290  1.00  0.00    -0.100 A  
HETATM    9  C   UNL     1      -9.501   4.789  67.479  1.00  0.00    -0.146 A  
HETATM   10  C   UNL     1      -7.261   4.384  68.373  1.00  0.00    -0.060 A  
HETATM   11  I   UNL     1     -10.905   4.618  65.821  1.00  0.00     0.940 I  
HETATM   12  C   UNL     1      -9.941   5.286  68.738  1.00  0.00    -0.243 A  
HETATM   13  I   UNL     1      -5.139   4.186  67.977  1.00  0.00    -0.008 I  
HETATM   14  I   UNL     1      -9.792   5.491  71.869  1.00  0.00    -0.237 I  
HETATM   15  C   UNL     1      -7.715   4.700  69.672  1.00  0.00    -0.058 A  
HETATM   16  C   UNL     1      -9.063   5.146  69.849  1.00  0.00    -0.123 A  
BRANCH  12  17
HETATM   17  C   UNL     1     -11.214   6.098  68.779  1.00  0.00    -0.224 C  
HETATM   18  N   UNL     1     -11.765   6.428  69.995  1.00  0.00    -0.520 N  
HETATM   19  H   UNL     1     -11.367   6.030  70.845  1.00  0.00     0.000 HD 
HETATM   20  O   UNL     1     -11.729   6.468  67.729  1.00  0.00     0.291 OA 
BRANCH  18  21
HETATM   21  C   UNL     1     -12.908   7.337  70.100  1.00  0.00     0.983 C  
BRANCH  21  22
HETATM   22  C   UNL     1     -13.138   7.723  71.565  1.00  0.00    -0.320 C  
HETATM   23  O   UNL     1     -12.887   6.582  72.400  1.00  0.00    -0.536 OA 
HETATM   24  H   UNL     1     -13.030   6.820  73.308  1.00  0.00     0.000 HD 
BRANCH  22  25
HETATM   25  C   UNL     1     -12.269   8.908  72.005  1.00  0.00    -0.377 C  
HETATM   26  H   UNL     1     -11.056  10.217  71.158  1.00  0.00     0.000 HD 
HETATM   27  O   UNL     1     -11.594   9.483  70.886  1.00  0.00    -0.282 OA 
ENDBRANCH  22  25
ENDBRANCH  21  22
ENDBRANCH  18  21
ENDBRANCH  12  17
BRANCH  15  28
HETATM   28  C   UNL     1      -6.793   4.607  70.851  1.00  0.00    -0.036 C  
HETATM   29  O   UNL     1      -6.219   5.603  71.276  1.00  0.00    -0.032 OA 
HETATM   30  H   UNL     1      -7.121   2.546  71.082  1.00  0.00     0.000 HD 
HETATM   31  N   UNL     1      -6.627   3.363  71.441  1.00  0.00    -0.025 N  
BRANCH  31  32
HETATM   32  C   UNL     1      -5.731   3.247  72.586  1.00  0.00    -0.008 C  
BRANCH  32  33
HETATM   33  C   UNL     1      -6.443   3.420  73.934  1.00  0.00    -0.029 C  
HETATM   34  H   UNL     1      -7.720   4.695  74.723  1.00  0.00     0.000 HD 
HETATM   35  O   UNL     1      -7.278   4.587  73.888  1.00  0.00    -0.066 OA 
BRANCH  33  36
HETATM   36  C   UNL     1      -7.278   2.172  74.265  1.00  0.00    -0.032 C  
HETATM   37  O   UNL     1      -8.642   2.502  74.518  1.00  0.00    -0.069 OA 
HETATM   38  H   UNL     1      -9.158   1.731  74.722  1.00  0.00     0.000 HD 
ENDBRANCH  33  36
ENDBRANCH  32  33
ENDBRANCH  31  32
ENDBRANCH  15  28
ENDBRANCH   5   8
BRANCH   6  39
HETATM   39  C   UNL     1      -6.406   2.216  64.612  1.00  0.00    -0.019 C  
HETATM   40  O   UNL     1      -7.437   1.753  63.747  1.00  0.00    -0.054 OA 
HETATM   41  H   UNL     1      -7.111   1.451  62.906  1.00  0.00     0.000 HD 
ENDBRANCH   6  39
ENDBRANCH   4   5
ENDBRANCH   3   4
TORSDOF 12
ENDMDL
MODEL      188
REMARK 921   NORMALIZED FREE ENERGY PREDICTED BY IDOCK:    2.74 KCAL/MOL
REMARK 922        TOTAL FREE ENERGY PREDICTED BY IDOCK:    4.38 KCAL/MOL
REMARK 923 INTER-LIGAND FREE ENERGY PREDICTED BY IDOCK:   -6.09 KCAL/MOL
REMARK 924 INTRA-LIGAND FREE ENERGY PREDICTED BY IDOCK:   10.47 KCAL/MOL
REMARK 927      BINDING AFFINITY PREDICTED BY RF-SCORE:    0.00 PKD
ROOT
HETATM    1  O   UNL     1     -14.382  15.512  72.352  1.00  0.00    -0.558 OA 
HETATM    2  H   UNL     1     -15.317  15.625  72.474  1.00  0.00     0.000 HD 
HETATM    3  C   UNL     1     -14.049  15.449  70.974  1.00  0.00    -0.144 C  
ENDROOT
BRANCH   3   4
HETATM    4  C   UNL     1     -12.540  15.266  70.777  1.00  0.00    -0.417 C  
BRANCH   4   5
HETATM    5  N   UNL     1     -12.104  13.889  70.448  1.00  0.00    -0.335 N  
HETATM    6  C   UNL     1     -12.335  12.769  71.251  1.00  0.00    -0.059 C  
HETATM    7  O   UNL     1     -12.114  11.611  70.860  1.00  0.00    -0.341 OA 
BRANCH   5   8
HETATM    8  C   UNL     1     -11.591  13.658  69.119  1.00  0.00    -0.309 A  
HETATM    9  C   UNL     1     -11.598  12.358  68.543  1.00  0.00    -0.313 A  
HETATM   10  C   UNL     1     -10.997  14.724  68.402  1.00  0.00    -0.252 A  
HETATM   11  I   UNL     1     -12.578  10.745  69.632  1.00  0.00     0.709 I  
HETATM   12  C   UNL     1     -11.052  12.116  67.250  1.00  0.00    -0.341 A  
HETATM   13  I   UNL     1     -10.504  16.554  69.454  1.00  0.00    -0.193 I  
HETATM   14  I   UNL     1     -10.197  13.016  64.365  1.00  0.00     0.101 I  
HETATM   15  C   UNL     1     -10.615  14.553  67.054  1.00  0.00    -0.278 A  
HETATM   16  C   UNL     1     -10.650  13.243  66.480  1.00  0.00    -0.286 A  
BRANCH  12  17
HETATM   17  C   UNL     1     -10.753  10.688  66.857  1.00  0.00    -0.237 C  
HETATM   18  N   UNL     1      -9.664  10.422  66.061  1.00  0.00    -0.199 N  
HETATM   19  H   UNL     1      -9.139  11.200  65.661  1.00  0.00     0.000 HD 
HETATM   20  O   UNL     1     -11.475   9.785  67.267  1.00  0.00     0.136 OA 
BRANCH  18  21
HETATM   21  C   UNL     1      -9.239   9.051  65.774  1.00  0.00    -0.232 C  
BRANCH  21  22
HETATM   22  C   UNL     1      -8.175   9.053  64.671  1.00  0.00    -0.160 C  
HETATM   23  O   UNL     1      -8.584   9.942  63.620  1.00  0.00    -0.165 OA 
HETATM   24  H   UNL     1      -7.925   9.943  62.936  1.00  0.00     0.000 HD 
BRANCH  22  25
HETATM   25  C   UNL     1      -6.786   9.445  65.193  1.00  0.00    -0.084 C  
HETATM   26  H   UNL     1      -5.972  10.954  66.172  1.00  0.00     0.000 HD 
HETATM   27  O   UNL     1      -6.832  10.712  65.849  1.00  0.00    -0.129 OA 
ENDBRANCH  22  25
ENDBRANCH  21  22
ENDBRANCH  18  21
ENDBRANCH  12  17
BRANCH  15  28
HETATM   28  C   UNL     1     -10.140  15.719  66.237  1.00  0.00    -0.303 C  
HETATM   29  O   UNL     1      -9.006  15.737  65.773  1.00  0.00    -0.282 OA 
HETATM   30  H   UNL     1     -11.976  16.723  66.405  1.00  0.00     0.000 HD 
HETATM   31  N   UNL     1     -11.032  16.759  66.022  1.00  0.00     0.012 N  
BRANCH  31  32
HETATM   32  C   UNL     1     -10.592  17.905  65.235  1.00  0.00     0.286 C  
BRANCH  32  33
HETATM   33  C   UNL     1     -10.323  19.155  66.082  1.00  0.00    -0.484 C  
HETATM   34  H   UNL     1     -11.028  19.932  67.749  1.00  0.00     0.000 HD 
HETATM   35  O   UNL     1     -11.195  19.158  67.223  1.00  0.00    -0.299 OA 
BRANCH  33  36
HETATM   36  C   UNL     1      -8.852  19.195  66.528  1.00  0.00    -0.334 C  
HETATM   37  O   UNL     1      -8.605  18.305  67.613  1.00  0.00    -0.251 OA 
HETATM   38  H   UNL     1      -7.696  18.330  67.889  1.00  0.00     0.000 HD 
ENDBRANCH  33  36
ENDBRANCH  32  33
ENDBRANCH  31  32
ENDBRANCH  15  28
ENDBRANCH   5   8
BRANCH   6  39
HETATM   39  C   UNL     1     -12.915  12.988  72.657  1.00  0.00     0.157 C  
HETATM   40  O   UNL     1     -14.298  12.661  72.748  1.00  0.00    -0.504 OA 
HETATM   41  H   UNL     1     -14.657  12.796  73.618  1.00  0.00     0.000 HD 
ENDBRANCH   6  39
ENDBRANCH   4   5
ENDBRANCH   3   4
TORSDOF 12
ENDMDL
MODEL      189
REMARK 921   NORMALIZED FREE ENERGY PREDICTED BY IDOCK:    2.82 KCAL/MOL
REMARK 922        TOTAL FREE ENERGY PREDICTED BY IDOCK:    4.52 KCAL/MOL
REMARK 923 INTER-LIGAND FREE ENERGY PREDICTED BY IDOCK:   -3.32 KCAL/MOL
REMARK 924 INTRA-LIGAND FREE ENERGY PREDICTED BY IDOCK:    7.84 KCAL/MOL
REMARK 927      BINDING AFFINITY PREDICTED BY RF-SCORE:    0.00 PKD
ROOT
HETATM    1  O   UNL     1      -7.275  13.446  68.905  1.00  0.00    -0.116 OA 
HETATM    2  H   UNL     1      -6.851  13.924  69.608  1.00  0.00     0.000 HD 
HETATM    3  C   UNL     1      -8.491  12.861  69.345  1.00  0.00     1.168 C  
ENDROOT
BRANCH   3   4
HETATM    4  C   UNL     1      -9.175  12.088  68.211  1.00  0.00    -0.192 C  
BRANCH   4   5
HETATM    5  N   UNL     1     -10.195  11.102  68.638  1.00  0.00    -0.198 N  
HETATM    6  C   UNL     1     -11.491  11.427  69.051  1.00  0.00    -0.300 C  
HETATM    7  O   UNL     1     -12.369  10.568  69.229  1.00  0.00    -0.234 OA 
BRANCH   5   8
HETATM    8  C   UNL     1      -9.900   9.708  68.416  1.00  0.00    -0.153 A  
HETATM    9  C   UNL     1     -10.180   8.728  69.409  1.00  0.00    -0.210 A  
HETATM   10  C   UNL     1      -9.248   9.310  67.225  1.00  0.00    -0.126 A  
HETATM   11  I   UNL     1     -11.246   9.348  71.205  1.00  0.00    -0.413 I  
HETATM   12  C   UNL     1      -9.850   7.357  69.214  1.00  0.00    -0.168 A  
HETATM   13  I   UNL     1      -8.348  10.825  65.962  1.00  0.00    -0.103 I  
HETATM   14  I   UNL     1      -9.246   4.858  67.409  1.00  0.00    -0.173 I  
HETATM   15  C   UNL     1      -9.073   7.941  66.928  1.00  0.00    -0.172 A  
HETATM   16  C   UNL     1      -9.382   6.966  67.928  1.00  0.00    -0.118 A  
BRANCH  12  17
HETATM   17  C   UNL     1      -9.826   6.450  70.421  1.00  0.00    -0.169 C  
HETATM   18  N   UNL     1      -9.043   5.320  70.400  1.00  0.00    -0.136 N  
HETATM   19  H   UNL     1      -8.575   5.056  69.533  1.00  0.00     0.000 HD 
HETATM   20  O   UNL     1     -10.492   6.741  71.409  1.00  0.00    -0.213 OA 
BRANCH  18  21
HETATM   21  C   UNL     1      -8.863   4.487  71.590  1.00  0.00    -0.120 C  
BRANCH  21  22
HETATM   22  C   UNL     1     -10.144   3.695  71.874  1.00  0.00    -0.112 C  
HETATM   23  O   UNL     1      -9.970   2.340  71.432  1.00  0.00    -0.145 OA 
HETATM   24  H   UNL     1     -10.764   1.849  71.608  1.00  0.00     0.000 HD 
BRANCH  22  25
HETATM   25  C   UNL     1     -10.538   3.727  73.357  1.00  0.00    -0.193 C  
HETATM   26  H   UNL     1     -10.257   4.910  74.913  1.00  0.00     0.000 HD 
HETATM   27  O   UNL     1     -10.012   4.891  73.995  1.00  0.00    -0.148 OA 
ENDBRANCH  22  25
ENDBRANCH  21  22
ENDBRANCH  18  21
ENDBRANCH  12  17
BRANCH  15  28
HETATM   28  C   UNL     1      -8.536   7.508  65.596  1.00  0.00    -0.132 C  
HETATM   29  O   UNL     1      -9.279   7.392  64.629  1.00  0.00     0.847 OA 
HETATM   30  H   UNL     1      -6.568   7.369  66.315  1.00  0.00     0.000 HD 
HETATM   31  N   UNL     1      -7.175   7.256  65.503  1.00  0.00    -0.064 N  
BRANCH  31  32
HETATM   32  C   UNL     1      -6.629   6.829  64.220  1.00  0.00    -0.042 C  
BRANCH  32  33
HETATM   33  C   UNL     1      -6.730   7.902  63.129  1.00  0.00    -0.079 C  
HETATM   34  H   UNL     1      -7.947   9.387  62.693  1.00  0.00     0.000 HD 
HETATM   35  O   UNL     1      -7.885   8.722  63.368  1.00  0.00    -0.132 OA 
BRANCH  33  36
HETATM   36  C   UNL     1      -5.455   8.762  63.102  1.00  0.00    -0.069 C  
HETATM   37  O   UNL     1      -5.633   9.991  63.802  1.00  0.00    -0.095 OA 
HETATM   38  H   UNL     1      -4.846  10.522  63.785  1.00  0.00     0.000 HD 
ENDBRANCH  33  36
ENDBRANCH  32  33
ENDBRANCH  31  32
ENDBRANCH  15  28
ENDBRANCH   5   8
BRANCH   6  39
HETATM   39  C   UNL     1     -11.839  12.909  69.259  1.00  0.00    -0.309 C  
HETATM   40  O   UNL     1     -11.496  13.388  70.555  1.00  0.00    -0.505 OA 
HETATM   41  H   UNL     1     -11.712  14.305  70.683  1.00  0.00     0.000 HD 
ENDBRANCH   6  39
ENDBRANCH   4   5
ENDBRANCH   3   4
TORSDOF 12
ENDMDL
MODEL      190
REMARK 921   NORMALIZED FREE ENERGY PREDICTED BY IDOCK:    2.88 KCAL/MOL
REMARK 922        TOTAL FREE ENERGY PREDICTED BY IDOCK:    4.62 KCAL/MOL
REMARK 923 INTER-LIGAND FREE ENERGY PREDICTED BY IDOCK:    2.94 KCAL/MOL
REMARK 924 INTRA-LIGAND FREE ENERGY PREDICTED BY IDOCK:    1.68 KCAL/MOL
REMARK 927      BINDING AFFINITY PREDICTED BY RF-SCORE:    0.00 PKD
ROOT
HETATM    1  O   UNL     1      -9.795  15.282  72.065  1.00  0.00     1.512 OA 
HETATM    2  H   UNL     1      -8.868  15.076  72.086  1.00  0.00     0.000 HD 
HETATM    3  C   UNL     1     -10.569  14.219  72.599  1.00  0.00     4.299 C  
ENDROOT
BRANCH   3   4
HETATM    4  C   UNL     1     -12.065  14.552  72.564  1.00  0.00    -0.060 C  
BRANCH   4   5
HETATM    5  N   UNL     1     -12.718  14.405  71.243  1.00  0.00    -0.323 N  
HETATM    6  C   UNL     1     -13.760  15.212  70.777  1.00  0.00    -0.183 C  
HETATM    7  O   UNL     1     -14.159  15.174  69.602  1.00  0.00     2.173 OA 
BRANCH   5   8
HETATM    8  C   UNL     1     -12.103  13.505  70.298  1.00  0.00    -0.355 A  
HETATM    9  C   UNL     1     -12.113  12.098  70.506  1.00  0.00    -0.293 A  
HETATM   10  C   UNL     1     -11.406  14.029  69.183  1.00  0.00    -0.281 A  
HETATM   11  I   UNL     1     -13.249  11.307  72.189  1.00  0.00     0.882 I  
HETATM   12  C   UNL     1     -11.468  11.209  69.600  1.00  0.00    -0.383 A  
HETATM   13  I   UNL     1     -10.930  16.144  69.138  1.00  0.00    -0.315 I  
HETATM   14  I   UNL     1     -10.330  10.437  66.777  1.00  0.00    -0.235 I  
HETATM   15  C   UNL     1     -10.915  13.168  68.178  1.00  0.00    -0.275 A  
HETATM   16  C   UNL     1     -10.954  11.754  68.390  1.00  0.00    -0.231 A  
BRANCH  12  17
HETATM   17  C   UNL     1     -11.195   9.796  70.060  1.00  0.00    -0.251 C  
HETATM   18  N   UNL     1      -9.928   9.453  70.469  1.00  0.00    -0.249 N  
HETATM   19  H   UNL     1      -9.170  10.126  70.356  1.00  0.00     0.000 HD 
HETATM   20  O   UNL     1     -12.110   8.979  70.078  1.00  0.00     0.263 OA 
BRANCH  18  21
HETATM   21  C   UNL     1      -9.640   8.147  71.065  1.00  0.00    -0.159 C  
BRANCH  21  22
HETATM   22  C   UNL     1      -9.156   7.174  69.985  1.00  0.00    -0.145 C  
HETATM   23  O   UNL     1     -10.142   7.092  68.945  1.00  0.00    -0.167 OA 
HETATM   24  H   UNL     1      -9.842   6.489  68.275  1.00  0.00     0.000 HD 
BRANCH  22  25
HETATM   25  C   UNL     1      -7.794   7.573  69.400  1.00  0.00    -0.121 C  
HETATM   26  H   UNL     1      -5.990   6.785  69.244  1.00  0.00     0.000 HD 
HETATM   27  O   UNL     1      -6.832   6.538  69.606  1.00  0.00    -0.060 OA 
ENDBRANCH  22  25
ENDBRANCH  21  22
ENDBRANCH  18  21
ENDBRANCH  12  17
BRANCH  15  28
HETATM   28  C   UNL     1     -10.325  13.722  66.915  1.00  0.00    -0.266 C  
HETATM   29  O   UNL     1      -9.122  13.941  66.830  1.00  0.00    -0.239 OA 
HETATM   30  H   UNL     1     -12.182  13.764  65.937  1.00  0.00     0.000 HD 
HETATM   31  N   UNL     1     -11.185  13.963  65.854  1.00  0.00    -0.295 N  
BRANCH  31  32
HETATM   32  C   UNL     1     -10.634  14.506  64.617  1.00  0.00    -0.272 C  
BRANCH  32  33
HETATM   33  C   UNL     1     -11.060  15.955  64.348  1.00  0.00    -0.148 C  
HETATM   34  H   UNL     1     -12.652  16.868  63.634  1.00  0.00     0.000 HD 
HETATM   35  O   UNL     1     -12.388  15.971  63.800  1.00  0.00    -0.858 OA 
BRANCH  33  36
HETATM   36  C   UNL     1     -11.002  16.781  65.644  1.00  0.00     0.004 C  
HETATM   37  O   UNL     1     -10.629  18.134  65.390  1.00  0.00    -0.636 OA 
HETATM   38  H   UNL     1     -10.593  18.644  66.191  1.00  0.00     0.000 HD 
ENDBRANCH  33  36
ENDBRANCH  32  33
ENDBRANCH  31  32
ENDBRANCH  15  28
ENDBRANCH   5   8
BRANCH   6  39
HETATM   39  C   UNL     1     -14.406  16.204  71.757  1.00  0.00     1.096 C  
HETATM   40  O   UNL     1     -14.271  15.813  73.119  1.00  0.00    -0.488 OA 
HETATM   41  H   UNL     1     -14.671  16.427  73.725  1.00  0.00     0.000 HD 
ENDBRANCH   6  39
ENDBRANCH   4   5
ENDBRANCH   3   4
TORSDOF 12
ENDMDL
MODEL      191
REMARK 921   NORMALIZED FREE ENERGY PREDICTED BY IDOCK:    2.95 KCAL/MOL
REMARK 922        TOTAL FREE ENERGY PREDICTED BY IDOCK:    4.75 KCAL/MOL
REMARK 923 INTER-LIGAND FREE ENERGY PREDICTED BY IDOCK:   -2.08 KCAL/MOL
REMARK 924 INTRA-LIGAND FREE ENERGY PREDICTED BY IDOCK:    6.83 KCAL/MOL
REMARK 927      BINDING AFFINITY PREDICTED BY RF-SCORE:    0.00 PKD
ROOT
HETATM    1  O   UNL     1     -12.917  15.957  73.316  1.00  0.00    -0.482 OA 
HETATM    2  H   UNL     1     -13.670  16.504  73.506  1.00  0.00     0.000 HD 
HETATM    3  C   UNL     1     -13.014  15.383  72.021  1.00  0.00    -0.401 C  
ENDROOT
BRANCH   3   4
HETATM    4  C   UNL     1     -11.798  14.499  71.716  1.00  0.00    -0.131 C  
BRANCH   4   5
HETATM    5  N   UNL     1     -12.085  13.267  70.946  1.00  0.00    -0.258 N  
HETATM    6  C   UNL     1     -13.236  12.487  71.094  1.00  0.00     0.102 C  
HETATM    7  O   UNL     1     -13.524  11.568  70.311  1.00  0.00     0.753 OA 
BRANCH   5   8
HETATM    8  C   UNL     1     -11.221  12.968  69.831  1.00  0.00     0.151 A  
HETATM    9  C   UNL     1     -10.789  11.637  69.569  1.00  0.00    -0.029 A  
HETATM   10  C   UNL     1     -10.725  14.021  69.026  1.00  0.00    -0.211 A  
HETATM   11  I   UNL     1     -11.617  10.023  70.774  1.00  0.00    -0.460 I  
HETATM   12  C   UNL     1      -9.900  11.343  68.496  1.00  0.00    -0.200 A  
HETATM   13  I   UNL     1     -10.936  16.064  69.720  1.00  0.00    -0.342 I  
HETATM   14  I   UNL     1      -8.583  11.953  65.711  1.00  0.00     0.768 I  
HETATM   15  C   UNL     1      -9.992  13.741  67.853  1.00  0.00    -0.240 A  
HETATM   16  C   UNL     1      -9.585  12.394  67.590  1.00  0.00    -0.193 A  
BRANCH  12  17
HETATM   17  C   UNL     1      -9.198  10.006  68.499  1.00  0.00    -0.141 C  
HETATM   18  N   UNL     1      -7.878   9.938  68.880  1.00  0.00    -0.086 N  
HETATM   19  H   UNL     1      -7.365  10.803  69.051  1.00  0.00     0.000 HD 
HETATM   20  O   UNL     1      -9.817   8.998  68.177  1.00  0.00    -0.156 OA 
BRANCH  18  21
HETATM   21  C   UNL     1      -7.191   8.656  69.046  1.00  0.00    -0.072 C  
BRANCH  21  22
HETATM   22  C   UNL     1      -5.850   8.868  69.757  1.00  0.00    -0.028 C  
HETATM   23  O   UNL     1      -5.556  10.273  69.804  1.00  0.00    -0.037 OA 
HETATM   24  H   UNL     1      -4.725  10.405  70.245  1.00  0.00     0.000 HD 
BRANCH  22  25
HETATM   25  C   UNL     1      -5.832   8.270  71.170  1.00  0.00    -0.034 C  
HETATM   26  H   UNL     1      -5.310   6.568  72.024  1.00  0.00     0.000 HD 
HETATM   27  O   UNL     1      -5.321   6.938  71.149  1.00  0.00    -0.026 OA 
ENDBRANCH  22  25
ENDBRANCH  21  22
ENDBRANCH  18  21
ENDBRANCH  12  17
BRANCH  15  28
HETATM   28  C   UNL     1      -9.607  14.840  66.908  1.00  0.00    -0.241 C  
HETATM   29  O   UNL     1      -8.440  14.991  66.566  1.00  0.00    -0.217 OA 
HETATM   30  H   UNL     1     -11.585  15.516  66.717  1.00  0.00     0.000 HD 
HETATM   31  N   UNL     1     -10.617  15.662  66.432  1.00  0.00    -0.305 N  
BRANCH  31  32
HETATM   32  C   UNL     1     -10.266  16.741  65.515  1.00  0.00    -0.164 C  
BRANCH  32  33
HETATM   33  C   UNL     1      -9.914  18.053  66.228  1.00  0.00    -0.337 C  
HETATM   34  H   UNL     1     -10.275  18.867  67.985  1.00  0.00     0.000 HD 
HETATM   35  O   UNL     1     -10.493  18.055  67.543  1.00  0.00    -0.371 OA 
BRANCH  33  36
HETATM   36  C   UNL     1      -8.388  18.226  66.312  1.00  0.00    -0.203 C  
HETATM   37  O   UNL     1      -8.020  19.594  66.467  1.00  0.00    -0.272 OA 
HETATM   38  H   UNL     1      -7.078  19.701  66.519  1.00  0.00     0.000 HD 
ENDBRANCH  33  36
ENDBRANCH  32  33
ENDBRANCH  31  32
ENDBRANCH  15  28
ENDBRANCH   5   8
BRANCH   6  39
HETATM   39  C   UNL     1     -14.191  12.811  72.254  1.00  0.00     0.146 C  
HETATM   40  O   UNL     1     -14.052  11.922  73.358  1.00  0.00     1.638 OA 
HETATM   41  H   UNL     1     -14.642  12.122  74.075  1.00  0.00     0.000 HD 
ENDBRANCH   6  39
ENDBRANCH   4   5
ENDBRANCH   3   4
TORSDOF 12
ENDMDL
MODEL      192
REMARK 921   NORMALIZED FREE ENERGY PREDICTED BY IDOCK:    3.64 KCAL/MOL
REMARK 922        TOTAL FREE ENERGY PREDICTED BY IDOCK:    5.91 KCAL/MOL
REMARK 923 INTER-LIGAND FREE ENERGY PREDICTED BY IDOCK:   -4.54 KCAL/MOL
REMARK 924 INTRA-LIGAND FREE ENERGY PREDICTED BY IDOCK:   10.46 KCAL/MOL
REMARK 927      BINDING AFFINITY PREDICTED BY RF-SCORE:    0.00 PKD
ROOT
HETATM    1  O   UNL     1     -14.411  15.518  72.360  1.00  0.00    -0.558 OA 
HETATM    2  H   UNL     1     -15.353  15.619  72.422  1.00  0.00     0.000 HD 
HETATM    3  C   UNL     1     -13.997  15.394  71.008  1.00  0.00    -0.210 C  
ENDROOT
BRANCH   3   4
HETATM    4  C   UNL     1     -12.475  15.231  70.908  1.00  0.00    -0.388 C  
BRANCH   4   5
HETATM    5  N   UNL     1     -12.001  13.861  70.608  1.00  0.00    -0.317 N  
HETATM    6  C   UNL     1     -12.312  12.728  71.365  1.00  0.00     0.037 C  
HETATM    7  O   UNL     1     -12.046  11.577  70.983  1.00  0.00    -0.307 OA 
BRANCH   5   8
HETATM    8  C   UNL     1     -11.347  13.651  69.339  1.00  0.00    -0.245 A  
HETATM    9  C   UNL     1     -11.331  12.369  68.721  1.00  0.00    -0.293 A  
HETATM   10  C   UNL     1     -10.640  14.715  68.730  1.00  0.00    -0.248 A  
HETATM   11  I   UNL     1     -12.483  10.763  69.637  1.00  0.00     0.452 I  
HETATM   12  C   UNL     1     -10.650  12.146  67.491  1.00  0.00    -0.240 A  
HETATM   13  I   UNL     1     -10.209  16.493  69.893  1.00  0.00     0.514 I  
HETATM   14  I   UNL     1      -9.440  13.100  64.754  1.00  0.00     1.509 I  
HETATM   15  C   UNL     1     -10.111  14.570  67.429  1.00  0.00    -0.235 A  
HETATM   16  C   UNL     1     -10.124  13.280  66.810  1.00  0.00    -0.258 A  
BRANCH  12  17
HETATM   17  C   UNL     1     -10.356  10.721  67.086  1.00  0.00    -0.224 C  
HETATM   18  N   UNL     1     -10.912   9.688  67.803  1.00  0.00    -0.479 N  
HETATM   19  H   UNL     1     -11.426   9.897  68.659  1.00  0.00     0.000 HD 
HETATM   20  O   UNL     1      -9.639  10.505  66.114  1.00  0.00    -0.176 OA 
BRANCH  18  21
HETATM   21  C   UNL     1     -10.786   8.296  67.369  1.00  0.00    -0.035 C  
BRANCH  21  22
HETATM   22  C   UNL     1     -10.767   7.366  68.587  1.00  0.00    -0.101 C  
HETATM   23  O   UNL     1     -11.451   6.146  68.262  1.00  0.00    -0.398 OA 
HETATM   24  H   UNL     1     -11.439   5.570  69.017  1.00  0.00     0.000 HD 
BRANCH  22  25
HETATM   25  C   UNL     1      -9.343   7.067  69.076  1.00  0.00    -0.136 C  
HETATM   26  H   UNL     1      -8.443   6.691  70.793  1.00  0.00     0.000 HD 
HETATM   27  O   UNL     1      -9.324   6.876  70.491  1.00  0.00    -0.159 OA 
ENDBRANCH  22  25
ENDBRANCH  21  22
ENDBRANCH  18  21
ENDBRANCH  12  17
BRANCH  15  28
HETATM   28  C   UNL     1      -9.508  15.741  66.712  1.00  0.00    -0.240 C  
HETATM   29  O   UNL     1      -8.302  15.792  66.500  1.00  0.00    -0.272 OA 
HETATM   30  H   UNL     1     -11.366  16.687  66.466  1.00  0.00     0.000 HD 
HETATM   31  N   UNL     1     -10.363  16.749  66.292  1.00  0.00    -0.319 N  
BRANCH  31  32
HETATM   32  C   UNL     1      -9.799  17.901  65.597  1.00  0.00     0.304 C  
BRANCH  32  33
HETATM   33  C   UNL     1     -10.406  19.237  66.044  1.00  0.00    -0.475 C  
HETATM   34  H   UNL     1     -11.711  19.834  67.391  1.00  0.00     0.000 HD 
HETATM   35  O   UNL     1     -11.335  19.007  67.114  1.00  0.00    -0.037 OA 
BRANCH  33  36
HETATM   36  C   UNL     1      -9.299  20.207  66.489  1.00  0.00    -0.356 C  
HETATM   37  O   UNL     1      -8.246  20.282  65.531  1.00  0.00    -0.449 OA 
HETATM   38  H   UNL     1      -7.563  20.881  65.807  1.00  0.00     0.000 HD 
ENDBRANCH  33  36
ENDBRANCH  32  33
ENDBRANCH  31  32
ENDBRANCH  15  28
ENDBRANCH   5   8
BRANCH   6  39
HETATM   39  C   UNL     1     -13.041  12.924  72.703  1.00  0.00     0.133 C  
HETATM   40  O   UNL     1     -14.349  12.362  72.716  1.00  0.00    -0.338 OA 
HETATM   41  H   UNL     1     -14.800  12.484  73.543  1.00  0.00     0.000 HD 
ENDBRANCH   6  39
ENDBRANCH   4   5
ENDBRANCH   3   4
TORSDOF 12
ENDMDL
MODEL      193
REMARK 921   NORMALIZED FREE ENERGY PREDICTED BY IDOCK:    3.65 KCAL/MOL
REMARK 922        TOTAL FREE ENERGY PREDICTED BY IDOCK:    5.94 KCAL/MOL
REMARK 923 INTER-LIGAND FREE ENERGY PREDICTED BY IDOCK:    3.24 KCAL/MOL
REMARK 924 INTRA-LIGAND FREE ENERGY PREDICTED BY IDOCK:    2.70 KCAL/MOL
REMARK 927      BINDING AFFINITY PREDICTED BY RF-SCORE:    0.00 PKD
ROOT
HETATM    1  O   UNL     1     -12.269   4.692  69.686  1.00  0.00     7.876 OA 
HETATM    2  H   UNL     1     -12.157   3.773  69.472  1.00  0.00     0.000 HD 
HETATM    3  C   UNL     1     -11.071   5.421  69.459  1.00  0.00     0.389 C  
ENDROOT
BRANCH   3   4
HETATM    4  C   UNL     1     -11.253   6.904  69.804  1.00  0.00    -0.267 C  
BRANCH   4   5
HETATM    5  N   UNL     1     -10.031   7.604  70.264  1.00  0.00    -0.188 N  
HETATM    6  C   UNL     1      -9.429   7.415  71.511  1.00  0.00    -0.151 C  
HETATM    7  O   UNL     1      -8.313   7.882  71.790  1.00  0.00    -0.105 OA 
BRANCH   5   8
HETATM    8  C   UNL     1      -9.302   8.373  69.285  1.00  0.00    -0.154 A  
HETATM    9  C   UNL     1      -9.647   9.724  69.004  1.00  0.00    -0.177 A  
HETATM   10  C   UNL     1      -8.277   7.756  68.530  1.00  0.00    -0.128 A  
HETATM   11  I   UNL     1     -11.181  10.678  70.224  1.00  0.00    -0.082 I  
HETATM   12  C   UNL     1      -8.961  10.474  68.007  1.00  0.00    -0.135 A  
HETATM   13  I   UNL     1      -8.100   5.595  68.565  1.00  0.00    -0.103 I  
HETATM   14  I   UNL     1      -6.468  11.095  66.200  1.00  0.00     0.249 I  
HETATM   15  C   UNL     1      -7.463   8.522  67.668  1.00  0.00    -0.094 A  
HETATM   16  C   UNL     1      -7.808   9.887  67.414  1.00  0.00    -0.098 A  
BRANCH  12  17
HETATM   17  C   UNL     1      -9.601  11.746  67.504  1.00  0.00    -0.177 C  
HETATM   18  N   UNL     1     -10.247  11.740  66.290  1.00  0.00    -0.215 N  
HETATM   19  H   UNL     1     -10.192  10.909  65.701  1.00  0.00     0.000 HD 
HETATM   20  O   UNL     1      -9.551  12.760  68.191  1.00  0.00    -0.214 OA 
BRANCH  18  21
HETATM   21  C   UNL     1     -11.013  12.897  65.821  1.00  0.00    -0.278 C  
BRANCH  21  22
HETATM   22  C   UNL     1     -11.068  12.904  64.290  1.00  0.00    -0.378 C  
HETATM   23  O   UNL     1     -11.106  11.550  63.812  1.00  0.00    -0.382 OA 
HETATM   24  H   UNL     1     -11.140  11.554  62.863  1.00  0.00     0.000 HD 
BRANCH  22  25
HETATM   25  C   UNL     1     -12.266  13.696  63.748  1.00  0.00    -0.356 C  
HETATM   26  H   UNL     1     -13.561  15.023  64.428  1.00  0.00     0.000 HD 
HETATM   27  O   UNL     1     -12.820  14.533  64.764  1.00  0.00    -0.603 OA 
ENDBRANCH  22  25
ENDBRANCH  21  22
ENDBRANCH  18  21
ENDBRANCH  12  17
BRANCH  15  28
HETATM   28  C   UNL     1      -6.271   7.910  66.993  1.00  0.00    -0.054 C  
HETATM   29  O   UNL     1      -5.136   8.266  67.285  1.00  0.00    -0.031 OA 
HETATM   30  H   UNL     1      -7.455   6.633  65.820  1.00  0.00     0.000 HD 
HETATM   31  N   UNL     1      -6.504   6.926  66.043  1.00  0.00    -0.049 N  
BRANCH  31  32
HETATM   32  C   UNL     1      -5.361   6.321  65.370  1.00  0.00    -0.014 C  
BRANCH  32  33
HETATM   33  C   UNL     1      -5.534   6.225  63.849  1.00  0.00    -0.018 C  
HETATM   34  H   UNL     1      -6.537   5.087  62.593  1.00  0.00     0.000 HD 
HETATM   35  O   UNL     1      -6.429   5.146  63.535  1.00  0.00    -0.025 OA 
BRANCH  33  36
HETATM   36  C   UNL     1      -6.069   7.551  63.284  1.00  0.00    -0.054 C  
HETATM   37  O   UNL     1      -6.901   8.227  64.224  1.00  0.00    -0.065 OA 
HETATM   38  H   UNL     1      -7.232   9.047  63.875  1.00  0.00     0.000 HD 
ENDBRANCH  33  36
ENDBRANCH  32  33
ENDBRANCH  31  32
ENDBRANCH  15  28
ENDBRANCH   5   8
BRANCH   6  39
HETATM   39  C   UNL     1     -10.170   6.568  72.557  1.00  0.00    -0.183 C  
HETATM   40  O   UNL     1     -11.334   7.208  73.071  1.00  0.00    -0.495 OA 
HETATM   41  H   UNL     1     -11.793   6.684  73.718  1.00  0.00     0.000 HD 
ENDBRANCH   6  39
ENDBRANCH   4   5
ENDBRANCH   3   4
TORSDOF 12
ENDMDL
MODEL      194
REMARK 921   NORMALIZED FREE ENERGY PREDICTED BY IDOCK:    3.69 KCAL/MOL
REMARK 922        TOTAL FREE ENERGY PREDICTED BY IDOCK:    6.00 KCAL/MOL
REMARK 923 INTER-LIGAND FREE ENERGY PREDICTED BY IDOCK:    3.01 KCAL/MOL
REMARK 924 INTRA-LIGAND FREE ENERGY PREDICTED BY IDOCK:    2.99 KCAL/MOL
REMARK 927      BINDING AFFINITY PREDICTED BY RF-SCORE:    0.00 PKD
ROOT
HETATM    1  O   UNL     1      -9.650  15.234  72.057  1.00  0.00     2.198 OA 
HETATM    2  H   UNL     1      -8.748  14.944  71.979  1.00  0.00     0.000 HD 
HETATM    3  C   UNL     1     -10.461  14.229  72.648  1.00  0.00     4.816 C  
ENDROOT
BRANCH   3   4
HETATM    4  C   UNL     1     -11.916  14.696  72.774  1.00  0.00    -0.037 C  
BRANCH   4   5
HETATM    5  N   UNL     1     -12.666  14.790  71.500  1.00  0.00    -0.310 N  
HETATM    6  C   UNL     1     -13.786  15.602  71.295  1.00  0.00    -0.236 C  
HETATM    7  O   UNL     1     -14.276  15.789  70.170  1.00  0.00     0.762 OA 
BRANCH   5   8
HETATM    8  C   UNL     1     -12.082  14.161  70.341  1.00  0.00    -0.346 A  
HETATM    9  C   UNL     1     -12.105  12.748  70.179  1.00  0.00    -0.298 A  
HETATM   10  C   UNL     1     -11.401  14.950  69.383  1.00  0.00    -0.290 A  
HETATM   11  I   UNL     1     -13.217  11.557  71.626  1.00  0.00     0.210 I  
HETATM   12  C   UNL     1     -11.491  12.118  69.060  1.00  0.00    -0.351 A  
HETATM   13  I   UNL     1     -10.900  17.001  69.875  1.00  0.00     1.033 I  
HETATM   14  I   UNL     1     -10.420  12.094  66.107  1.00  0.00    -0.321 I  
HETATM   15  C   UNL     1     -10.942  14.375  68.178  1.00  0.00    -0.265 A  
HETATM   16  C   UNL     1     -10.995  12.954  68.020  1.00  0.00    -0.247 A  
BRANCH  12  17
HETATM   17  C   UNL     1     -11.226  10.633  69.132  1.00  0.00    -0.265 C  
HETATM   18  N   UNL     1      -9.985  10.187  69.522  1.00  0.00    -0.225 N  
HETATM   19  H   UNL     1      -9.232  10.863  69.652  1.00  0.00     0.000 HD 
HETATM   20  O   UNL     1     -12.126   9.845  68.860  1.00  0.00     0.328 OA 
BRANCH  18  21
HETATM   21  C   UNL     1      -9.716   8.767  69.755  1.00  0.00    -0.177 C  
BRANCH  21  22
HETATM   22  C   UNL     1     -10.742   8.194  70.740  1.00  0.00    -0.222 C  
HETATM   23  O   UNL     1     -11.217   6.932  70.246  1.00  0.00    -0.280 OA 
HETATM   24  H   UNL     1     -11.852   6.577  70.856  1.00  0.00     0.000 HD 
BRANCH  22  25
HETATM   25  C   UNL     1     -10.172   8.034  72.156  1.00  0.00    -0.244 C  
HETATM   26  H   UNL     1     -10.371   6.784  73.672  1.00  0.00     0.000 HD 
HETATM   27  O   UNL     1     -10.724   6.883  72.796  1.00  0.00    -0.224 OA 
ENDBRANCH  22  25
ENDBRANCH  21  22
ENDBRANCH  18  21
ENDBRANCH  12  17
BRANCH  15  28
HETATM   28  C   UNL     1     -10.371  15.232  67.088  1.00  0.00    -0.265 C  
HETATM   29  O   UNL     1      -9.330  14.915  66.523  1.00  0.00    -0.249 OA 
HETATM   30  H   UNL     1     -11.937  16.624  67.213  1.00  0.00     0.000 HD 
HETATM   31  N   UNL     1     -11.066  16.381  66.741  1.00  0.00     0.025 N  
BRANCH  31  32
HETATM   32  C   UNL     1     -10.528  17.233  65.687  1.00  0.00    -0.181 C  
BRANCH  32  33
HETATM   33  C   UNL     1     -10.117  18.625  66.183  1.00  0.00    -0.369 C  
HETATM   34  H   UNL     1     -10.927  20.051  67.272  1.00  0.00     0.000 HD 
HETATM   35  O   UNL     1     -11.182  19.188  66.965  1.00  0.00    -0.234 OA 
BRANCH  33  36
HETATM   36  C   UNL     1      -8.825  18.540  67.012  1.00  0.00    -0.278 C  
HETATM   37  O   UNL     1      -8.011  19.698  66.839  1.00  0.00    -0.263 OA 
HETATM   38  H   UNL     1      -7.213  19.646  67.352  1.00  0.00     0.000 HD 
ENDBRANCH  33  36
ENDBRANCH  32  33
ENDBRANCH  31  32
ENDBRANCH  15  28
ENDBRANCH   5   8
BRANCH   6  39
HETATM   39  C   UNL     1     -14.403  16.312  72.510  1.00  0.00     0.646 C  
HETATM   40  O   UNL     1     -13.494  16.454  73.596  1.00  0.00    -0.833 OA 
HETATM   41  H   UNL     1     -13.876  16.893  74.348  1.00  0.00     0.000 HD 
ENDBRANCH   6  39
ENDBRANCH   4   5
ENDBRANCH   3   4
TORSDOF 12
ENDMDL
MODEL      195
REMARK 921   NORMALIZED FREE ENERGY PREDICTED BY IDOCK:    4.36 KCAL/MOL
REMARK 922        TOTAL FREE ENERGY PREDICTED BY IDOCK:    7.14 KCAL/MOL
REMARK 923 INTER-LIGAND FREE ENERGY PREDICTED BY IDOCK:    2.53 KCAL/MOL
REMARK 924 INTRA-LIGAND FREE ENERGY PREDICTED BY IDOCK:    4.61 KCAL/MOL
REMARK 927      BINDING AFFINITY PREDICTED BY RF-SCORE:    0.00 PKD
ROOT
HETATM    1  O   UNL     1      -7.402   5.764  71.823  1.00  0.00    -0.088 OA 
HETATM    2  H   UNL     1      -6.944   4.986  72.118  1.00  0.00     0.000 HD 
HETATM    3  C   UNL     1      -8.400   5.440  70.867  1.00  0.00    -0.118 C  
ENDROOT
BRANCH   3   4
HETATM    4  C   UNL     1      -9.139   6.696  70.390  1.00  0.00    -0.152 C  
BRANCH   4   5
HETATM    5  N   UNL     1     -10.058   6.498  69.246  1.00  0.00    -0.163 N  
HETATM    6  C   UNL     1     -11.452   6.580  69.323  1.00  0.00    -0.238 C  
HETATM    7  O   UNL     1     -12.176   6.586  68.315  1.00  0.00     1.807 OA 
BRANCH   5   8
HETATM    8  C   UNL     1      -9.470   6.421  67.931  1.00  0.00    -0.115 A  
HETATM    9  C   UNL     1      -9.053   7.593  67.240  1.00  0.00    -0.127 A  
HETATM   10  C   UNL     1      -9.376   5.169  67.277  1.00  0.00    -0.122 A  
HETATM   11  I   UNL     1      -9.140   9.501  68.289  1.00  0.00    -0.135 I  
HETATM   12  C   UNL     1      -8.513   7.526  65.925  1.00  0.00    -0.153 A  
HETATM   13  I   UNL     1     -10.474   3.480  68.077  1.00  0.00     3.865 I  
HETATM   14  I   UNL     1      -7.057   6.038  63.573  1.00  0.00    -0.062 I  
HETATM   15  C   UNL     1      -8.683   5.052  66.053  1.00  0.00    -0.127 A  
HETATM   16  C   UNL     1      -8.247   6.238  65.382  1.00  0.00    -0.142 A  
BRANCH  12  17
HETATM   17  C   UNL     1      -8.440   8.801  65.118  1.00  0.00    -0.174 C  
HETATM   18  N   UNL     1      -7.609   9.815  65.532  1.00  0.00    -0.113 N  
HETATM   19  H   UNL     1      -7.136   9.734  66.432  1.00  0.00     0.000 HD 
HETATM   20  O   UNL     1      -9.111   8.908  64.096  1.00  0.00     0.042 OA 
BRANCH  18  21
HETATM   21  C   UNL     1      -7.384  11.008  64.713  1.00  0.00     0.615 C  
BRANCH  21  22
HETATM   22  C   UNL     1      -7.639  10.687  63.237  1.00  0.00     0.084 C  
HETATM   23  O   UNL     1      -7.933  11.903  62.532  1.00  0.00    -0.291 OA 
HETATM   24  H   UNL     1      -8.092  11.704  61.617  1.00  0.00     0.000 HD 
BRANCH  22  25
HETATM   25  C   UNL     1      -6.456   9.961  62.579  1.00  0.00    -0.111 C  
HETATM   26  H   UNL     1      -4.504   9.824  62.843  1.00  0.00     0.000 HD 
HETATM   27  O   UNL     1      -5.235  10.274  63.250  1.00  0.00    -0.098 OA 
ENDBRANCH  22  25
ENDBRANCH  21  22
ENDBRANCH  18  21
ENDBRANCH  12  17
BRANCH  15  28
HETATM   28  C   UNL     1      -8.435   3.706  65.438  1.00  0.00    -0.106 C  
HETATM   29  O   UNL     1      -9.249   3.210  64.669  1.00  0.00    -0.131 OA 
HETATM   30  H   UNL     1      -6.579   3.491  66.396  1.00  0.00     0.000 HD 
HETATM   31  N   UNL     1      -7.252   3.059  65.763  1.00  0.00    -0.069 N  
BRANCH  31  32
HETATM   32  C   UNL     1      -6.990   1.747  65.181  1.00  0.00    -0.046 C  
BRANCH  32  33
HETATM   33  C   UNL     1      -6.938   1.763  63.649  1.00  0.00    -0.031 C  
HETATM   34  H   UNL     1      -8.166   2.223  62.180  1.00  0.00     0.000 HD 
HETATM   35  O   UNL     1      -8.199   2.213  63.130  1.00  0.00    -0.071 OA 
BRANCH  33  36
HETATM   36  C   UNL     1      -5.798   2.672  63.160  1.00  0.00    -0.009 C  
HETATM   37  O   UNL     1      -5.208   3.401  64.233  1.00  0.00    -0.008 OA 
HETATM   38  H   UNL     1      -4.504   3.963  63.931  1.00  0.00     0.000 HD 
ENDBRANCH  33  36
ENDBRANCH  32  33
ENDBRANCH  31  32
ENDBRANCH  15  28
ENDBRANCH   5   8
BRANCH   6  39
HETATM   39  C   UNL     1     -12.098   6.700  70.711  1.00  0.00    -0.304 C  
HETATM   40  O   UNL     1     -13.261   7.522  70.717  1.00  0.00    -0.580 OA 
HETATM   41  H   UNL     1     -13.661   7.596  71.577  1.00  0.00     0.000 HD 
ENDBRANCH   6  39
ENDBRANCH   4   5
ENDBRANCH   3   4
TORSDOF 12
ENDMDL
MODEL      196
REMARK 921   NORMALIZED FREE ENERGY PREDICTED BY IDOCK:    5.54 KCAL/MOL
REMARK 922        TOTAL FREE ENERGY PREDICTED BY IDOCK:    9.15 KCAL/MOL
REMARK 923 INTER-LIGAND FREE ENERGY PREDICTED BY IDOCK:    1.45 KCAL/MOL
REMARK 924 INTRA-LIGAND FREE ENERGY PREDICTED BY IDOCK:    7.70 KCAL/MOL
REMARK 927      BINDING AFFINITY PREDICTED BY RF-SCORE:    0.00 PKD
ROOT
HETATM    1  O   UNL     1     -12.727  15.682  65.438  1.00  0.00     1.005 OA 
HETATM    2  H   UNL     1     -13.525  16.081  65.765  1.00  0.00     0.000 HD 
HETATM    3  C   UNL     1     -11.784  15.491  66.482  1.00  0.00     0.306 C  
ENDROOT
BRANCH   3   4
HETATM    4  C   UNL     1     -10.496  14.848  65.954  1.00  0.00    -0.315 C  
BRANCH   4   5
HETATM    5  N   UNL     1      -9.236  15.478  66.411  1.00  0.00    -0.279 N  
HETATM    6  C   UNL     1      -8.867  16.800  66.144  1.00  0.00    -0.263 C  
HETATM    7  O   UNL     1      -7.894  17.344  66.691  1.00  0.00    -0.213 OA 
BRANCH   5   8
HETATM    8  C   UNL     1      -8.439  14.746  67.364  1.00  0.00    -0.201 A  
HETATM    9  C   UNL     1      -8.355  13.326  67.318  1.00  0.00    -0.177 A  
HETATM   10  C   UNL     1      -7.788  15.438  68.413  1.00  0.00    -0.129 A  
HETATM   11  I   UNL     1      -9.305  12.285  65.657  1.00  0.00     0.315 I  
HETATM   12  C   UNL     1      -7.606  12.596  68.283  1.00  0.00    -0.133 A  
HETATM   13  I   UNL     1      -8.329  17.501  68.806  1.00  0.00    -0.006 I  
HETATM   14  I   UNL     1      -5.324  12.318  70.423  1.00  0.00    -0.162 I  
HETATM   15  C   UNL     1      -6.896  14.761  69.271  1.00  0.00    -0.144 A  
HETATM   16  C   UNL     1      -6.804  13.335  69.198  1.00  0.00    -0.067 A  
BRANCH  12  17
HETATM   17  C   UNL     1      -7.855  11.111  68.406  1.00  0.00    -0.133 C  
HETATM   18  N   UNL     1      -6.805  10.236  68.258  1.00  0.00    -0.065 N  
HETATM   19  H   UNL     1      -5.897  10.595  67.962  1.00  0.00     0.000 HD 
HETATM   20  O   UNL     1      -8.987  10.707  68.653  1.00  0.00    -0.153 OA 
BRANCH  18  21
HETATM   21  C   UNL     1      -6.957   8.803  68.514  1.00  0.00    -0.065 C  
BRANCH  21  22
HETATM   22  C   UNL     1      -7.241   8.062  67.202  1.00  0.00    -0.087 C  
HETATM   23  O   UNL     1      -8.479   8.537  66.650  1.00  0.00    -0.109 OA 
HETATM   24  H   UNL     1      -8.655   8.078  65.838  1.00  0.00     0.000 HD 
BRANCH  22  25
HETATM   25  C   UNL     1      -6.106   8.217  66.181  1.00  0.00    -0.045 C  
HETATM   26  H   UNL     1      -5.160   7.080  64.873  1.00  0.00     0.000 HD 
HETATM   27  O   UNL     1      -5.862   6.983  65.505  1.00  0.00    -0.034 OA 
ENDBRANCH  22  25
ENDBRANCH  21  22
ENDBRANCH  18  21
ENDBRANCH  12  17
BRANCH  15  28
HETATM   28  C   UNL     1      -6.077  15.515  70.277  1.00  0.00    -0.085 C  
HETATM   29  O   UNL     1      -5.566  14.937  71.228  1.00  0.00    -0.109 OA 
HETATM   30  H   UNL     1      -6.338  17.344  69.279  1.00  0.00     0.000 HD 
HETATM   31  N   UNL     1      -5.915  16.879  70.082  1.00  0.00    -0.194 N  
BRANCH  31  32
HETATM   32  C   UNL     1      -5.128  17.635  71.049  1.00  0.00    -0.214 C  
BRANCH  32  33
HETATM   33  C   UNL     1      -5.930  18.731  71.762  1.00  0.00     0.704 C  
HETATM   34  H   UNL     1      -6.153  19.365  73.612  1.00  0.00     0.000 HD 
HETATM   35  O   UNL     1      -5.657  18.686  73.171  1.00  0.00     2.182 OA 
BRANCH  33  36
HETATM   36  C   UNL     1      -5.579  20.113  71.187  1.00  0.00    -0.314 C  
HETATM   37  O   UNL     1      -5.199  21.029  72.212  1.00  0.00    -0.429 OA 
HETATM   38  H   UNL     1      -4.982  21.883  71.857  1.00  0.00     0.000 HD 
ENDBRANCH  33  36
ENDBRANCH  32  33
ENDBRANCH  31  32
ENDBRANCH  15  28
ENDBRANCH   5   8
BRANCH   6  39
HETATM   39  C   UNL     1      -9.724  17.611  65.160  1.00  0.00     1.651 C  
HETATM   40  O   UNL     1     -10.421  18.686  65.780  1.00  0.00    -0.586 OA 
HETATM   41  H   UNL     1     -10.952  19.188  65.171  1.00  0.00     0.000 HD 
ENDBRANCH   6  39
ENDBRANCH   4   5
ENDBRANCH   3   4
TORSDOF 12
ENDMDL
MODEL      197
REMARK 921   NORMALIZED FREE ENERGY PREDICTED BY IDOCK:    5.67 KCAL/MOL
REMARK 922        TOTAL FREE ENERGY PREDICTED BY IDOCK:    9.38 KCAL/MOL
REMARK 923 INTER-LIGAND FREE ENERGY PREDICTED BY IDOCK:    0.11 KCAL/MOL
REMARK 924 INTRA-LIGAND FREE ENERGY PREDICTED BY IDOCK:    9.27 KCAL/MOL
REMARK 927      BINDING AFFINITY PREDICTED BY RF-SCORE:    0.00 PKD
ROOT
HETATM    1  O   UNL     1      -9.466  13.911  69.934  1.00  0.00     0.510 OA 
HETATM    2  H   UNL     1      -8.752  14.312  70.416  1.00  0.00     0.000 HD 
HETATM    3  C   UNL     1     -10.375  14.892  69.457  1.00  0.00    -0.155 C  
ENDROOT
BRANCH   3   4
HETATM    4  C   UNL     1     -11.527  14.244  68.679  1.00  0.00    -0.296 C  
BRANCH   4   5
HETATM    5  N   UNL     1     -11.164  13.049  67.882  1.00  0.00    -0.257 N  
HETATM    6  C   UNL     1     -11.278  12.957  66.492  1.00  0.00    -0.302 C  
HETATM    7  O   UNL     1     -10.799  12.011  65.846  1.00  0.00    -0.268 OA 
BRANCH   5   8
HETATM    8  C   UNL     1     -10.457  11.992  68.562  1.00  0.00    -0.229 A  
HETATM    9  C   UNL     1      -9.074  11.758  68.322  1.00  0.00    -0.187 A  
HETATM   10  C   UNL     1     -11.161  11.118  69.424  1.00  0.00    -0.255 A  
HETATM   11  I   UNL     1      -7.992  13.155  67.047  1.00  0.00     0.398 I  
HETATM   12  C   UNL     1      -8.381  10.688  68.956  1.00  0.00    -0.153 A  
HETATM   13  I   UNL     1     -13.329  11.125  69.388  1.00  0.00     4.678 I  
HETATM   14  I   UNL     1      -7.982   8.596  71.265  1.00  0.00    -0.143 I  
HETATM   15  C   UNL     1     -10.466  10.166  70.201  1.00  0.00    -0.311 A  
HETATM   16  C   UNL     1      -9.070   9.959  69.966  1.00  0.00    -0.178 A  
BRANCH  12  17
HETATM   17  C   UNL     1      -7.045  10.268  68.390  1.00  0.00    -0.078 C  
HETATM   18  N   UNL     1      -6.975   9.815  67.094  1.00  0.00    -0.084 N  
HETATM   19  H   UNL     1      -7.838   9.668  66.571  1.00  0.00     0.000 HD 
HETATM   20  O   UNL     1      -6.040  10.353  69.087  1.00  0.00    -0.037 OA 
BRANCH  18  21
HETATM   21  C   UNL     1      -5.692   9.538  66.444  1.00  0.00    -0.053 C  
BRANCH  21  22
HETATM   22  C   UNL     1      -5.135  10.819  65.815  1.00  0.00    -0.118 C  
HETATM   23  O   UNL     1      -5.263  10.740  64.387  1.00  0.00    -0.203 OA 
HETATM   24  H   UNL     1      -4.917  11.534  63.997  1.00  0.00     0.000 HD 
BRANCH  22  25
HETATM   25  C   UNL     1      -5.826  12.084  66.344  1.00  0.00     0.541 C  
HETATM   26  H   UNL     1      -6.202  12.911  68.098  1.00  0.00     0.000 HD 
HETATM   27  O   UNL     1      -5.774  12.129  67.770  1.00  0.00    -0.064 OA 
ENDBRANCH  22  25
ENDBRANCH  21  22
ENDBRANCH  18  21
ENDBRANCH  12  17
BRANCH  15  28
HETATM   28  C   UNL     1     -11.182   9.351  71.237  1.00  0.00    -0.367 C  
HETATM   29  O   UNL     1     -11.689   9.888  72.215  1.00  0.00     0.266 OA 
HETATM   30  H   UNL     1     -10.839   7.551  70.214  1.00  0.00     0.000 HD 
HETATM   31  N   UNL     1     -11.256   7.980  71.039  1.00  0.00    -0.261 N  
BRANCH  31  32
HETATM   32  C   UNL     1     -11.943   7.167  72.036  1.00  0.00    -0.295 C  
BRANCH  32  33
HETATM   33  C   UNL     1     -11.035   6.120  72.695  1.00  0.00    -0.256 C  
HETATM   34  H   UNL     1      -9.617   4.886  72.109  1.00  0.00     0.000 HD 
HETATM   35  O   UNL     1     -10.179   5.534  71.701  1.00  0.00    -0.195 OA 
BRANCH  33  36
HETATM   36  C   UNL     1     -10.201   6.762  73.815  1.00  0.00    -0.349 C  
HETATM   37  O   UNL     1      -8.850   6.305  73.794  1.00  0.00    -0.123 OA 
HETATM   38  H   UNL     1      -8.335   6.701  74.487  1.00  0.00     0.000 HD 
ENDBRANCH  33  36
ENDBRANCH  32  33
ENDBRANCH  31  32
ENDBRANCH  15  28
ENDBRANCH   5   8
BRANCH   6  39
HETATM   39  C   UNL     1     -11.995  14.090  65.743  1.00  0.00    -0.404 C  
HETATM   40  O   UNL     1     -12.846  13.621  64.702  1.00  0.00    -0.666 OA 
HETATM   41  H   UNL     1     -13.290  14.322  64.238  1.00  0.00     0.000 HD 
ENDBRANCH   6  39
ENDBRANCH   4   5
ENDBRANCH   3   4
TORSDOF 12
ENDMDL
MODEL      198
REMARK 921   NORMALIZED FREE ENERGY PREDICTED BY IDOCK:    5.70 KCAL/MOL
REMARK 922        TOTAL FREE ENERGY PREDICTED BY IDOCK:    9.42 KCAL/MOL
REMARK 923 INTER-LIGAND FREE ENERGY PREDICTED BY IDOCK:   -3.63 KCAL/MOL
REMARK 924 INTRA-LIGAND FREE ENERGY PREDICTED BY IDOCK:   13.05 KCAL/MOL
REMARK 927      BINDING AFFINITY PREDICTED BY RF-SCORE:    0.00 PKD
ROOT
HETATM    1  O   UNL     1     -10.043   7.946  72.485  1.00  0.00    -0.215 OA 
HETATM    2  H   UNL     1     -10.590   8.722  72.498  1.00  0.00     0.000 HD 
HETATM    3  C   UNL     1      -8.943   8.080  73.373  1.00  0.00    -0.274 C  
ENDROOT
BRANCH   3   4
HETATM    4  C   UNL     1      -8.059   6.826  73.351  1.00  0.00    -0.102 C  
BRANCH   4   5
HETATM    5  N   UNL     1      -8.244   5.938  72.180  1.00  0.00    -0.108 N  
HETATM    6  C   UNL     1      -8.660   4.606  72.250  1.00  0.00    -0.119 C  
HETATM    7  O   UNL     1      -8.974   3.951  71.243  1.00  0.00    -0.098 OA 
BRANCH   5   8
HETATM    8  C   UNL     1      -8.190   6.548  70.874  1.00  0.00    -0.125 A  
HETATM    9  C   UNL     1      -8.716   5.886  69.729  1.00  0.00    -0.129 A  
HETATM   10  C   UNL     1      -7.534   7.791  70.706  1.00  0.00    -0.070 A  
HETATM   11  I   UNL     1      -9.783   4.008  70.017  1.00  0.00     0.069 I  
HETATM   12  C   UNL     1      -8.625   6.463  68.431  1.00  0.00    -0.115 A  
HETATM   13  I   UNL     1      -6.283   8.545  72.309  1.00  0.00    -0.037 I  
HETATM   14  I   UNL     1      -8.352   8.901  66.469  1.00  0.00    -0.135 I  
HETATM   15  C   UNL     1      -7.588   8.468  69.469  1.00  0.00    -0.089 A  
HETATM   16  C   UNL     1      -8.142   7.798  68.332  1.00  0.00    -0.124 A  
BRANCH  12  17
HETATM   17  C   UNL     1      -8.856   5.570  67.235  1.00  0.00    -0.105 C  
HETATM   18  N   UNL     1      -7.863   4.707  66.837  1.00  0.00    -0.098 N  
HETATM   19  H   UNL     1      -6.949   4.759  67.287  1.00  0.00     0.000 HD 
HETATM   20  O   UNL     1      -9.931   5.613  66.647  1.00  0.00    -0.154 OA 
BRANCH  18  21
HETATM   21  C   UNL     1      -8.083   3.714  65.784  1.00  0.00    -0.093 C  
BRANCH  21  22
HETATM   22  C   UNL     1      -8.333   4.416  64.444  1.00  0.00    -0.109 C  
HETATM   23  O   UNL     1      -7.083   4.887  63.917  1.00  0.00    -0.047 OA 
HETATM   24  H   UNL     1      -7.237   5.323  63.087  1.00  0.00     0.000 HD 
BRANCH  22  25
HETATM   25  C   UNL     1      -9.035   3.508  63.425  1.00  0.00    -0.095 C  
HETATM   26  H   UNL     1      -8.965   1.613  62.874  1.00  0.00     0.000 HD 
HETATM   27  O   UNL     1      -8.530   2.175  63.504  1.00  0.00    -0.083 OA 
ENDBRANCH  22  25
ENDBRANCH  21  22
ENDBRANCH  18  21
ENDBRANCH  12  17
BRANCH  15  28
HETATM   28  C   UNL     1      -7.041   9.857  69.329  1.00  0.00    -0.069 C  
HETATM   29  O   UNL     1      -7.769  10.833  69.460  1.00  0.00    -0.139 OA 
HETATM   30  H   UNL     1      -5.091   9.168  68.966  1.00  0.00     0.000 HD 
HETATM   31  N   UNL     1      -5.686   9.991  69.060  1.00  0.00    -0.035 N  
BRANCH  31  32
HETATM   32  C   UNL     1      -5.131  11.331  68.915  1.00  0.00    -0.040 C  
BRANCH  32  33
HETATM   33  C   UNL     1      -6.194  12.436  68.962  1.00  0.00    -0.083 C  
HETATM   34  H   UNL     1      -6.592  13.989  70.105  1.00  0.00     0.000 HD 
HETATM   35  O   UNL     1      -5.934  13.305  70.076  1.00  0.00    -0.124 OA 
BRANCH  33  36
HETATM   36  C   UNL     1      -6.199  13.233  67.647  1.00  0.00    -0.148 C  
HETATM   37  O   UNL     1      -7.499  13.281  67.064  1.00  0.00    -0.375 OA 
HETATM   38  H   UNL     1      -7.502  13.773  66.251  1.00  0.00     0.000 HD 
ENDBRANCH  33  36
ENDBRANCH  32  33
ENDBRANCH  31  32
ENDBRANCH  15  28
ENDBRANCH   5   8
BRANCH   6  39
HETATM   39  C   UNL     1      -8.760   3.946  73.635  1.00  0.00    -0.093 C  
HETATM   40  O   UNL     1      -7.613   4.175  74.447  1.00  0.00    -0.074 OA 
HETATM   41  H   UNL     1      -7.675   3.767  75.303  1.00  0.00     0.000 HD 
ENDBRANCH   6  39
ENDBRANCH   4   5
ENDBRANCH   3   4
TORSDOF 12
ENDMDL
MODEL      199
REMARK 921   NORMALIZED FREE ENERGY PREDICTED BY IDOCK:    6.11 KCAL/MOL
REMARK 922        TOTAL FREE ENERGY PREDICTED BY IDOCK:   10.12 KCAL/MOL
REMARK 923 INTER-LIGAND FREE ENERGY PREDICTED BY IDOCK:    3.18 KCAL/MOL
REMARK 924 INTRA-LIGAND FREE ENERGY PREDICTED BY IDOCK:    6.94 KCAL/MOL
REMARK 927      BINDING AFFINITY PREDICTED BY RF-SCORE:    0.00 PKD
ROOT
HETATM    1  O   UNL     1      -5.167  12.265  68.922  1.00  0.00    -0.055 OA 
HETATM    2  H   UNL     1      -4.507  12.769  68.462  1.00  0.00     0.000 HD 
HETATM    3  C   UNL     1      -6.155  13.111  69.490  1.00  0.00    -0.114 C  
ENDROOT
BRANCH   3   4
HETATM    4  C   UNL     1      -7.221  12.296  70.233  1.00  0.00     1.813 C  
BRANCH   4   5
HETATM    5  N   UNL     1      -8.310  11.753  69.389  1.00  0.00     0.524 N  
HETATM    6  C   UNL     1      -8.165  10.695  68.488  1.00  0.00    -0.128 C  
HETATM    7  O   UNL     1      -9.134  10.153  67.933  1.00  0.00    -0.130 OA 
BRANCH   5   8
HETATM    8  C   UNL     1      -9.650  12.210  69.666  1.00  0.00     1.610 A  
HETATM    9  C   UNL     1     -10.633  11.330  70.198  1.00  0.00     0.682 A  
HETATM   10  C   UNL     1     -10.024  13.533  69.330  1.00  0.00     0.603 A  
HETATM   11  I   UNL     1     -10.022   9.319  70.773  1.00  0.00    -0.295 I  
HETATM   12  C   UNL     1     -11.969  11.762  70.431  1.00  0.00    -0.422 A  
HETATM   13  I   UNL     1      -8.721  14.701  68.050  1.00  0.00    -0.200 I  
HETATM   14  I   UNL     1     -14.134  13.967  70.993  1.00  0.00     1.268 I  
HETATM   15  C   UNL     1     -11.284  14.040  69.715  1.00  0.00    -0.175 A  
HETATM   16  C   UNL     1     -12.254  13.148  70.272  1.00  0.00    -0.306 A  
BRANCH  12  17
HETATM   17  C   UNL     1     -13.034  10.711  70.637  1.00  0.00    -0.264 C  
HETATM   18  N   UNL     1     -12.773   9.637  71.454  1.00  0.00    -0.350 N  
HETATM   19  H   UNL     1     -11.830   9.511  71.822  1.00  0.00     0.000 HD 
HETATM   20  O   UNL     1     -14.123  10.839  70.086  1.00  0.00     1.624 OA 
BRANCH  18  21
HETATM   21  C   UNL     1     -13.813   8.670  71.809  1.00  0.00    -0.425 C  
BRANCH  21  22
HETATM   22  C   UNL     1     -13.190   7.288  72.031  1.00  0.00    -0.124 C  
HETATM   23  O   UNL     1     -14.234   6.304  72.104  1.00  0.00    -0.391 OA 
HETATM   24  H   UNL     1     -13.848   5.448  72.242  1.00  0.00     0.000 HD 
BRANCH  22  25
HETATM   25  C   UNL     1     -12.180   6.914  70.938  1.00  0.00    -0.353 C  
HETATM   26  H   UNL     1     -10.218   6.906  70.710  1.00  0.00     0.000 HD 
HETATM   27  O   UNL     1     -10.843   7.137  71.387  1.00  0.00    -0.229 OA 
ENDBRANCH  22  25
ENDBRANCH  21  22
ENDBRANCH  18  21
ENDBRANCH  12  17
BRANCH  15  28
HETATM   28  C   UNL     1     -11.623  15.487  69.512  1.00  0.00    -0.350 C  
HETATM   29  O   UNL     1     -12.035  16.170  70.442  1.00  0.00    -0.280 OA 
HETATM   30  H   UNL     1     -11.089  15.438  67.482  1.00  0.00     0.000 HD 
HETATM   31  N   UNL     1     -11.443  16.018  68.243  1.00  0.00    -0.334 N  
BRANCH  31  32
HETATM   32  C   UNL     1     -11.772  17.421  68.019  1.00  0.00     1.132 C  
BRANCH  32  33
HETATM   33  C   UNL     1     -10.673  18.190  67.276  1.00  0.00    -0.315 C  
HETATM   34  H   UNL     1     -10.575  19.774  66.110  1.00  0.00     0.000 HD 
HETATM   35  O   UNL     1     -11.256  19.297  66.570  1.00  0.00    -0.081 OA 
BRANCH  33  36
HETATM   36  C   UNL     1      -9.601  18.684  68.262  1.00  0.00    -0.347 C  
HETATM   37  O   UNL     1      -8.553  19.383  67.595  1.00  0.00    -0.292 OA 
HETATM   38  H   UNL     1      -7.891  19.688  68.204  1.00  0.00     0.000 HD 
ENDBRANCH  33  36
ENDBRANCH  32  33
ENDBRANCH  31  32
ENDBRANCH  15  28
ENDBRANCH   5   8
BRANCH   6  39
HETATM   39  C   UNL     1      -6.749  10.168  68.206  1.00  0.00    -0.054 C  
HETATM   40  O   UNL     1      -6.088  10.873  67.160  1.00  0.00    -0.058 OA 
HETATM   41  H   UNL     1      -5.212  10.547  66.986  1.00  0.00     0.000 HD 
ENDBRANCH   6  39
ENDBRANCH   4   5
ENDBRANCH   3   4
TORSDOF 12
ENDMDL
MODEL      200
REMARK 921   NORMALIZED FREE ENERGY PREDICTED BY IDOCK:    6.79 KCAL/MOL
REMARK 922        TOTAL FREE ENERGY PREDICTED BY IDOCK:   11.27 KCAL/MOL
REMARK 923 INTER-LIGAND FREE ENERGY PREDICTED BY IDOCK:    3.97 KCAL/MOL
REMARK 924 INTRA-LIGAND FREE ENERGY PREDICTED BY IDOCK:    7.30 KCAL/MOL
REMARK 927      BINDING AFFINITY PREDICTED BY RF-SCORE:    0.00 PKD
ROOT
HETATM    1  O   UNL     1      -7.999  15.245  65.070  1.00  0.00     4.003 OA 
HETATM    2  H   UNL     1      -7.903  16.019  64.527  1.00  0.00     0.000 HD 
HETATM    3  C   UNL     1      -7.883  15.569  66.448  1.00  0.00     0.323 C  
ENDROOT
BRANCH   3   4
HETATM    4  C   UNL     1      -8.039  14.321  67.324  1.00  0.00    -0.178 C  
BRANCH   4   5
HETATM    5  N   UNL     1      -9.167  13.430  66.967  1.00  0.00    -0.235 N  
HETATM    6  C   UNL     1     -10.206  13.772  66.096  1.00  0.00    -0.301 C  
HETATM    7  O   UNL     1     -11.031  12.942  65.683  1.00  0.00    -0.268 OA 
BRANCH   5   8
HETATM    8  C   UNL     1      -9.076  12.051  67.381  1.00  0.00    -0.178 A  
HETATM    9  C   UNL     1      -8.134  11.164  66.789  1.00  0.00    -0.155 A  
HETATM   10  C   UNL     1      -9.990  11.543  68.335  1.00  0.00    -0.206 A  
HETATM   11  I   UNL     1      -6.690  11.978  65.375  1.00  0.00     4.755 I  
HETATM   12  C   UNL     1      -8.070   9.791  67.162  1.00  0.00    -0.116 A  
HETATM   13  I   UNL     1     -11.742  12.717  68.841  1.00  0.00    -0.289 I  
HETATM   14  I   UNL     1      -8.533   7.415  69.163  1.00  0.00    -0.132 I  
HETATM   15  C   UNL     1      -9.834  10.240  68.853  1.00  0.00    -0.200 A  
HETATM   16  C   UNL     1      -8.865   9.367  68.264  1.00  0.00    -0.128 A  
BRANCH  12  17
HETATM   17  C   UNL     1      -7.327   8.839  66.255  1.00  0.00    -0.087 C  
HETATM   18  N   UNL     1      -7.185   7.524  66.630  1.00  0.00    -0.081 N  
HETATM   19  H   UNL     1      -7.489   7.236  67.560  1.00  0.00     0.000 HD 
HETATM   20  O   UNL     1      -6.876   9.247  65.191  1.00  0.00    -0.079 OA 
BRANCH  18  21
HETATM   21  C   UNL     1      -6.609   6.525  65.727  1.00  0.00    -0.044 C  
BRANCH  21  22
HETATM   22  C   UNL     1      -7.722   5.829  64.936  1.00  0.00    -0.095 C  
HETATM   23  O   UNL     1      -7.699   6.296  63.578  1.00  0.00    -0.093 OA 
HETATM   24  H   UNL     1      -8.389   5.865  63.087  1.00  0.00     0.000 HD 
BRANCH  22  25
HETATM   25  C   UNL     1      -7.605   4.300  64.978  1.00  0.00    -0.077 C  
HETATM   26  H   UNL     1      -8.739   2.741  64.548  1.00  0.00     0.000 HD 
HETATM   27  O   UNL     1      -8.812   3.688  64.522  1.00  0.00    -0.113 OA 
ENDBRANCH  22  25
ENDBRANCH  21  22
ENDBRANCH  18  21
ENDBRANCH  12  17
BRANCH  15  28
HETATM   28  C   UNL     1     -10.694   9.755  69.982  1.00  0.00    -0.283 C  
HETATM   29  O   UNL     1     -11.911   9.887  69.943  1.00  0.00    -0.099 OA 
HETATM   30  H   UNL     1      -9.048   9.034  71.069  1.00  0.00     0.000 HD 
HETATM   31  N   UNL     1     -10.062   9.146  71.057  1.00  0.00    -0.278 N  
BRANCH  31  32
HETATM   32  C   UNL     1     -10.877   8.671  72.169  1.00  0.00    -0.354 C  
BRANCH  32  33
HETATM   33  C   UNL     1     -10.097   7.804  73.165  1.00  0.00    -0.327 C  
HETATM   34  H   UNL     1     -10.503   6.313  74.387  1.00  0.00     0.000 HD 
HETATM   35  O   UNL     1     -10.985   6.851  73.770  1.00  0.00    -0.192 OA 
BRANCH  33  36
HETATM   36  C   UNL     1      -8.936   7.085  72.458  1.00  0.00    -0.128 C  
HETATM   37  O   UNL     1      -9.139   5.675  72.412  1.00  0.00    -0.141 OA 
HETATM   38  H   UNL     1      -8.421   5.231  71.975  1.00  0.00     0.000 HD 
ENDBRANCH  33  36
ENDBRANCH  32  33
ENDBRANCH  31  32
ENDBRANCH  15  28
ENDBRANCH   5   8
BRANCH   6  39
HETATM   39  C   UNL     1     -10.300  15.228  65.613  1.00  0.00    -0.366 C  
HETATM   40  O   UNL     1     -11.606  15.779  65.749  1.00  0.00     0.109 OA 
HETATM   41  H   UNL     1     -11.664  16.679  65.450  1.00  0.00     0.000 HD 
ENDBRANCH   6  39
ENDBRANCH   4   5
ENDBRANCH   3   4
TORSDOF 12
ENDMDL
MODEL      201
REMARK 921   NORMALIZED FREE ENERGY PREDICTED BY IDOCK:    7.06 KCAL/MOL
REMARK 922        TOTAL FREE ENERGY PREDICTED BY IDOCK:   11.74 KCAL/MOL
REMARK 923 INTER-LIGAND FREE ENERGY PREDICTED BY IDOCK:   -0.18 KCAL/MOL
REMARK 924 INTRA-LIGAND FREE ENERGY PREDICTED BY IDOCK:   11.92 KCAL/MOL
REMARK 927      BINDING AFFINITY PREDICTED BY RF-SCORE:    0.00 PKD
ROOT
HETATM    1  O   UNL     1      -6.473   5.445  69.896  1.00  0.00    -0.029 OA 
HETATM    2  H   UNL     1      -6.386   6.051  70.621  1.00  0.00     0.000 HD 
HETATM    3  C   UNL     1      -5.555   5.753  68.858  1.00  0.00    -0.011 C  
ENDROOT
BRANCH   3   4
HETATM    4  C   UNL     1      -5.695   4.774  67.686  1.00  0.00    -0.021 C  
BRANCH   4   5
HETATM    5  N   UNL     1      -7.026   4.746  67.036  1.00  0.00    -0.056 N  
HETATM    6  C   UNL     1      -7.627   3.602  66.504  1.00  0.00    -0.080 C  
HETATM    7  O   UNL     1      -8.811   3.583  66.131  1.00  0.00    -0.118 OA 
BRANCH   5   8
HETATM    8  C   UNL     1      -7.839   5.933  67.145  1.00  0.00    -0.102 A  
HETATM    9  C   UNL     1      -8.470   6.284  68.371  1.00  0.00    -0.115 A  
HETATM   10  C   UNL     1      -8.083   6.724  65.997  1.00  0.00    -0.119 A  
HETATM   11  I   UNL     1      -8.026   5.096  70.143  1.00  0.00    -0.081 I  
HETATM   12  C   UNL     1      -9.309   7.429  68.473  1.00  0.00    -0.141 A  
HETATM   13  I   UNL     1      -7.582   5.926  64.044  1.00  0.00    -0.099 I  
HETATM   14  I   UNL     1     -10.281  10.272  67.556  1.00  0.00    -0.313 I  
HETATM   15  C   UNL     1      -8.760   7.957  66.109  1.00  0.00    -0.181 A  
HETATM   16  C   UNL     1      -9.368   8.309  67.356  1.00  0.00    -0.141 A  
BRANCH  12  17
HETATM   17  C   UNL     1     -10.228   7.537  69.667  1.00  0.00    -0.205 C  
HETATM   18  N   UNL     1     -10.724   6.391  70.241  1.00  0.00    -0.245 N  
HETATM   19  H   UNL     1     -10.552   5.493  69.789  1.00  0.00     0.000 HD 
HETATM   20  O   UNL     1     -10.504   8.643  70.119  1.00  0.00    -0.206 OA 
BRANCH  18  21
HETATM   21  C   UNL     1     -11.493   6.425  71.487  1.00  0.00    -0.306 C  
BRANCH  21  22
HETATM   22  C   UNL     1     -10.888   5.454  72.505  1.00  0.00    -0.250 C  
HETATM   23  O   UNL     1      -9.457   5.472  72.383  1.00  0.00    -0.144 OA 
HETATM   24  H   UNL     1      -9.082   4.869  73.014  1.00  0.00     0.000 HD 
BRANCH  22  25
HETATM   25  C   UNL     1     -11.306   5.775  73.946  1.00  0.00     0.787 C  
HETATM   26  H   UNL     1     -11.842   7.367  74.985  1.00  0.00     0.000 HD 
HETATM   27  O   UNL     1     -11.583   7.168  74.093  1.00  0.00     1.459 OA 
ENDBRANCH  22  25
ENDBRANCH  21  22
ENDBRANCH  18  21
ENDBRANCH  12  17
BRANCH  15  28
HETATM   28  C   UNL     1      -8.877   8.878  64.930  1.00  0.00    -0.117 C  
HETATM   29  O   UNL     1      -9.347   8.481  63.871  1.00  0.00     0.846 OA 
HETATM   30  H   UNL     1      -8.068  10.504  65.983  1.00  0.00     0.000 HD 
HETATM   31  N   UNL     1      -8.446  10.187  65.091  1.00  0.00    -0.153 N  
BRANCH  31  32
HETATM   32  C   UNL     1      -8.545  11.099  63.958  1.00  0.00     0.267 C  
BRANCH  32  33
HETATM   33  C   UNL     1      -9.286  12.400  64.289  1.00  0.00     0.713 C  
HETATM   34  H   UNL     1     -10.991  13.244  63.781  1.00  0.00     0.000 HD 
HETATM   35  O   UNL     1     -10.532  12.438  63.575  1.00  0.00    -0.435 OA 
BRANCH  33  36
HETATM   36  C   UNL     1      -9.529  12.510  65.804  1.00  0.00    -0.059 C  
HETATM   37  O   UNL     1      -8.808  13.599  66.376  1.00  0.00    -0.454 OA 
HETATM   38  H   UNL     1      -8.958  13.666  67.312  1.00  0.00     0.000 HD 
ENDBRANCH  33  36
ENDBRANCH  32  33
ENDBRANCH  31  32
ENDBRANCH  15  28
ENDBRANCH   5   8
BRANCH   6  39
HETATM   39  C   UNL     1      -6.791   2.316  66.412  1.00  0.00    -0.043 C  
HETATM   40  O   UNL     1      -6.597   1.869  65.074  1.00  0.00    -0.026 OA 
HETATM   41  H   UNL     1      -6.080   1.074  65.018  1.00  0.00     0.000 HD 
ENDBRANCH   6  39
ENDBRANCH   4   5
ENDBRANCH   3   4
TORSDOF 12
ENDMDL
MODEL      202
REMARK 921   NORMALIZED FREE ENERGY PREDICTED BY IDOCK:    7.14 KCAL/MOL
REMARK 922        TOTAL FREE ENERGY PREDICTED BY IDOCK:   11.87 KCAL/MOL
REMARK 923 INTER-LIGAND FREE ENERGY PREDICTED BY IDOCK:    7.72 KCAL/MOL
REMARK 924 INTRA-LIGAND FREE ENERGY PREDICTED BY IDOCK:    4.15 KCAL/MOL
REMARK 927      BINDING AFFINITY PREDICTED BY RF-SCORE:    0.00 PKD
ROOT
HETATM    1  O   UNL     1     -12.279  18.970  69.133  1.00  0.00     5.238 OA 
HETATM    2  H   UNL     1     -12.119  19.844  69.470  1.00  0.00     0.000 HD 
HETATM    3  C   UNL     1     -11.282  18.060  69.575  1.00  0.00     2.067 C  
ENDROOT
BRANCH   3   4
HETATM    4  C   UNL     1     -11.541  16.650  69.030  1.00  0.00     0.130 C  
BRANCH   4   5
HETATM    5  N   UNL     1     -10.979  15.543  69.839  1.00  0.00    -0.280 N  
HETATM    6  C   UNL     1     -11.577  15.015  70.987  1.00  0.00    -0.322 C  
HETATM    7  O   UNL     1     -11.171  13.976  71.532  1.00  0.00     0.905 OA 
BRANCH   5   8
HETATM    8  C   UNL     1      -9.851  14.831  69.290  1.00  0.00    -0.116 A  
HETATM    9  C   UNL     1      -9.923  13.436  69.018  1.00  0.00     0.169 A  
HETATM   10  C   UNL     1      -8.624  15.507  69.090  1.00  0.00    -0.246 A  
HETATM   11  I   UNL     1     -11.838  12.428  69.266  1.00  0.00    -0.209 I  
HETATM   12  C   UNL     1      -8.799  12.718  68.519  1.00  0.00    -0.040 A  
HETATM   13  I   UNL     1      -8.343  17.462  69.983  1.00  0.00     3.361 I  
HETATM   14  I   UNL     1      -6.058  12.526  66.997  1.00  0.00     0.819 I  
HETATM   15  C   UNL     1      -7.553  14.866  68.430  1.00  0.00    -0.113 A  
HETATM   16  C   UNL     1      -7.649  13.468  68.141  1.00  0.00    -0.138 A  
BRANCH  12  17
HETATM   17  C   UNL     1      -8.819  11.210  68.604  1.00  0.00    -0.155 C  
HETATM   18  N   UNL     1     -10.023  10.548  68.544  1.00  0.00    -0.163 N  
HETATM   19  H   UNL     1     -10.888  11.088  68.550  1.00  0.00     0.000 HD 
HETATM   20  O   UNL     1      -7.763  10.597  68.709  1.00  0.00    -0.100 OA 
BRANCH  18  21
HETATM   21  C   UNL     1     -10.093   9.088  68.470  1.00  0.00    -0.190 C  
BRANCH  21  22
HETATM   22  C   UNL     1     -10.655   8.657  67.111  1.00  0.00    -0.234 C  
HETATM   23  O   UNL     1     -10.700   9.795  66.236  1.00  0.00    -0.055 OA 
HETATM   24  H   UNL     1     -11.048   9.529  65.393  1.00  0.00     0.000 HD 
BRANCH  22  25
HETATM   25  C   UNL     1      -9.842   7.523  66.471  1.00  0.00    -0.156 C  
HETATM   26  H   UNL     1      -8.420   6.266  67.015  1.00  0.00     0.000 HD 
HETATM   27  O   UNL     1      -8.922   6.968  67.411  1.00  0.00    -0.118 OA 
ENDBRANCH  22  25
ENDBRANCH  21  22
ENDBRANCH  18  21
ENDBRANCH  12  17
BRANCH  15  28
HETATM   28  C   UNL     1      -6.312  15.625  68.066  1.00  0.00    -0.134 C  
HETATM   29  O   UNL     1      -5.325  15.595  68.792  1.00  0.00    -0.097 OA 
HETATM   30  H   UNL     1      -7.148  16.351  66.283  1.00  0.00     0.000 HD 
HETATM   31  N   UNL     1      -6.322  16.346  66.881  1.00  0.00    -0.144 N  
BRANCH  31  32
HETATM   32  C   UNL     1      -5.129  17.096  66.509  1.00  0.00    -0.124 C  
BRANCH  32  33
HETATM   33  C   UNL     1      -5.432  18.520  66.028  1.00  0.00    -0.157 C  
HETATM   34  H   UNL     1      -6.181  19.353  64.409  1.00  0.00     0.000 HD 
HETATM   35  O   UNL     1      -5.993  18.471  64.707  1.00  0.00    -0.265 OA 
BRANCH  33  36
HETATM   36  C   UNL     1      -6.399  19.220  66.998  1.00  0.00    -0.186 C  
HETATM   37  O   UNL     1      -7.638  19.539  66.369  1.00  0.00    -0.251 OA 
HETATM   38  H   UNL     1      -8.235  19.971  66.968  1.00  0.00     0.000 HD 
ENDBRANCH  33  36
ENDBRANCH  32  33
ENDBRANCH  31  32
ENDBRANCH  15  28
ENDBRANCH   5   8
BRANCH   6  39
HETATM   39  C   UNL     1     -12.802  15.737  71.568  1.00  0.00    -0.449 C  
HETATM   40  O   UNL     1     -14.033  15.099  71.243  1.00  0.00    -0.529 OA 
HETATM   41  H   UNL     1     -14.791  15.546  71.602  1.00  0.00     0.000 HD 
ENDBRANCH   6  39
ENDBRANCH   4   5
ENDBRANCH   3   4
TORSDOF 12
ENDMDL
MODEL      203
REMARK 921   NORMALIZED FREE ENERGY PREDICTED BY IDOCK:    7.69 KCAL/MOL
REMARK 922        TOTAL FREE ENERGY PREDICTED BY IDOCK:   12.80 KCAL/MOL
REMARK 923 INTER-LIGAND FREE ENERGY PREDICTED BY IDOCK:   -1.02 KCAL/MOL
REMARK 924 INTRA-LIGAND FREE ENERGY PREDICTED BY IDOCK:   13.82 KCAL/MOL
REMARK 927      BINDING AFFINITY PREDICTED BY RF-SCORE:    0.00 PKD
ROOT
HETATM    1  O   UNL     1      -7.893   8.259  68.660  1.00  0.00    -0.115 OA 
HETATM    2  H   UNL     1      -8.210   7.482  69.106  1.00  0.00     0.000 HD 
HETATM    3  C   UNL     1      -8.965   8.995  68.091  1.00  0.00    -0.133 C  
ENDROOT
BRANCH   3   4
HETATM    4  C   UNL     1      -8.453  10.249  67.371  1.00  0.00    -0.125 C  
BRANCH   4   5
HETATM    5  N   UNL     1      -9.495  11.224  66.973  1.00  0.00    -0.170 N  
HETATM    6  C   UNL     1     -10.793  10.885  66.581  1.00  0.00    -0.197 C  
HETATM    7  O   UNL     1     -11.686  11.733  66.430  1.00  0.00    -0.511 OA 
BRANCH   5   8
HETATM    8  C   UNL     1      -9.215  12.620  67.204  1.00  0.00    -0.214 A  
HETATM    9  C   UNL     1     -10.057  13.638  66.675  1.00  0.00    -0.277 A  
HETATM   10  C   UNL     1      -8.041  12.995  67.901  1.00  0.00    -0.158 A  
HETATM   11  I   UNL     1     -11.894  13.043  65.666  1.00  0.00    -0.515 I  
HETATM   12  C   UNL     1      -9.761  15.018  66.861  1.00  0.00    -0.247 A  
HETATM   13  I   UNL     1      -6.501  11.507  68.243  1.00  0.00    -0.064 I  
HETATM   14  I   UNL     1      -8.423  17.405  68.403  1.00  0.00    -0.232 I  
HETATM   15  C   UNL     1      -7.819  14.343  68.256  1.00  0.00    -0.138 A  
HETATM   16  C   UNL     1      -8.689  15.353  67.735  1.00  0.00    -0.164 A  
BRANCH  12  17
HETATM   17  C   UNL     1     -10.463  16.024  65.980  1.00  0.00    -0.345 C  
HETATM   18  N   UNL     1     -10.183  17.362  66.129  1.00  0.00    -0.344 N  
HETATM   19  H   UNL     1      -9.588  17.662  66.901  1.00  0.00     0.000 HD 
HETATM   20  O   UNL     1     -11.259  15.633  65.133  1.00  0.00    -0.340 OA 
BRANCH  18  21
HETATM   21  C   UNL     1     -10.716  18.366  65.207  1.00  0.00     0.488 C  
BRANCH  21  22
HETATM   22  C   UNL     1     -10.241  19.763  65.620  1.00  0.00    -0.267 C  
HETATM   23  O   UNL     1     -10.908  20.747  64.815  1.00  0.00     0.406 OA 
HETATM   24  H   UNL     1     -10.614  21.613  65.071  1.00  0.00     0.000 HD 
BRANCH  22  25
HETATM   25  C   UNL     1     -10.472  20.046  67.111  1.00  0.00    -0.377 C  
HETATM   26  H   UNL     1     -11.742  19.493  68.518  1.00  0.00     0.000 HD 
HETATM   27  O   UNL     1     -11.600  19.318  67.595  1.00  0.00     0.322 OA 
ENDBRANCH  22  25
ENDBRANCH  21  22
ENDBRANCH  18  21
ENDBRANCH  12  17
BRANCH  15  28
HETATM   28  C   UNL     1      -6.666  14.725  69.136  1.00  0.00    -0.123 C  
HETATM   29  O   UNL     1      -5.748  15.410  68.702  1.00  0.00    -0.088 OA 
HETATM   30  H   UNL     1      -7.464  13.724  70.800  1.00  0.00     0.000 HD 
HETATM   31  N   UNL     1      -6.687  14.284  70.451  1.00  0.00    -0.005 N  
BRANCH  31  32
HETATM   32  C   UNL     1      -5.574  14.638  71.325  1.00  0.00    -0.108 C  
BRANCH  32  33
HETATM   33  C   UNL     1      -5.791  15.956  72.079  1.00  0.00     1.202 C  
HETATM   34  H   UNL     1      -5.374  16.663  73.869  1.00  0.00     0.000 HD 
HETATM   35  O   UNL     1      -5.240  15.847  73.401  1.00  0.00     1.046 OA 
BRANCH  33  36
HETATM   36  C   UNL     1      -5.141  17.124  71.319  1.00  0.00    -0.047 C  
HETATM   37  O   UNL     1      -6.035  18.226  71.182  1.00  0.00     0.294 OA 
HETATM   38  H   UNL     1      -5.633  18.948  70.712  1.00  0.00     0.000 HD 
ENDBRANCH  33  36
ENDBRANCH  32  33
ENDBRANCH  31  32
ENDBRANCH  15  28
ENDBRANCH   5   8
BRANCH   6  39
HETATM   39  C   UNL     1     -11.124   9.400  66.365  1.00  0.00     0.904 C  
HETATM   40  O   UNL     1     -11.255   8.674  67.583  1.00  0.00    -0.380 OA 
HETATM   41  H   UNL     1     -11.460   7.755  67.449  1.00  0.00     0.000 HD 
ENDBRANCH   6  39
ENDBRANCH   4   5
ENDBRANCH   3   4
TORSDOF 12
ENDMDL
MODEL      204
REMARK 921   NORMALIZED FREE ENERGY PREDICTED BY IDOCK:    8.54 KCAL/MOL
REMARK 922        TOTAL FREE ENERGY PREDICTED BY IDOCK:   14.26 KCAL/MOL
REMARK 923 INTER-LIGAND FREE ENERGY PREDICTED BY IDOCK:    6.48 KCAL/MOL
REMARK 924 INTRA-LIGAND FREE ENERGY PREDICTED BY IDOCK:    7.78 KCAL/MOL
REMARK 927      BINDING AFFINITY PREDICTED BY RF-SCORE:    0.00 PKD
ROOT
HETATM    1  O   UNL     1     -11.356  17.010  65.504  1.00  0.00     0.245 OA 
HETATM    2  H   UNL     1     -12.107  17.526  65.774  1.00  0.00     0.000 HD 
HETATM    3  C   UNL     1     -10.497  16.743  66.602  1.00  0.00    -0.258 C  
ENDROOT
BRANCH   3   4
HETATM    4  C   UNL     1      -9.286  15.910  66.167  1.00  0.00    -0.349 C  
BRANCH   4   5
HETATM    5  N   UNL     1      -7.981  16.349  66.714  1.00  0.00    -0.230 N  
HETATM    6  C   UNL     1      -7.246  17.439  66.237  1.00  0.00    -0.311 C  
HETATM    7  O   UNL     1      -6.251  17.883  66.832  1.00  0.00    -0.147 OA 
BRANCH   5   8
HETATM    8  C   UNL     1      -7.543  15.741  67.946  1.00  0.00    -0.131 A  
HETATM    9  C   UNL     1      -7.643  14.337  68.152  1.00  0.00    -0.134 A  
HETATM   10  C   UNL     1      -7.079  16.558  69.005  1.00  0.00    -0.213 A  
HETATM   11  I   UNL     1      -8.293  13.090  66.488  1.00  0.00     0.906 I  
HETATM   12  C   UNL     1      -7.253  13.737  69.383  1.00  0.00     0.113 A  
HETATM   13  I   UNL     1      -7.417  18.698  68.909  1.00  0.00    -0.129 I  
HETATM   14  I   UNL     1      -5.615  13.666  72.062  1.00  0.00     0.483 I  
HETATM   15  C   UNL     1      -6.520  15.978  70.164  1.00  0.00     0.062 A  
HETATM   16  C   UNL     1      -6.605  14.561  70.345  1.00  0.00    -0.044 A  
BRANCH  12  17
HETATM   17  C   UNL     1      -7.722  12.330  69.671  1.00  0.00     1.027 C  
HETATM   18  N   UNL     1      -8.933  11.909  69.175  1.00  0.00    -0.246 N  
HETATM   19  H   UNL     1      -9.543  12.583  68.713  1.00  0.00     0.000 HD 
HETATM   20  O   UNL     1      -7.009  11.579  70.328  1.00  0.00     0.065 OA 
BRANCH  18  21
HETATM   21  C   UNL     1      -9.369  10.516  69.293  1.00  0.00    -0.160 C  
BRANCH  21  22
HETATM   22  C   UNL     1     -10.323  10.166  68.146  1.00  0.00    -0.185 C  
HETATM   23  O   UNL     1     -10.720   8.791  68.264  1.00  0.00    -0.395 OA 
HETATM   24  H   UNL     1     -11.311   8.574  67.553  1.00  0.00     0.000 HD 
BRANCH  22  25
HETATM   25  C   UNL     1     -11.558  11.077  68.109  1.00  0.00    -0.272 C  
HETATM   26  H   UNL     1     -12.415  12.315  66.831  1.00  0.00     0.000 HD 
HETATM   27  O   UNL     1     -11.651  11.752  66.854  1.00  0.00    -0.491 OA 
ENDBRANCH  22  25
ENDBRANCH  21  22
ENDBRANCH  18  21
ENDBRANCH  12  17
BRANCH  15  28
HETATM   28  C   UNL     1      -5.875  16.832  71.215  1.00  0.00     0.890 C  
HETATM   29  O   UNL     1      -5.473  16.339  72.262  1.00  0.00     0.358 OA 
HETATM   30  H   UNL     1      -6.075  18.581  70.070  1.00  0.00     0.000 HD 
HETATM   31  N   UNL     1      -5.745  18.188  70.951  1.00  0.00    -0.018 N  
BRANCH  31  32
HETATM   32  C   UNL     1      -5.126  19.040  71.960  1.00  0.00     0.070 C  
BRANCH  32  33
HETATM   33  C   UNL     1      -6.096  20.057  72.574  1.00  0.00     0.962 C  
HETATM   34  H   UNL     1      -6.043  21.960  73.078  1.00  0.00     0.000 HD 
HETATM   35  O   UNL     1      -5.442  21.329  72.698  1.00  0.00     0.176 OA 
BRANCH  33  36
HETATM   36  C   UNL     1      -7.361  20.183  71.708  1.00  0.00     1.362 C  
HETATM   37  O   UNL     1      -8.336  21.025  72.319  1.00  0.00     0.771 OA 
HETATM   38  H   UNL     1      -9.118  21.102  71.784  1.00  0.00     0.000 HD 
ENDBRANCH  33  36
ENDBRANCH  32  33
ENDBRANCH  31  32
ENDBRANCH  15  28
ENDBRANCH   5   8
BRANCH   6  39
HETATM   39  C   UNL     1      -7.716  18.125  64.945  1.00  0.00     2.962 C  
HETATM   40  O   UNL     1      -7.277  19.475  64.838  1.00  0.00    -0.263 OA 
HETATM   41  H   UNL     1      -7.568  19.899  64.038  1.00  0.00     0.000 HD 
ENDBRANCH   6  39
ENDBRANCH   4   5
ENDBRANCH   3   4
TORSDOF 12
ENDMDL
MODEL      205
REMARK 921   NORMALIZED FREE ENERGY PREDICTED BY IDOCK:    9.62 KCAL/MOL
REMARK 922        TOTAL FREE ENERGY PREDICTED BY IDOCK:   16.10 KCAL/MOL
REMARK 923 INTER-LIGAND FREE ENERGY PREDICTED BY IDOCK:    7.20 KCAL/MOL
REMARK 924 INTRA-LIGAND FREE ENERGY PREDICTED BY IDOCK:    8.90 KCAL/MOL
REMARK 927      BINDING AFFINITY PREDICTED BY RF-SCORE:    0.00 PKD
ROOT
HETATM    1  O   UNL     1      -7.912  15.217  64.780  1.00  0.00     5.262 OA 
HETATM    2  H   UNL     1      -7.738  15.940  64.189  1.00  0.00     0.000 HD 
HETATM    3  C   UNL     1      -7.923  15.653  66.132  1.00  0.00     0.621 C  
ENDROOT
BRANCH   3   4
HETATM    4  C   UNL     1      -8.203  14.487  67.087  1.00  0.00    -0.188 C  
BRANCH   4   5
HETATM    5  N   UNL     1      -9.203  13.502  66.611  1.00  0.00    -0.238 N  
HETATM    6  C   UNL     1      -9.993  13.660  65.469  1.00  0.00    -0.224 C  
HETATM    7  O   UNL     1     -10.686  12.740  65.005  1.00  0.00    -0.280 OA 
BRANCH   5   8
HETATM    8  C   UNL     1      -9.214  12.210  67.252  1.00  0.00    -0.185 A  
HETATM    9  C   UNL     1      -8.068  11.366  67.228  1.00  0.00    -0.148 A  
HETATM   10  C   UNL     1     -10.405  11.732  67.849  1.00  0.00    -0.193 A  
HETATM   11  I   UNL     1      -6.225  12.145  66.367  1.00  0.00     1.898 I  
HETATM   12  C   UNL     1      -8.088  10.071  67.819  1.00  0.00    -0.109 A  
HETATM   13  I   UNL     1     -12.271  12.755  67.435  1.00  0.00     0.860 I  
HETATM   14  I   UNL     1      -9.187   7.943  69.851  1.00  0.00    -0.150 I  
HETATM   15  C   UNL     1     -10.401  10.535  68.597  1.00  0.00    -0.201 A  
HETATM   16  C   UNL     1      -9.233   9.709  68.583  1.00  0.00    -0.136 A  
BRANCH  12  17
HETATM   17  C   UNL     1      -6.995   9.098  67.443  1.00  0.00    -0.078 C  
HETATM   18  N   UNL     1      -6.962   7.859  68.037  1.00  0.00    -0.071 N  
HETATM   19  H   UNL     1      -7.610   7.655  68.799  1.00  0.00     0.000 HD 
HETATM   20  O   UNL     1      -6.164   9.419  66.601  1.00  0.00    -0.063 OA 
BRANCH  18  21
HETATM   21  C   UNL     1      -6.022   6.823  67.605  1.00  0.00    -0.024 C  
BRANCH  21  22
HETATM   22  C   UNL     1      -6.673   5.935  66.539  1.00  0.00    -0.057 C  
HETATM   23  O   UNL     1      -6.104   6.241  65.256  1.00  0.00    -0.028 OA 
HETATM   24  H   UNL     1      -6.507   5.691  64.595  1.00  0.00     0.000 HD 
BRANCH  22  25
HETATM   25  C   UNL     1      -6.523   4.439  66.847  1.00  0.00    -0.041 C  
HETATM   26  H   UNL     1      -7.309   2.738  66.223  1.00  0.00     0.000 HD 
HETATM   27  O   UNL     1      -7.402   3.664  66.032  1.00  0.00    -0.073 OA 
ENDBRANCH  22  25
ENDBRANCH  21  22
ENDBRANCH  18  21
ENDBRANCH  12  17
BRANCH  15  28
HETATM   28  C   UNL     1     -11.614  10.109  69.369  1.00  0.00    -0.087 C  
HETATM   29  O   UNL     1     -12.666   9.858  68.794  1.00  0.00     1.432 OA 
HETATM   30  H   UNL     1     -10.608  10.203  71.210  1.00  0.00     0.000 HD 
HETATM   31  N   UNL     1     -11.494  10.001  70.747  1.00  0.00    -0.330 N  
BRANCH  31  32
HETATM   32  C   UNL     1     -12.661   9.594  71.520  1.00  0.00    -0.387 C  
BRANCH  32  33
HETATM   33  C   UNL     1     -13.776  10.646  71.537  1.00  0.00     0.231 C  
HETATM   34  H   UNL     1     -15.083  11.324  72.845  1.00  0.00     0.000 HD 
HETATM   35  O   UNL     1     -14.393  10.672  72.834  1.00  0.00     0.991 OA 
BRANCH  33  36
HETATM   36  C   UNL     1     -13.212  12.032  71.181  1.00  0.00     0.139 C  
HETATM   37  O   UNL     1     -13.270  12.926  72.291  1.00  0.00    -0.476 OA 
HETATM   38  H   UNL     1     -12.922  13.782  72.071  1.00  0.00     0.000 HD 
ENDBRANCH  33  36
ENDBRANCH  32  33
ENDBRANCH  31  32
ENDBRANCH  15  28
ENDBRANCH   5   8
BRANCH   6  39
HETATM   39  C   UNL     1      -9.969  15.017  64.749  1.00  0.00     0.175 C  
HETATM   40  O   UNL     1     -11.269  15.531  64.481  1.00  0.00    -0.644 OA 
HETATM   41  H   UNL     1     -11.254  16.371  64.035  1.00  0.00     0.000 HD 
ENDBRANCH   6  39
ENDBRANCH   4   5
ENDBRANCH   3   4
TORSDOF 12
ENDMDL
MODEL      206
REMARK 921   NORMALIZED FREE ENERGY PREDICTED BY IDOCK:   10.62 KCAL/MOL
REMARK 922        TOTAL FREE ENERGY PREDICTED BY IDOCK:   17.80 KCAL/MOL
REMARK 923 INTER-LIGAND FREE ENERGY PREDICTED BY IDOCK:   11.89 KCAL/MOL
REMARK 924 INTRA-LIGAND FREE ENERGY PREDICTED BY IDOCK:    5.91 KCAL/MOL
REMARK 927      BINDING AFFINITY PREDICTED BY RF-SCORE:    0.00 PKD
ROOT
HETATM    1  O   UNL     1     -10.275   9.149  63.895  1.00  0.00     1.045 OA 
HETATM    2  H   UNL     1      -9.850   8.629  63.223  1.00  0.00     0.000 HD 
HETATM    3  C   UNL     1     -11.153  10.108  63.323  1.00  0.00     3.165 C  
ENDROOT
BRANCH   3   4
HETATM    4  C   UNL     1     -11.838  10.947  64.409  1.00  0.00     1.480 C  
BRANCH   4   5
HETATM    5  N   UNL     1     -10.935  11.797  65.219  1.00  0.00    -0.303 N  
HETATM    6  C   UNL     1     -10.222  12.894  64.727  1.00  0.00    -0.285 C  
HETATM    7  O   UNL     1      -9.620  13.686  65.469  1.00  0.00    -0.112 OA 
BRANCH   5   8
HETATM    8  C   UNL     1     -10.956  11.607  66.649  1.00  0.00    -0.299 A  
HETATM    9  C   UNL     1     -10.473  10.406  67.240  1.00  0.00    -0.252 A  
HETATM   10  C   UNL     1     -11.537  12.595  67.480  1.00  0.00    -0.359 A  
HETATM   11  I   UNL     1      -9.519   8.929  65.953  1.00  0.00    -0.105 I  
HETATM   12  C   UNL     1     -10.532  10.195  68.646  1.00  0.00    -0.225 A  
HETATM   13  I   UNL     1     -12.737  14.157  66.575  1.00  0.00     1.135 I  
HETATM   14  I   UNL     1     -10.664  11.198  71.620  1.00  0.00     7.987 I  
HETATM   15  C   UNL     1     -11.445  12.492  68.885  1.00  0.00    -0.355 A  
HETATM   16  C   UNL     1     -10.935  11.288  69.464  1.00  0.00    -0.191 A  
BRANCH  12  17
HETATM   17  C   UNL     1     -10.357   8.786  69.164  1.00  0.00    -0.217 C  
HETATM   18  N   UNL     1      -9.522   8.560  70.233  1.00  0.00    -0.163 N  
HETATM   19  H   UNL     1      -8.952   9.327  70.590  1.00  0.00     0.000 HD 
HETATM   20  O   UNL     1     -10.976   7.868  68.637  1.00  0.00    -0.003 OA 
BRANCH  18  21
HETATM   21  C   UNL     1      -9.430   7.245  70.871  1.00  0.00    -0.159 C  
BRANCH  21  22
HETATM   22  C   UNL     1      -7.968   6.791  70.929  1.00  0.00    -0.106 C  
HETATM   23  O   UNL     1      -7.639   6.427  72.279  1.00  0.00    -0.095 OA 
HETATM   24  H   UNL     1      -6.733   6.146  72.315  1.00  0.00     0.000 HD 
BRANCH  22  25
HETATM   25  C   UNL     1      -7.675   5.626  69.974  1.00  0.00    -0.083 C  
HETATM   26  H   UNL     1      -6.762   3.877  70.050  1.00  0.00     0.000 HD 
HETATM   27  O   UNL     1      -6.943   4.598  70.641  1.00  0.00    -0.036 OA 
ENDBRANCH  22  25
ENDBRANCH  21  22
ENDBRANCH  18  21
ENDBRANCH  12  17
BRANCH  15  28
HETATM   28  C   UNL     1     -11.909  13.612  69.767  1.00  0.00    -0.327 C  
HETATM   29  O   UNL     1     -11.102  14.328  70.347  1.00  0.00    -0.039 OA 
HETATM   30  H   UNL     1     -13.936  13.212  69.392  1.00  0.00     0.000 HD 
HETATM   31  N   UNL     1     -13.277  13.810  69.891  1.00  0.00     0.676 N  
BRANCH  31  32
HETATM   32  C   UNL     1     -13.753  14.890  70.748  1.00  0.00    -0.094 C  
BRANCH  32  33
HETATM   33  C   UNL     1     -14.136  14.422  72.157  1.00  0.00    -0.535 C  
HETATM   34  H   UNL     1     -14.384  12.696  73.072  1.00  0.00     0.000 HD 
HETATM   35  O   UNL     1     -14.147  12.986  72.199  1.00  0.00    -0.327 OA 
BRANCH  33  36
HETATM   36  C   UNL     1     -13.152  14.984  73.196  1.00  0.00    -0.511 C  
HETATM   37  O   UNL     1     -11.814  14.572  72.932  1.00  0.00    -0.005 OA 
HETATM   38  H   UNL     1     -11.206  14.919  73.574  1.00  0.00     0.000 HD 
ENDBRANCH  33  36
ENDBRANCH  32  33
ENDBRANCH  31  32
ENDBRANCH  15  28
ENDBRANCH   5   8
BRANCH   6  39
HETATM   39  C   UNL     1     -10.216  13.137  63.209  1.00  0.00     1.702 C  
HETATM   40  O   UNL     1      -9.965  11.956  62.455  1.00  0.00    -0.120 OA 
HETATM   41  H   UNL     1      -9.962  12.107  61.516  1.00  0.00     0.000 HD 
ENDBRANCH   6  39
ENDBRANCH   4   5
ENDBRANCH   3   4
TORSDOF 12
ENDMDL
MODEL      207
REMARK 921   NORMALIZED FREE ENERGY PREDICTED BY IDOCK:   10.63 KCAL/MOL
REMARK 922        TOTAL FREE ENERGY PREDICTED BY IDOCK:   17.81 KCAL/MOL
REMARK 923 INTER-LIGAND FREE ENERGY PREDICTED BY IDOCK:    6.95 KCAL/MOL
REMARK 924 INTRA-LIGAND FREE ENERGY PREDICTED BY IDOCK:   10.86 KCAL/MOL
REMARK 927      BINDING AFFINITY PREDICTED BY RF-SCORE:    0.00 PKD
ROOT
HETATM    1  O   UNL     1     -13.559  15.769  64.086  1.00  0.00     0.615 OA 
HETATM    2  H   UNL     1     -14.447  16.064  64.252  1.00  0.00     0.000 HD 
HETATM    3  C   UNL     1     -13.119  14.877  65.100  1.00  0.00     0.638 C  
ENDROOT
BRANCH   3   4
HETATM    4  C   UNL     1     -11.685  14.402  64.833  1.00  0.00    -0.408 C  
BRANCH   4   5
HETATM    5  N   UNL     1     -10.625  15.148  65.549  1.00  0.00    -0.338 N  
HETATM    6  C   UNL     1     -10.555  16.541  65.640  1.00  0.00    -0.304 C  
HETATM    7  O   UNL     1      -9.758  17.121  66.394  1.00  0.00    -0.269 OA 
BRANCH   5   8
HETATM    8  C   UNL     1      -9.724  14.384  66.378  1.00  0.00    -0.302 A  
HETATM    9  C   UNL     1      -9.222  14.910  67.601  1.00  0.00    -0.187 A  
HETATM   10  C   UNL     1      -9.265  13.120  65.935  1.00  0.00     0.188 A  
HETATM   11  I   UNL     1      -9.994  16.824  68.300  1.00  0.00    -0.327 I  
HETATM   12  C   UNL     1      -8.299  14.178  68.400  1.00  0.00    -0.161 A  
HETATM   13  I   UNL     1      -9.590  12.548  63.869  1.00  0.00     1.281 I  
HETATM   14  I   UNL     1      -6.957  11.517  69.393  1.00  0.00     0.132 I  
HETATM   15  C   UNL     1      -8.495  12.300  66.787  1.00  0.00    -0.119 A  
HETATM   16  C   UNL     1      -8.018  12.834  68.026  1.00  0.00    -0.160 A  
BRANCH  12  17
HETATM   17  C   UNL     1      -7.531  14.924  69.466  1.00  0.00    -0.162 C  
HETATM   18  N   UNL     1      -6.188  14.678  69.626  1.00  0.00    -0.122 N  
HETATM   19  H   UNL     1      -5.755  13.922  69.097  1.00  0.00     0.000 HD 
HETATM   20  O   UNL     1      -8.112  15.750  70.163  1.00  0.00     0.347 OA 
BRANCH  18  21
HETATM   21  C   UNL     1      -5.364  15.475  70.537  1.00  0.00    -0.142 C  
BRANCH  21  22
HETATM   22  C   UNL     1      -5.575  15.008  71.981  1.00  0.00     0.280 C  
HETATM   23  O   UNL     1      -6.777  15.598  72.499  1.00  0.00     3.118 OA 
HETATM   24  H   UNL     1      -6.908  15.308  73.394  1.00  0.00     0.000 HD 
BRANCH  22  25
HETATM   25  C   UNL     1      -5.634  13.479  72.102  1.00  0.00     0.061 C  
HETATM   26  H   UNL     1      -5.165  11.912  70.995  1.00  0.00     0.000 HD 
HETATM   27  O   UNL     1      -5.128  12.858  70.920  1.00  0.00    -0.115 OA 
ENDBRANCH  22  25
ENDBRANCH  21  22
ENDBRANCH  18  21
ENDBRANCH  12  17
BRANCH  15  28
HETATM   28  C   UNL     1      -8.146  10.896  66.391  1.00  0.00    -0.164 C  
HETATM   29  O   UNL     1      -9.018  10.107  66.046  1.00  0.00    -0.145 OA 
HETATM   30  H   UNL     1      -6.092  11.205  66.698  1.00  0.00     0.000 HD 
HETATM   31  N   UNL     1      -6.807  10.534  66.419  1.00  0.00    -0.111 N  
BRANCH  31  32
HETATM   32  C   UNL     1      -6.443   9.172  66.043  1.00  0.00    -0.068 C  
BRANCH  32  33
HETATM   33  C   UNL     1      -5.728   8.404  67.162  1.00  0.00    -0.039 C  
HETATM   34  H   UNL     1      -4.859   8.849  68.872  1.00  0.00     0.000 HD 
HETATM   35  O   UNL     1      -5.301   9.324  68.178  1.00  0.00    -0.037 OA 
BRANCH  33  36
HETATM   36  C   UNL     1      -6.659   7.335  67.759  1.00  0.00    -0.053 C  
HETATM   37  O   UNL     1      -7.959   7.384  67.176  1.00  0.00    -0.110 OA 
HETATM   38  H   UNL     1      -8.534   6.723  67.545  1.00  0.00     0.000 HD 
ENDBRANCH  33  36
ENDBRANCH  32  33
ENDBRANCH  31  32
ENDBRANCH  15  28
ENDBRANCH   5   8
BRANCH   6  39
HETATM   39  C   UNL     1     -11.529  17.375  64.794  1.00  0.00     1.371 C  
HETATM   40  O   UNL     1     -11.989  18.545  65.462  1.00  0.00     2.759 OA 
HETATM   41  H   UNL     1     -12.592  19.061  64.938  1.00  0.00     0.000 HD 
ENDBRANCH   6  39
ENDBRANCH   4   5
ENDBRANCH   3   4
TORSDOF 12
ENDMDL
MODEL      208
REMARK 921   NORMALIZED FREE ENERGY PREDICTED BY IDOCK:   17.20 KCAL/MOL
REMARK 922        TOTAL FREE ENERGY PREDICTED BY IDOCK:   29.00 KCAL/MOL
REMARK 923 INTER-LIGAND FREE ENERGY PREDICTED BY IDOCK:   19.63 KCAL/MOL
REMARK 924 INTRA-LIGAND FREE ENERGY PREDICTED BY IDOCK:    9.37 KCAL/MOL
REMARK 927      BINDING AFFINITY PREDICTED BY RF-SCORE:    0.00 PKD
ROOT
HETATM    1  O   UNL     1     -11.085  15.781  63.104  1.00  0.00     1.012 OA 
HETATM    2  H   UNL     1     -10.936  16.352  62.360  1.00  0.00     0.000 HD 
HETATM    3  C   UNL     1     -12.319  16.078  63.740  1.00  0.00     1.211 C  
ENDROOT
BRANCH   3   4
HETATM    4  C   UNL     1     -12.559  15.155  64.941  1.00  0.00     0.202 C  
BRANCH   4   5
HETATM    5  N   UNL     1     -11.581  15.282  66.046  1.00  0.00    -0.091 N  
HETATM    6  C   UNL     1     -10.961  16.476  66.425  1.00  0.00     0.082 C  
HETATM    7  O   UNL     1     -10.289  16.578  67.463  1.00  0.00    -0.281 OA 
BRANCH   5   8
HETATM    8  C   UNL     1     -11.414  14.143  66.915  1.00  0.00    -0.357 A  
HETATM    9  C   UNL     1     -12.130  14.040  68.140  1.00  0.00    -0.272 A  
HETATM   10  C   UNL     1     -10.466  13.144  66.589  1.00  0.00    -0.277 A  
HETATM   11  I   UNL     1     -13.636  15.549  68.591  1.00  0.00     7.501 I  
HETATM   12  C   UNL     1     -11.937  12.940  69.023  1.00  0.00    -0.297 A  
HETATM   13  I   UNL     1      -9.011  13.544  65.031  1.00  0.00     3.565 I  
HETATM   14  I   UNL     1     -11.107   9.978  69.657  1.00  0.00    -0.277 I  
HETATM   15  C   UNL     1     -10.384  11.959  67.351  1.00  0.00    -0.228 A  
HETATM   16  C   UNL     1     -11.129  11.860  68.569  1.00  0.00    -0.243 A  
BRANCH  12  17
HETATM   17  C   UNL     1     -12.429  13.072  70.445  1.00  0.00    -0.194 C  
HETATM   18  N   UNL     1     -11.558  13.488  71.424  1.00  0.00     0.345 N  
HETATM   19  H   UNL     1     -10.570  13.598  71.197  1.00  0.00     0.000 HD 
HETATM   20  O   UNL     1     -13.602  12.822  70.704  1.00  0.00     0.722 OA 
BRANCH  18  21
HETATM   21  C   UNL     1     -12.014  13.777  72.785  1.00  0.00     1.241 C  
BRANCH  21  22
HETATM   22  C   UNL     1     -13.230  12.911  73.127  1.00  0.00     1.926 C  
HETATM   23  O   UNL     1     -14.362  13.363  72.367  1.00  0.00    -0.617 OA 
HETATM   24  H   UNL     1     -15.116  12.826  72.579  1.00  0.00     0.000 HD 
BRANCH  22  25
HETATM   25  C   UNL     1     -12.979  11.418  72.876  1.00  0.00     2.910 C  
HETATM   26  H   UNL     1     -13.708   9.693  73.503  1.00  0.00     0.000 HD 
HETATM   27  O   UNL     1     -13.864  10.617  73.660  1.00  0.00     3.485 OA 
ENDBRANCH  22  25
ENDBRANCH  21  22
ENDBRANCH  18  21
ENDBRANCH  12  17
BRANCH  15  28
HETATM   28  C   UNL     1      -9.501  10.827  66.917  1.00  0.00    -0.168 C  
HETATM   29  O   UNL     1      -8.783  10.937  65.930  1.00  0.00    -0.176 OA 
HETATM   30  H   UNL     1     -10.117   9.596  68.501  1.00  0.00     0.000 HD 
HETATM   31  N   UNL     1      -9.522   9.667  67.676  1.00  0.00    -0.133 N  
BRANCH  31  32
HETATM   32  C   UNL     1      -8.676   8.550  67.271  1.00  0.00    -0.130 C  
BRANCH  32  33
HETATM   33  C   UNL     1      -9.469   7.347  66.746  1.00  0.00    -0.176 C  
HETATM   34  H   UNL     1      -9.212   5.397  66.652  1.00  0.00     0.000 HD 
HETATM   35  O   UNL     1      -8.721   6.143  66.977  1.00  0.00    -0.108 OA 
BRANCH  33  36
HETATM   36  C   UNL     1     -10.843   7.269  67.432  1.00  0.00    -0.247 C  
HETATM   37  O   UNL     1     -10.729   7.345  68.851  1.00  0.00    -0.293 OA 
HETATM   38  H   UNL     1     -11.578   7.296  69.275  1.00  0.00     0.000 HD 
ENDBRANCH  33  36
ENDBRANCH  32  33
ENDBRANCH  31  32
ENDBRANCH  15  28
ENDBRANCH   5   8
BRANCH   6  39
HETATM   39  C   UNL     1     -11.155  17.713  65.534  1.00  0.00     0.436 C  
HETATM   40  O   UNL     1     -10.604  18.899  66.095  1.00  0.00    -0.446 OA 
HETATM   41  H   UNL     1     -10.724  19.664  65.543  1.00  0.00     0.000 HD 
ENDBRANCH   6  39
ENDBRANCH   4   5
ENDBRANCH   3   4
TORSDOF 12
ENDMDL
MODEL      209
REMARK 921   NORMALIZED FREE ENERGY PREDICTED BY IDOCK:   24.43 KCAL/MOL
REMARK 922        TOTAL FREE ENERGY PREDICTED BY IDOCK:   41.30 KCAL/MOL
REMARK 923 INTER-LIGAND FREE ENERGY PREDICTED BY IDOCK:   23.33 KCAL/MOL
REMARK 924 INTRA-LIGAND FREE ENERGY PREDICTED BY IDOCK:   17.97 KCAL/MOL
REMARK 927      BINDING AFFINITY PREDICTED BY RF-SCORE:    0.00 PKD
ROOT
HETATM    1  O   UNL     1      -8.529   9.370  73.223  1.00  0.00     1.041 OA 
HETATM    2  H   UNL     1      -8.680   8.784  73.955  1.00  0.00     0.000 HD 
HETATM    3  C   UNL     1      -7.144   9.639  73.058  1.00  0.00     1.813 C  
ENDROOT
BRANCH   3   4
HETATM    4  C   UNL     1      -6.902  10.586  71.877  1.00  0.00     2.689 C  
BRANCH   4   5
HETATM    5  N   UNL     1      -7.797  10.393  70.713  1.00  0.00     1.079 N  
HETATM    6  C   UNL     1      -8.321   9.161  70.308  1.00  0.00    -0.173 C  
HETATM    7  O   UNL     1      -9.205   9.065  69.443  1.00  0.00    -0.145 OA 
BRANCH   5   8
HETATM    8  C   UNL     1      -8.327  11.577  70.083  1.00  0.00     2.603 A  
HETATM    9  C   UNL     1      -9.480  11.517  69.252  1.00  0.00     0.365 A  
HETATM   10  C   UNL     1      -7.648  12.811  70.226  1.00  0.00     2.754 A  
HETATM   11  I   UNL     1     -10.552   9.626  69.101  1.00  0.00    -0.212 I  
HETATM   12  C   UNL     1      -9.981  12.675  68.592  1.00  0.00    -0.106 A  
HETATM   13  I   UNL     1      -5.634  12.816  71.030  1.00  0.00     0.300 I  
HETATM   14  I   UNL     1     -10.347  15.780  68.288  1.00  0.00    -0.265 I  
HETATM   15  C   UNL     1      -8.220  14.004  69.734  1.00  0.00     0.985 A  
HETATM   16  C   UNL     1      -9.394  13.930  68.919  1.00  0.00     0.070 A  
BRANCH  12  17
HETATM   17  C   UNL     1     -10.956  12.483  67.454  1.00  0.00    -0.259 C  
HETATM   18  N   UNL     1     -10.489  12.067  66.230  1.00  0.00    -0.232 N  
HETATM   19  H   UNL     1      -9.482  11.999  66.078  1.00  0.00     0.000 HD 
HETATM   20  O   UNL     1     -12.151  12.682  67.643  1.00  0.00    -0.391 OA 
BRANCH  18  21
HETATM   21  C   UNL     1     -11.399  11.720  65.137  1.00  0.00    -0.218 C  
BRANCH  21  22
HETATM   22  C   UNL     1     -10.751  12.050  63.788  1.00  0.00    -0.423 C  
HETATM   23  O   UNL     1     -11.775  12.403  62.845  1.00  0.00    -0.628 OA 
HETATM   24  H   UNL     1     -11.373  12.608  62.009  1.00  0.00     0.000 HD 
BRANCH  22  25
HETATM   25  C   UNL     1      -9.712  13.175  63.895  1.00  0.00     1.074 C  
HETATM   26  H   UNL     1      -8.784  14.168  65.328  1.00  0.00     0.000 HD 
HETATM   27  O   UNL     1      -9.427  13.472  65.262  1.00  0.00     0.093 OA 
ENDBRANCH  22  25
ENDBRANCH  21  22
ENDBRANCH  18  21
ENDBRANCH  12  17
BRANCH  15  28
HETATM   28  C   UNL     1      -7.590  15.334  70.025  1.00  0.00     0.125 C  
HETATM   29  O   UNL     1      -6.644  15.738  69.359  1.00  0.00    -0.152 OA 
HETATM   30  H   UNL     1      -8.920  15.740  71.598  1.00  0.00     0.000 HD 
HETATM   31  N   UNL     1      -8.125  16.085  71.061  1.00  0.00     3.477 N  
BRANCH  31  32
HETATM   32  C   UNL     1      -7.526  17.380  71.367  1.00  0.00     7.030 C  
BRANCH  32  33
HETATM   33  C   UNL     1      -6.109  17.541  70.803  1.00  0.00     0.764 C  
HETATM   34  H   UNL     1      -4.665  18.874  70.926  1.00  0.00     0.000 HD 
HETATM   35  O   UNL     1      -5.543  18.774  71.275  1.00  0.00    -0.192 OA 
BRANCH  33  36
HETATM   36  C   UNL     1      -5.228  16.350  71.215  1.00  0.00    -0.025 C  
HETATM   37  O   UNL     1      -5.962  15.387  71.967  1.00  0.00     0.711 OA 
HETATM   38  H   UNL     1      -5.418  14.651  72.222  1.00  0.00     0.000 HD 
ENDBRANCH  33  36
ENDBRANCH  32  33
ENDBRANCH  31  32
ENDBRANCH  15  28
ENDBRANCH   5   8
BRANCH   6  39
HETATM   39  C   UNL     1      -7.798   7.888  70.991  1.00  0.00    -0.089 C  
HETATM   40  O   UNL     1      -8.763   6.842  71.038  1.00  0.00    -0.136 OA 
HETATM   41  H   UNL     1      -8.439   6.054  71.461  1.00  0.00     0.000 HD 
ENDBRANCH   6  39
ENDBRANCH   4   5
ENDBRANCH   3   4
TORSDOF 12
ENDMDL
MODEL      210
REMARK 921   NORMALIZED FREE ENERGY PREDICTED BY IDOCK:   24.57 KCAL/MOL
REMARK 922        TOTAL FREE ENERGY PREDICTED BY IDOCK:   41.52 KCAL/MOL
REMARK 923 INTER-LIGAND FREE ENERGY PREDICTED BY IDOCK:   29.52 KCAL/MOL
REMARK 924 INTRA-LIGAND FREE ENERGY PREDICTED BY IDOCK:   12.00 KCAL/MOL
REMARK 927      BINDING AFFINITY PREDICTED BY RF-SCORE:    0.00 PKD
ROOT
HETATM    1  O   UNL     1      -8.378  17.995  63.123  1.00  0.00    16.035 OA 
HETATM    2  H   UNL     1      -7.844  17.503  62.511  1.00  0.00     0.000 HD 
HETATM    3  C   UNL     1      -7.978  17.750  64.464  1.00  0.00     6.502 C  
ENDROOT
BRANCH   3   4
HETATM    4  C   UNL     1      -8.841  18.544  65.452  1.00  0.00     1.498 C  
BRANCH   4   5
HETATM    5  N   UNL     1      -8.217  18.810  66.769  1.00  0.00    -0.269 N  
HETATM    6  C   UNL     1      -7.609  20.016  67.131  1.00  0.00    -0.287 C  
HETATM    7  O   UNL     1      -7.259  20.262  68.297  1.00  0.00    -0.275 OA 
BRANCH   5   8
HETATM    8  C   UNL     1      -8.434  17.837  67.811  1.00  0.00    -0.236 A  
HETATM    9  C   UNL     1      -7.354  17.346  68.598  1.00  0.00    -0.244 A  
HETATM   10  C   UNL     1      -9.727  17.297  68.009  1.00  0.00    -0.277 A  
HETATM   11  I   UNL     1      -5.385  18.239  68.327  1.00  0.00    -0.167 I  
HETATM   12  C   UNL     1      -7.556  16.353  69.598  1.00  0.00     0.215 A  
HETATM   13  I   UNL     1     -11.247  17.628  66.499  1.00  0.00     1.608 I  
HETATM   14  I   UNL     1      -9.325  14.798  71.676  1.00  0.00     7.316 I  
HETATM   15  C   UNL     1      -9.989  16.450  69.107  1.00  0.00    -0.273 A  
HETATM   16  C   UNL     1      -8.896  15.984  69.904  1.00  0.00     0.481 A  
BRANCH  12  17
HETATM   17  C   UNL     1      -6.347  15.617  70.126  1.00  0.00    -0.056 C  
HETATM   18  N   UNL     1      -6.465  14.859  71.267  1.00  0.00     0.275 N  
HETATM   19  H   UNL     1      -7.336  14.890  71.797  1.00  0.00     0.000 HD 
HETATM   20  O   UNL     1      -5.283  15.692  69.521  1.00  0.00    -0.101 OA 
BRANCH  18  21
HETATM   21  C   UNL     1      -5.373  14.006  71.740  1.00  0.00    -0.218 C  
BRANCH  21  22
HETATM   22  C   UNL     1      -5.205  12.802  70.806  1.00  0.00    -0.147 C  
HETATM   23  O   UNL     1      -6.260  11.861  71.054  1.00  0.00    -0.476 OA 
HETATM   24  H   UNL     1      -6.156  11.115  70.476  1.00  0.00     0.000 HD 
BRANCH  22  25
HETATM   25  C   UNL     1      -5.184  13.204  69.325  1.00  0.00    -0.074 C  
HETATM   26  H   UNL     1      -6.262  12.858  67.708  1.00  0.00     0.000 HD 
HETATM   27  O   UNL     1      -6.276  12.609  68.624  1.00  0.00    -0.063 OA 
ENDBRANCH  22  25
ENDBRANCH  21  22
ENDBRANCH  18  21
ENDBRANCH  12  17
BRANCH  15  28
HETATM   28  C   UNL     1     -11.388  16.008  69.420  1.00  0.00    -0.355 C  
HETATM   29  O   UNL     1     -12.331  16.779  69.289  1.00  0.00     0.729 OA 
HETATM   30  H   UNL     1     -10.775  14.069  69.940  1.00  0.00     0.000 HD 
HETATM   31  N   UNL     1     -11.570  14.702  69.848  1.00  0.00    -0.271 N  
BRANCH  31  32
HETATM   32  C   UNL     1     -12.920  14.251  70.162  1.00  0.00     0.061 C  
BRANCH  32  33
HETATM   33  C   UNL     1     -13.177  14.107  71.668  1.00  0.00    -0.353 C  
HETATM   34  H   UNL     1     -12.798  12.769  73.061  1.00  0.00     0.000 HD 
HETATM   35  O   UNL     1     -12.640  12.858  72.129  1.00  0.00    -0.014 OA 
BRANCH  33  36
HETATM   36  C   UNL     1     -12.546  15.281  72.434  1.00  0.00    -0.358 C  
HETATM   37  O   UNL     1     -12.140  16.328  71.555  1.00  0.00    -0.612 OA 
HETATM   38  H   UNL     1     -11.750  17.053  72.029  1.00  0.00     0.000 HD 
ENDBRANCH  33  36
ENDBRANCH  32  33
ENDBRANCH  31  32
ENDBRANCH  15  28
ENDBRANCH   5   8
BRANCH   6  39
HETATM   39  C   UNL     1      -7.401  21.082  66.045  1.00  0.00     0.361 C  
HETATM   40  O   UNL     1      -6.668  20.601  64.922  1.00  0.00    -0.431 OA 
HETATM   41  H   UNL     1      -6.540  21.260  64.250  1.00  0.00     0.000 HD 
ENDBRANCH   6  39
ENDBRANCH   4   5
ENDBRANCH   3   4
TORSDOF 12
ENDMDL
MODEL      211
REMARK 921   NORMALIZED FREE ENERGY PREDICTED BY IDOCK:   25.09 KCAL/MOL
REMARK 922        TOTAL FREE ENERGY PREDICTED BY IDOCK:   42.42 KCAL/MOL
REMARK 923 INTER-LIGAND FREE ENERGY PREDICTED BY IDOCK:   24.99 KCAL/MOL
REMARK 924 INTRA-LIGAND FREE ENERGY PREDICTED BY IDOCK:   17.43 KCAL/MOL
REMARK 927      BINDING AFFINITY PREDICTED BY RF-SCORE:    0.00 PKD
ROOT
HETATM    1  O   UNL     1     -10.650  16.206  62.928  1.00  0.00     3.854 OA 
HETATM    2  H   UNL     1     -10.494  16.568  62.064  1.00  0.00     0.000 HD 
HETATM    3  C   UNL     1     -11.795  16.791  63.529  1.00  0.00     3.967 C  
ENDROOT
BRANCH   3   4
HETATM    4  C   UNL     1     -12.046  16.207  64.925  1.00  0.00     0.755 C  
BRANCH   4   5
HETATM    5  N   UNL     1     -11.140  16.695  65.991  1.00  0.00     0.128 N  
HETATM    6  C   UNL     1     -10.822  18.039  66.210  1.00  0.00     0.053 C  
HETATM    7  O   UNL     1     -10.206  18.422  67.217  1.00  0.00    -0.338 OA 
BRANCH   5   8
HETATM    8  C   UNL     1     -10.725  15.744  66.992  1.00  0.00    -0.306 A  
HETATM    9  C   UNL     1      -9.700  16.058  67.928  1.00  0.00    -0.220 A  
HETATM   10  C   UNL     1     -11.286  14.444  67.000  1.00  0.00    -0.346 A  
HETATM   11  I   UNL     1      -8.899  18.084  67.945  1.00  0.00    -0.295 I  
HETATM   12  C   UNL     1      -9.256  15.107  68.889  1.00  0.00    -0.209 A  
HETATM   13  I   UNL     1     -12.435  13.784  65.284  1.00  0.00    -0.431 I  
HETATM   14  I   UNL     1      -9.644  12.563  70.690  1.00  0.00     9.694 I  
HETATM   15  C   UNL     1     -10.996  13.546  68.050  1.00  0.00    -0.271 A  
HETATM   16  C   UNL     1      -9.980  13.887  68.998  1.00  0.00     0.023 A  
BRANCH  12  17
HETATM   17  C   UNL     1      -7.941  15.361  69.589  1.00  0.00    -0.138 C  
HETATM   18  N   UNL     1      -6.856  14.572  69.292  1.00  0.00    -0.126 N  
HETATM   19  H   UNL     1      -6.982  13.761  68.685  1.00  0.00     0.000 HD 
HETATM   20  O   UNL     1      -7.856  16.278  70.399  1.00  0.00     1.364 OA 
BRANCH  18  21
HETATM   21  C   UNL     1      -5.524  14.864  69.824  1.00  0.00    -0.098 C  
BRANCH  21  22
HETATM   22  C   UNL     1      -5.540  14.784  71.354  1.00  0.00    -0.032 C  
HETATM   23  O   UNL     1      -5.677  16.106  71.896  1.00  0.00     0.600 OA 
HETATM   24  H   UNL     1      -5.687  16.057  72.844  1.00  0.00     0.000 HD 
BRANCH  22  25
HETATM   25  C   UNL     1      -6.654  13.871  71.883  1.00  0.00     1.909 C  
HETATM   26  H   UNL     1      -7.232  13.139  73.624  1.00  0.00     0.000 HD 
HETATM   27  O   UNL     1      -6.542  13.704  73.297  1.00  0.00     1.137 OA 
ENDBRANCH  22  25
ENDBRANCH  21  22
ENDBRANCH  18  21
ENDBRANCH  12  17
BRANCH  15  28
HETATM   28  C   UNL     1     -11.712  12.233  68.156  1.00  0.00    -0.349 C  
HETATM   29  O   UNL     1     -12.389  11.812  67.225  1.00  0.00    -0.211 OA 
HETATM   30  H   UNL     1     -10.995  11.875  70.096  1.00  0.00     0.000 HD 
HETATM   31  N   UNL     1     -11.571  11.516  69.335  1.00  0.00    -0.292 N  
BRANCH  31  32
HETATM   32  C   UNL     1     -12.262  10.238  69.463  1.00  0.00     0.110 C  
BRANCH  32  33
HETATM   33  C   UNL     1     -13.669  10.366  70.061  1.00  0.00     1.407 C  
HETATM   34  H   UNL     1     -14.747   9.405  71.399  1.00  0.00     0.000 HD 
HETATM   35  O   UNL     1     -13.876   9.325  71.028  1.00  0.00    -0.207 OA 
BRANCH  33  36
HETATM   36  C   UNL     1     -13.853  11.749  70.709  1.00  0.00     2.319 C  
HETATM   37  O   UNL     1     -13.031  12.735  70.090  1.00  0.00     0.286 OA 
HETATM   38  H   UNL     1     -13.145  13.589  70.490  1.00  0.00     0.000 HD 
ENDBRANCH  33  36
ENDBRANCH  32  33
ENDBRANCH  31  32
ENDBRANCH  15  28
ENDBRANCH   5   8
BRANCH   6  39
HETATM   39  C   UNL     1     -11.286  19.075  65.175  1.00  0.00     1.385 C  
HETATM   40  O   UNL     1     -10.802  20.387  65.442  1.00  0.00    -0.127 OA 
HETATM   41  H   UNL     1     -11.089  21.028  64.801  1.00  0.00     0.000 HD 
ENDBRANCH   6  39
ENDBRANCH   4   5
ENDBRANCH   3   4
TORSDOF 12
ENDMDL
MODEL      212
REMARK 921   NORMALIZED FREE ENERGY PREDICTED BY IDOCK:   30.14 KCAL/MOL
REMARK 922        TOTAL FREE ENERGY PREDICTED BY IDOCK:   51.00 KCAL/MOL
REMARK 923 INTER-LIGAND FREE ENERGY PREDICTED BY IDOCK:   34.61 KCAL/MOL
REMARK 924 INTRA-LIGAND FREE ENERGY PREDICTED BY IDOCK:   16.39 KCAL/MOL
REMARK 927      BINDING AFFINITY PREDICTED BY RF-SCORE:    0.00 PKD
ROOT
HETATM    1  O   UNL     1      -9.261  18.005  63.115  1.00  0.00    16.313 OA 
HETATM    2  H   UNL     1      -9.000  17.768  62.233  1.00  0.00     0.000 HD 
HETATM    3  C   UNL     1      -8.718  17.103  64.069  1.00  0.00    11.551 C  
ENDROOT
BRANCH   3   4
HETATM    4  C   UNL     1      -9.139  17.486  65.493  1.00  0.00     0.871 C  
BRANCH   4   5
HETATM    5  N   UNL     1      -8.308  16.913  66.577  1.00  0.00    -0.253 N  
HETATM    6  C   UNL     1      -7.059  17.406  66.966  1.00  0.00    -0.183 C  
HETATM    7  O   UNL     1      -6.477  17.014  67.990  1.00  0.00    -0.139 OA 
BRANCH   5   8
HETATM    8  C   UNL     1      -8.918  15.913  67.419  1.00  0.00    -0.192 A  
HETATM    9  C   UNL     1      -8.245  14.698  67.726  1.00  0.00    -0.162 A  
HETATM   10  C   UNL     1     -10.240  16.102  67.887  1.00  0.00    -0.261 A  
HETATM   11  I   UNL     1      -6.186  14.455  67.056  1.00  0.00     2.361 I  
HETATM   12  C   UNL     1      -8.860  13.688  68.520  1.00  0.00    -0.099 A  
HETATM   13  I   UNL     1     -11.454  17.668  67.006  1.00  0.00     2.269 I  
HETATM   14  I   UNL     1     -10.913  12.696  70.680  1.00  0.00     3.791 I  
HETATM   15  C   UNL     1     -10.804  15.205  68.819  1.00  0.00    -0.247 A  
HETATM   16  C   UNL     1     -10.104  13.998  69.137  1.00  0.00     0.036 A  
BRANCH  12  17
HETATM   17  C   UNL     1      -8.263  12.301  68.498  1.00  0.00    -0.096 C  
HETATM   18  N   UNL     1      -9.043  11.226  68.851  1.00  0.00    -0.361 N  
HETATM   19  H   UNL     1      -9.978  11.391  69.224  1.00  0.00     0.000 HD 
HETATM   20  O   UNL     1      -7.096  12.151  68.150  1.00  0.00    -0.075 OA 
BRANCH  18  21
HETATM   21  C   UNL     1      -8.567   9.849  68.705  1.00  0.00    -0.130 C  
BRANCH  21  22
HETATM   22  C   UNL     1      -9.733   8.927  68.333  1.00  0.00    -0.161 C  
HETATM   23  O   UNL     1     -10.551   8.707  69.493  1.00  0.00    -0.223 OA 
HETATM   24  H   UNL     1     -11.273   8.135  69.262  1.00  0.00     0.000 HD 
BRANCH  22  25
HETATM   25  C   UNL     1     -10.579   9.484  67.180  1.00  0.00    -0.225 C  
HETATM   26  H   UNL     1     -10.916   9.053  65.282  1.00  0.00     0.000 HD 
HETATM   27  O   UNL     1     -10.393   8.708  65.996  1.00  0.00     0.011 OA 
ENDBRANCH  22  25
ENDBRANCH  21  22
ENDBRANCH  18  21
ENDBRANCH  12  17
BRANCH  15  28
HETATM   28  C   UNL     1     -12.138  15.487  69.446  1.00  0.00    -0.277 C  
HETATM   29  O   UNL     1     -12.444  16.625  69.781  1.00  0.00     0.718 OA 
HETATM   30  H   UNL     1     -12.741  13.480  69.323  1.00  0.00     0.000 HD 
HETATM   31  N   UNL     1     -13.006  14.419  69.618  1.00  0.00     0.267 N  
BRANCH  31  32
HETATM   32  C   UNL     1     -14.307  14.668  70.230  1.00  0.00     1.997 C  
BRANCH  32  33
HETATM   33  C   UNL     1     -14.240  14.826  71.754  1.00  0.00    -0.541 C  
HETATM   34  H   UNL     1     -14.267  13.630  73.318  1.00  0.00     0.000 HD 
HETATM   35  O   UNL     1     -14.308  13.532  72.374  1.00  0.00    -0.645 OA 
BRANCH  33  36
HETATM   36  C   UNL     1     -12.948  15.553  72.163  1.00  0.00    -0.422 C  
HETATM   37  O   UNL     1     -12.214  16.002  71.026  1.00  0.00    -0.501 OA 
HETATM   38  H   UNL     1     -11.415  16.451  71.279  1.00  0.00     0.000 HD 
ENDBRANCH  33  36
ENDBRANCH  32  33
ENDBRANCH  31  32
ENDBRANCH  15  28
ENDBRANCH   5   8
BRANCH   6  39
HETATM   39  C   UNL     1      -6.407  18.498  66.104  1.00  0.00    -0.199 C  
HETATM   40  O   UNL     1      -6.328  18.150  64.726  1.00  0.00    -0.179 OA 
HETATM   41  H   UNL     1      -5.925  18.825  64.193  1.00  0.00     0.000 HD 
ENDBRANCH   6  39
ENDBRANCH   4   5
ENDBRANCH   3   4
TORSDOF 12
ENDMDL
MODEL      213
REMARK 921   NORMALIZED FREE ENERGY PREDICTED BY IDOCK:   31.43 KCAL/MOL
REMARK 922        TOTAL FREE ENERGY PREDICTED BY IDOCK:   53.20 KCAL/MOL
REMARK 923 INTER-LIGAND FREE ENERGY PREDICTED BY IDOCK:   28.36 KCAL/MOL
REMARK 924 INTRA-LIGAND FREE ENERGY PREDICTED BY IDOCK:   24.84 KCAL/MOL
REMARK 927      BINDING AFFINITY PREDICTED BY RF-SCORE:    0.00 PKD
ROOT
HETATM    1  O   UNL     1     -10.301   9.105  63.897  1.00  0.00     1.538 OA 
HETATM    2  H   UNL     1     -10.047   8.630  63.115  1.00  0.00     0.000 HD 
HETATM    3  C   UNL     1     -11.171  10.182  63.583  1.00  0.00     3.552 C  
ENDROOT
BRANCH   3   4
HETATM    4  C   UNL     1     -11.579  10.949  64.846  1.00  0.00     0.897 C  
BRANCH   4   5
HETATM    5  N   UNL     1     -10.469  11.593  65.587  1.00  0.00    -0.259 N  
HETATM    6  C   UNL     1      -9.629  12.578  65.061  1.00  0.00     0.119 C  
HETATM    7  O   UNL     1      -8.830  13.218  65.763  1.00  0.00     0.486 OA 
BRANCH   5   8
HETATM    8  C   UNL     1     -10.382  11.333  67.003  1.00  0.00    -0.227 A  
HETATM    9  C   UNL     1     -10.251  10.008  67.503  1.00  0.00    -0.212 A  
HETATM   10  C   UNL     1     -10.507  12.403  67.921  1.00  0.00    -0.215 A  
HETATM   11  I   UNL     1      -9.990   8.383  66.075  1.00  0.00     0.842 I  
HETATM   12  C   UNL     1     -10.210   9.742  68.901  1.00  0.00    -0.213 A  
HETATM   13  I   UNL     1     -11.229  14.320  67.210  1.00  0.00    -0.387 I  
HETATM   14  I   UNL     1      -9.657  10.554  71.884  1.00  0.00    10.119 I  
HETATM   15  C   UNL     1     -10.289  12.193  69.299  1.00  0.00     0.204 A  
HETATM   16  C   UNL     1     -10.135  10.855  69.785  1.00  0.00     0.211 A  
BRANCH  12  17
HETATM   17  C   UNL     1     -10.445   8.324  69.365  1.00  0.00    -0.220 C  
HETATM   18  N   UNL     1     -11.695   7.768  69.229  1.00  0.00     0.167 N  
HETATM   19  H   UNL     1     -12.469   8.355  68.916  1.00  0.00     0.000 HD 
HETATM   20  O   UNL     1      -9.514   7.682  69.841  1.00  0.00    -0.161 OA 
BRANCH  18  21
HETATM   21  C   UNL     1     -11.944   6.355  69.520  1.00  0.00     0.473 C  
BRANCH  21  22
HETATM   22  C   UNL     1     -11.050   5.892  70.675  1.00  0.00    -0.265 C  
HETATM   23  O   UNL     1     -10.134   4.897  70.193  1.00  0.00    -0.241 OA 
HETATM   24  H   UNL     1      -9.579   4.609  70.908  1.00  0.00     0.000 HD 
BRANCH  22  25
HETATM   25  C   UNL     1     -10.285   7.051  71.329  1.00  0.00    -0.190 C  
HETATM   26  H   UNL     1     -10.128   9.005  71.096  1.00  0.00     0.000 HD 
HETATM   27  O   UNL     1     -10.601   8.288  70.691  1.00  0.00    -0.207 OA 
ENDBRANCH  22  25
ENDBRANCH  21  22
ENDBRANCH  18  21
ENDBRANCH  12  17
BRANCH  15  28
HETATM   28  C   UNL     1     -10.255  13.347  70.256  1.00  0.00     2.487 C  
HETATM   29  O   UNL     1      -9.197  13.723  70.746  1.00  0.00     4.144 OA 
HETATM   30  H   UNL     1     -12.328  13.654  70.128  1.00  0.00     0.000 HD 
HETATM   31  N   UNL     1     -11.457  13.973  70.553  1.00  0.00    -0.089 N  
BRANCH  31  32
HETATM   32  C   UNL     1     -11.451  15.094  71.484  1.00  0.00    -0.365 C  
BRANCH  32  33
HETATM   33  C   UNL     1     -11.794  14.690  72.923  1.00  0.00     0.057 C  
HETATM   34  H   UNL     1     -10.896  13.739  74.394  1.00  0.00     0.000 HD 
HETATM   35  O   UNL     1     -10.683  13.989  73.503  1.00  0.00     3.670 OA 
BRANCH  33  36
HETATM   36  C   UNL     1     -12.144  15.932  73.761  1.00  0.00    -0.445 C  
HETATM   37  O   UNL     1     -10.975  16.624  74.192  1.00  0.00     2.380 OA 
HETATM   38  H   UNL     1     -11.191  17.390  74.710  1.00  0.00     0.000 HD 
ENDBRANCH  33  36
ENDBRANCH  32  33
ENDBRANCH  31  32
ENDBRANCH  15  28
ENDBRANCH   5   8
BRANCH   6  39
HETATM   39  C   UNL     1      -9.731  12.897  63.561  1.00  0.00     1.273 C  
HETATM   40  O   UNL     1     -10.848  12.278  62.932  1.00  0.00    -0.566 OA 
HETATM   41  H   UNL     1     -10.911  12.475  62.004  1.00  0.00     0.000 HD 
ENDBRANCH   6  39
ENDBRANCH   4   5
ENDBRANCH   3   4
TORSDOF 12
ENDMDL
