MODEL        1
REMARK 921   NORMALIZED FREE ENERGY PREDICTED BY IDOCK:   -5.62 KCAL/MOL
REMARK 922        TOTAL FREE ENERGY PREDICTED BY IDOCK:   -9.70 KCAL/MOL
REMARK 923 INTER-LIGAND FREE ENERGY PREDICTED BY IDOCK:   -8.58 KCAL/MOL
REMARK 924 INTRA-LIGAND FREE ENERGY PREDICTED BY IDOCK:   -1.12 KCAL/MOL
REMARK 927      BINDING AFFINITY PREDICTED BY RF-SCORE:    0.00 PKD
ROOT
HETATM    1  C   UNL     1     -13.956   7.157  71.479  1.00  0.00    -0.312 C  
HETATM    2  N   UNL     1     -12.537   7.034  71.201  1.00  0.00    -0.447 N  
HETATM    3  H   UNL     1     -12.240   6.594  70.329  1.00  0.00     0.000 HD 
HETATM    4  C   UNL     1     -11.575   7.496  72.083  1.00  0.00    -0.298 C  
HETATM    5  O   UNL     1     -11.846   8.093  73.106  1.00  0.00    -0.224 OA 
ENDROOT
BRANCH   4   6
HETATM    6  C   UNL     1     -10.143   7.223  71.703  1.00  0.00    -0.196 A  
HETATM    7  C   UNL     1      -9.460   8.033  70.769  1.00  0.00    -0.161 A  
HETATM    8  I   UNL     1     -10.511   9.659  69.809  1.00  0.00    -0.340 I  
HETATM    9  C   UNL     1      -8.076   7.811  70.523  1.00  0.00    -0.103 A  
HETATM   10  I   UNL     1     -10.734   4.387  72.743  1.00  0.00    -0.104 I  
HETATM   11  C   UNL     1      -7.373   6.946  71.423  1.00  0.00    -0.081 A  
HETATM   12  I   UNL     1      -5.408   7.747  71.996  1.00  0.00    -0.036 I  
HETATM   13  C   UNL     1      -8.030   6.010  72.284  1.00  0.00    -0.102 A  
HETATM   14  C   UNL     1      -9.457   6.130  72.294  1.00  0.00    -0.149 A  
BRANCH   9  15
HETATM   15  C   UNL     1      -7.366   8.475  69.354  1.00  0.00    -0.069 C  
HETATM   16  N   UNL     1      -6.868   9.754  69.532  1.00  0.00    -0.055 N  
HETATM   17  O   UNL     1      -7.192   7.921  68.280  1.00  0.00    -0.085 OA 
HETATM   18  H   UNL     1      -7.119  10.290  70.362  1.00  0.00     0.000 HD 
BRANCH  16  19
HETATM   19  C   UNL     1      -5.979  10.334  68.519  1.00  0.00    -0.040 C  
BRANCH  19  20
HETATM   20  C   UNL     1      -6.707  11.168  67.440  1.00  0.00    -0.084 C  
HETATM   21  N   UNL     1      -7.975  11.591  67.821  1.00  0.00    -0.122 N  
HETATM   22  O   UNL     1      -6.159  11.482  66.387  1.00  0.00    -0.128 OA 
HETATM   23  H   UNL     1      -8.348  11.291  68.723  1.00  0.00     0.000 HD 
BRANCH  21  24
HETATM   24  C   UNL     1      -8.773  12.438  66.985  1.00  0.00    -0.207 A  
HETATM   25  C   UNL     1      -9.561  11.849  65.970  1.00  0.00    -0.235 A  
HETATM   26  C   UNL     1     -10.382  12.641  65.135  1.00  0.00    -0.312 A  
HETATM   27  I   UNL     1      -9.606   9.707  65.807  1.00  0.00    -0.301 I  
HETATM   28  C   UNL     1     -11.050  11.979  63.967  1.00  0.00    -0.386 C  
HETATM   29  C   UNL     1     -10.463  14.036  65.350  1.00  0.00    -0.351 A  
HETATM   30  I   UNL     1     -11.909  15.185  64.208  1.00  0.00     0.287 I  
HETATM   31  O   UNL     1     -10.421  11.340  63.148  1.00  0.00    -0.333 OA 
HETATM   32  O   UNL     1     -12.392  12.070  63.958  1.00  0.00    -0.420 OA 
HETATM   33  C   UNL     1      -9.639  14.668  66.324  1.00  0.00    -0.333 A  
HETATM   34  I   UNL     1      -7.084  14.762  68.144  1.00  0.00    -0.192 I  
HETATM   35  C   UNL     1      -8.756  13.854  67.096  1.00  0.00    -0.221 A  
BRANCH  33  36
HETATM   36  C   UNL     1      -9.640  16.162  66.446  1.00  0.00    -0.287 C  
HETATM   37  O   UNL     1      -8.860  16.838  65.783  1.00  0.00    -0.505 OA 
HETATM   38  N   UNL     1     -10.544  16.744  67.317  1.00  0.00    -0.306 N  
HETATM   39  H   UNL     1     -11.215  16.157  67.812  1.00  0.00     0.000 HD 
BRANCH  38  40
HETATM   40  C   UNL     1     -10.550  18.190  67.538  1.00  0.00    -0.401 C  
BRANCH  40  41
HETATM   41  C   UNL     1      -9.774  18.570  68.798  1.00  0.00    -0.357 C  
HETATM   42  O   UNL     1      -8.371  18.480  68.549  1.00  0.00    -0.324 OA 
HETATM   43  H   UNL     1      -7.889  18.716  69.333  1.00  0.00     0.000 HD 
ENDBRANCH  40  41
ENDBRANCH  38  40
ENDBRANCH  33  36
ENDBRANCH  21  24
ENDBRANCH  19  20
ENDBRANCH  16  19
ENDBRANCH   9  15
BRANCH  13  44
HETATM   44  N   UNL     1      -7.339   5.085  73.189  1.00  0.00    -0.086 N  
HETATM   45  C   UNL     1      -6.870   3.779  72.961  1.00  0.00    -0.040 C  
HETATM   46  O   UNL     1      -6.205   3.188  73.830  1.00  0.00    -0.017 OA 
HETATM   47  C   UNL     1      -7.056   5.525  74.564  1.00  0.00    -0.082 C  
HETATM   48  C   UNL     1      -7.182   3.002  71.730  1.00  0.00    -0.039 C  
ENDBRANCH  13  44
ENDBRANCH   4   6
TORSDOF 9
ENDMDL
MODEL        2
REMARK 921   NORMALIZED FREE ENERGY PREDICTED BY IDOCK:   -5.59 KCAL/MOL
REMARK 922        TOTAL FREE ENERGY PREDICTED BY IDOCK:   -9.65 KCAL/MOL
REMARK 923 INTER-LIGAND FREE ENERGY PREDICTED BY IDOCK:   -8.51 KCAL/MOL
REMARK 924 INTRA-LIGAND FREE ENERGY PREDICTED BY IDOCK:   -1.13 KCAL/MOL
REMARK 927      BINDING AFFINITY PREDICTED BY RF-SCORE:    0.00 PKD
ROOT
HETATM    1  C   UNL     1      -6.009   7.439  63.497  1.00  0.00    -0.049 C  
HETATM    2  N   UNL     1      -6.619   7.551  64.810  1.00  0.00    -0.040 N  
HETATM    3  H   UNL     1      -6.239   8.224  65.476  1.00  0.00     0.000 HD 
HETATM    4  C   UNL     1      -7.700   6.771  65.184  1.00  0.00    -0.105 C  
HETATM    5  O   UNL     1      -8.254   5.999  64.426  1.00  0.00    -0.131 OA 
ENDROOT
BRANCH   4   6
HETATM    6  C   UNL     1      -8.174   6.933  66.605  1.00  0.00    -0.115 A  
HETATM    7  C   UNL     1      -8.941   8.050  67.004  1.00  0.00    -0.138 A  
HETATM    8  I   UNL     1      -9.387   9.597  65.563  1.00  0.00    -0.319 I  
HETATM    9  C   UNL     1      -9.464   8.109  68.326  1.00  0.00    -0.148 A  
HETATM   10  I   UNL     1      -5.886   4.982  67.261  1.00  0.00    -0.024 I  
HETATM   11  C   UNL     1      -9.409   6.915  69.114  1.00  0.00    -0.140 A  
HETATM   12  I   UNL     1     -11.280   6.542  70.207  1.00  0.00    -0.451 I  
HETATM   13  C   UNL     1      -8.538   5.818  68.817  1.00  0.00    -0.109 A  
HETATM   14  C   UNL     1      -7.847   5.945  67.569  1.00  0.00    -0.098 A  
BRANCH   9  15
HETATM   15  C   UNL     1     -10.068   9.390  68.879  1.00  0.00    -0.190 C  
HETATM   16  N   UNL     1     -11.212   9.886  68.280  1.00  0.00    -0.514 N  
HETATM   17  O   UNL     1      -9.605   9.982  69.842  1.00  0.00    -0.226 OA 
HETATM   18  H   UNL     1     -11.538   9.495  67.396  1.00  0.00     0.000 HD 
BRANCH  16  19
HETATM   19  C   UNL     1     -11.954  10.976  68.923  1.00  0.00    -0.262 C  
BRANCH  19  20
HETATM   20  C   UNL     1     -11.287  12.364  68.787  1.00  0.00    -0.293 C  
HETATM   21  N   UNL     1     -10.509  12.500  67.642  1.00  0.00    -0.215 N  
HETATM   22  O   UNL     1     -11.508  13.269  69.586  1.00  0.00    -0.258 OA 
HETATM   23  H   UNL     1     -10.389  11.695  67.026  1.00  0.00     0.000 HD 
BRANCH  21  24
HETATM   24  C   UNL     1      -9.872  13.738  67.303  1.00  0.00    -0.241 A  
HETATM   25  C   UNL     1     -10.544  14.640  66.447  1.00  0.00    -0.301 A  
HETATM   26  C   UNL     1      -9.966  15.883  66.102  1.00  0.00    -0.337 A  
HETATM   27  I   UNL     1     -12.531  14.156  65.788  1.00  0.00    -0.217 I  
HETATM   28  C   UNL     1     -10.644  16.711  65.052  1.00  0.00    -0.091 C  
HETATM   29  C   UNL     1      -8.724  16.259  66.664  1.00  0.00    -0.259 A  
HETATM   30  I   UNL     1      -7.981  18.267  66.302  1.00  0.00    -0.103 I  
HETATM   31  O   UNL     1     -10.913  16.261  63.957  1.00  0.00    -0.533 OA 
HETATM   32  O   UNL     1     -11.010  17.942  65.452  1.00  0.00    -0.447 OA 
HETATM   33  C   UNL     1      -7.994  15.351  67.482  1.00  0.00    -0.192 A  
HETATM   34  I   UNL     1      -7.302  12.449  68.455  1.00  0.00    -0.042 I  
HETATM   35  C   UNL     1      -8.564  14.067  67.745  1.00  0.00    -0.183 A  
BRANCH  33  36
HETATM   36  C   UNL     1      -6.621  15.714  67.959  1.00  0.00    -0.139 C  
HETATM   37  O   UNL     1      -5.648  15.552  67.229  1.00  0.00    -0.338 OA 
HETATM   38  N   UNL     1      -6.490  16.239  69.233  1.00  0.00    -0.175 N  
HETATM   39  H   UNL     1      -7.324  16.412  69.793  1.00  0.00     0.000 HD 
BRANCH  38  40
HETATM   40  C   UNL     1      -5.172  16.548  69.787  1.00  0.00    -0.149 C  
BRANCH  40  41
HETATM   41  C   UNL     1      -5.173  17.882  70.530  1.00  0.00    -0.276 C  
HETATM   42  O   UNL     1      -6.044  18.803  69.873  1.00  0.00    -0.256 OA 
HETATM   43  H   UNL     1      -6.045  19.633  70.336  1.00  0.00     0.000 HD 
ENDBRANCH  40  41
ENDBRANCH  38  40
ENDBRANCH  33  36
ENDBRANCH  21  24
ENDBRANCH  19  20
ENDBRANCH  16  19
ENDBRANCH   9  15
BRANCH  13  44
HETATM   44  N   UNL     1      -8.430   4.598  69.626  1.00  0.00    -0.073 N  
HETATM   45  C   UNL     1      -7.814   4.390  70.872  1.00  0.00    -0.067 C  
HETATM   46  O   UNL     1      -7.924   3.297  71.453  1.00  0.00    -0.057 OA 
HETATM   47  C   UNL     1      -9.041   3.361  69.115  1.00  0.00    -0.142 C  
HETATM   48  C   UNL     1      -6.955   5.408  71.538  1.00  0.00    -0.066 C  
ENDBRANCH  13  44
ENDBRANCH   4   6
TORSDOF 9
ENDMDL
MODEL        3
REMARK 921   NORMALIZED FREE ENERGY PREDICTED BY IDOCK:   -5.16 KCAL/MOL
REMARK 922        TOTAL FREE ENERGY PREDICTED BY IDOCK:   -9.00 KCAL/MOL
REMARK 923 INTER-LIGAND FREE ENERGY PREDICTED BY IDOCK:   -7.94 KCAL/MOL
REMARK 924 INTRA-LIGAND FREE ENERGY PREDICTED BY IDOCK:   -1.06 KCAL/MOL
REMARK 927      BINDING AFFINITY PREDICTED BY RF-SCORE:    0.00 PKD
ROOT
HETATM    1  C   UNL     1     -10.899   3.672  73.910  1.00  0.00    -0.221 C  
HETATM    2  N   UNL     1     -10.688   3.995  72.511  1.00  0.00    -0.068 N  
HETATM    3  H   UNL     1     -11.477   3.942  71.866  1.00  0.00     0.000 HD 
HETATM    4  C   UNL     1      -9.447   4.372  72.026  1.00  0.00    -0.141 C  
HETATM    5  O   UNL     1      -8.475   4.527  72.739  1.00  0.00    -0.110 OA 
ENDROOT
BRANCH   4   6
HETATM    6  C   UNL     1      -9.357   4.593  70.538  1.00  0.00    -0.222 A  
HETATM    7  C   UNL     1      -9.944   5.721  69.923  1.00  0.00    -0.194 A  
HETATM    8  I   UNL     1     -11.058   7.125  71.130  1.00  0.00    -0.336 I  
HETATM    9  C   UNL     1      -9.740   5.952  68.534  1.00  0.00    -0.151 A  
HETATM   10  I   UNL     1      -8.807   1.567  70.436  1.00  0.00    -0.149 I  
HETATM   11  C   UNL     1      -8.734   5.174  67.874  1.00  0.00    -0.102 A  
HETATM   12  I   UNL     1      -7.483   6.384  66.531  1.00  0.00    -0.089 I  
HETATM   13  C   UNL     1      -8.217   3.949  68.404  1.00  0.00    -0.075 A  
HETATM   14  C   UNL     1      -8.666   3.653  69.731  1.00  0.00    -0.075 A  
BRANCH   9  15
HETATM   15  C   UNL     1     -10.552   6.992  67.780  1.00  0.00    -0.233 C  
HETATM   16  N   UNL     1     -10.302   8.329  68.036  1.00  0.00    -0.238 N  
HETATM   17  O   UNL     1     -11.390   6.701  66.940  1.00  0.00    -0.333 OA 
HETATM   18  H   UNL     1      -9.714   8.598  68.824  1.00  0.00     0.000 HD 
BRANCH  16  19
HETATM   19  C   UNL     1     -10.889   9.356  67.168  1.00  0.00    -0.062 C  
BRANCH  19  20
HETATM   20  C   UNL     1     -10.461  10.800  67.517  1.00  0.00    -0.220 C  
HETATM   21  N   UNL     1      -9.871  11.480  66.457  1.00  0.00    -0.198 N  
HETATM   22  O   UNL     1     -10.707  11.301  68.610  1.00  0.00    -0.185 OA 
HETATM   23  H   UNL     1      -9.714  10.986  65.577  1.00  0.00     0.000 HD 
BRANCH  21  24
HETATM   24  C   UNL     1      -9.477  12.853  66.565  1.00  0.00    -0.251 A  
HETATM   25  C   UNL     1     -10.324  13.851  66.032  1.00  0.00    -0.305 A  
HETATM   26  C   UNL     1      -9.989  15.221  66.134  1.00  0.00    -0.325 A  
HETATM   27  I   UNL     1     -12.210  13.263  65.186  1.00  0.00    -0.543 I  
HETATM   28  C   UNL     1     -10.835  16.213  65.393  1.00  0.00    -0.307 C  
HETATM   29  C   UNL     1      -8.819  15.607  66.828  1.00  0.00    -0.272 A  
HETATM   30  I   UNL     1      -8.460  17.721  67.171  1.00  0.00    -0.269 I  
HETATM   31  O   UNL     1     -11.051  16.107  64.203  1.00  0.00    -0.627 OA 
HETATM   32  O   UNL     1     -11.404  17.157  66.164  1.00  0.00     0.503 OA 
HETATM   33  C   UNL     1      -7.914  14.626  67.325  1.00  0.00    -0.223 A  
HETATM   34  I   UNL     1      -6.684  11.739  67.311  1.00  0.00    -0.114 I  
HETATM   35  C   UNL     1      -8.236  13.248  67.133  1.00  0.00    -0.114 A  
BRANCH  33  36
HETATM   36  C   UNL     1      -6.615  15.052  67.939  1.00  0.00    -0.158 C  
HETATM   37  O   UNL     1      -5.648  15.304  67.228  1.00  0.00    -0.332 OA 
HETATM   38  N   UNL     1      -6.548  15.157  69.317  1.00  0.00    -0.128 N  
HETATM   39  H   UNL     1      -7.387  14.993  69.875  1.00  0.00     0.000 HD 
BRANCH  38  40
HETATM   40  C   UNL     1      -5.293  15.497  69.985  1.00  0.00    -0.117 C  
BRANCH  40  41
HETATM   41  C   UNL     1      -5.127  14.731  71.296  1.00  0.00    -0.140 C  
HETATM   42  O   UNL     1      -6.274  13.913  71.528  1.00  0.00    -0.541 OA 
HETATM   43  H   UNL     1      -6.170  13.436  72.343  1.00  0.00     0.000 HD 
ENDBRANCH  40  41
ENDBRANCH  38  40
ENDBRANCH  33  36
ENDBRANCH  21  24
ENDBRANCH  19  20
ENDBRANCH  16  19
ENDBRANCH   9  15
BRANCH  13  44
HETATM   44  N   UNL     1      -7.216   3.111  67.735  1.00  0.00    -0.053 N  
HETATM   45  C   UNL     1      -7.343   2.266  66.619  1.00  0.00    -0.061 C  
HETATM   46  O   UNL     1      -6.343   1.714  66.129  1.00  0.00    -0.022 OA 
HETATM   47  C   UNL     1      -5.841   3.104  68.259  1.00  0.00    -0.023 C  
HETATM   48  C   UNL     1      -8.653   1.924  65.999  1.00  0.00    -0.112 C  
ENDBRANCH  13  44
ENDBRANCH   4   6
TORSDOF 9
ENDMDL
MODEL        4
REMARK 921   NORMALIZED FREE ENERGY PREDICTED BY IDOCK:   -5.13 KCAL/MOL
REMARK 922        TOTAL FREE ENERGY PREDICTED BY IDOCK:   -8.95 KCAL/MOL
REMARK 923 INTER-LIGAND FREE ENERGY PREDICTED BY IDOCK:   -8.25 KCAL/MOL
REMARK 924 INTRA-LIGAND FREE ENERGY PREDICTED BY IDOCK:   -0.70 KCAL/MOL
REMARK 927      BINDING AFFINITY PREDICTED BY RF-SCORE:    0.00 PKD
ROOT
HETATM    1  C   UNL     1      -9.136   2.129  67.127  1.00  0.00    -0.114 C  
HETATM    2  N   UNL     1      -8.895   3.146  68.134  1.00  0.00    -0.109 N  
HETATM    3  H   UNL     1      -9.670   3.736  68.437  1.00  0.00     0.000 HD 
HETATM    4  C   UNL     1      -7.644   3.338  68.696  1.00  0.00    -0.052 C  
HETATM    5  O   UNL     1      -6.687   2.633  68.442  1.00  0.00    -0.038 OA 
ENDROOT
BRANCH   4   6
HETATM    6  C   UNL     1      -7.522   4.486  69.665  1.00  0.00    -0.051 A  
HETATM    7  C   UNL     1      -7.029   5.746  69.257  1.00  0.00    -0.064 A  
HETATM    8  I   UNL     1      -6.368   6.015  67.218  1.00  0.00    -0.041 I  
HETATM    9  C   UNL     1      -7.036   6.834  70.174  1.00  0.00    -0.071 A  
HETATM   10  I   UNL     1      -7.558   2.276  71.805  1.00  0.00    -0.041 I  
HETATM   11  C   UNL     1      -7.783   6.676  71.386  1.00  0.00    -0.094 A  
HETATM   12  I   UNL     1      -8.972   8.457  71.880  1.00  0.00    -0.282 I  
HETATM   13  C   UNL     1      -8.178   5.400  71.902  1.00  0.00    -0.119 A  
HETATM   14  C   UNL     1      -7.912   4.306  71.017  1.00  0.00    -0.071 A  
BRANCH   9  15
HETATM   15  C   UNL     1      -6.288   8.123  69.873  1.00  0.00    -0.032 C  
HETATM   16  N   UNL     1      -6.796   8.963  68.898  1.00  0.00    -0.060 N  
HETATM   17  O   UNL     1      -5.279   8.462  70.472  1.00  0.00    -0.022 OA 
HETATM   18  H   UNL     1      -7.550   8.644  68.289  1.00  0.00     0.000 HD 
BRANCH  16  19
HETATM   19  C   UNL     1      -6.244  10.314  68.743  1.00  0.00    -0.047 C  
BRANCH  19  20
HETATM   20  C   UNL     1      -6.926  11.153  67.639  1.00  0.00    -0.084 C  
HETATM   21  N   UNL     1      -8.112  11.754  68.045  1.00  0.00    -0.136 N  
HETATM   22  O   UNL     1      -6.402  11.325  66.541  1.00  0.00    -0.129 OA 
HETATM   23  H   UNL     1      -8.468  11.564  68.982  1.00  0.00     0.000 HD 
BRANCH  21  24
HETATM   24  C   UNL     1      -8.849  12.632  67.185  1.00  0.00    -0.204 A  
HETATM   25  C   UNL     1      -9.735  12.074  66.236  1.00  0.00    -0.235 A  
HETATM   26  C   UNL     1     -10.500  12.900  65.380  1.00  0.00    -0.308 A  
HETATM   27  I   UNL     1     -10.014   9.944  66.207  1.00  0.00    -0.268 I  
HETATM   28  C   UNL     1     -11.281  12.248  64.279  1.00  0.00    -0.350 C  
HETATM   29  C   UNL     1     -10.424  14.306  65.511  1.00  0.00    -0.346 A  
HETATM   30  I   UNL     1     -11.784  15.536  64.349  1.00  0.00     0.300 I  
HETATM   31  O   UNL     1     -10.757  11.497  63.481  1.00  0.00    -0.381 OA 
HETATM   32  O   UNL     1     -12.605  12.483  64.310  1.00  0.00    -0.582 OA 
HETATM   33  C   UNL     1      -9.498  14.901  66.415  1.00  0.00    -0.327 A  
HETATM   34  I   UNL     1      -6.877  14.822  68.139  1.00  0.00    -0.192 I  
HETATM   35  C   UNL     1      -8.677  14.042  67.207  1.00  0.00    -0.218 A  
BRANCH  33  36
HETATM   36  C   UNL     1      -9.336  16.390  66.445  1.00  0.00    -0.292 C  
HETATM   37  O   UNL     1      -8.519  16.939  65.711  1.00  0.00    -0.492 OA 
HETATM   38  N   UNL     1     -10.133  17.117  67.311  1.00  0.00    -0.286 N  
HETATM   39  H   UNL     1     -10.840  16.635  67.867  1.00  0.00     0.000 HD 
BRANCH  38  40
HETATM   40  C   UNL     1      -9.977  18.565  67.442  1.00  0.00    -0.330 C  
BRANCH  40  41
HETATM   41  C   UNL     1     -10.401  19.294  66.169  1.00  0.00    -0.494 C  
HETATM   42  O   UNL     1      -9.501  20.370  65.902  1.00  0.00    -0.641 OA 
HETATM   43  H   UNL     1      -9.765  20.823  65.110  1.00  0.00     0.000 HD 
ENDBRANCH  40  41
ENDBRANCH  38  40
ENDBRANCH  33  36
ENDBRANCH  21  24
ENDBRANCH  19  20
ENDBRANCH  16  19
ENDBRANCH   9  15
BRANCH  13  44
HETATM   44  N   UNL     1      -8.908   5.201  73.159  1.00  0.00    -0.116 N  
HETATM   45  C   UNL     1     -10.285   5.034  73.388  1.00  0.00    -0.183 C  
HETATM   46  O   UNL     1     -10.706   4.768  74.527  1.00  0.00    -0.355 OA 
HETATM   47  C   UNL     1      -8.145   5.159  74.416  1.00  0.00    -0.102 C  
HETATM   48  C   UNL     1     -11.318   5.223  72.332  1.00  0.00    -0.190 C  
ENDBRANCH  13  44
ENDBRANCH   4   6
TORSDOF 9
ENDMDL
MODEL        5
REMARK 921   NORMALIZED FREE ENERGY PREDICTED BY IDOCK:   -5.10 KCAL/MOL
REMARK 922        TOTAL FREE ENERGY PREDICTED BY IDOCK:   -8.91 KCAL/MOL
REMARK 923 INTER-LIGAND FREE ENERGY PREDICTED BY IDOCK:   -8.96 KCAL/MOL
REMARK 924 INTRA-LIGAND FREE ENERGY PREDICTED BY IDOCK:    0.06 KCAL/MOL
REMARK 927      BINDING AFFINITY PREDICTED BY RF-SCORE:    0.00 PKD
ROOT
HETATM    1  C   UNL     1      -8.582  19.056  68.180  1.00  0.00    -0.320 C  
HETATM    2  N   UNL     1      -8.545  17.679  67.722  1.00  0.00    -0.225 N  
HETATM    3  H   UNL     1      -7.782  17.381  67.113  1.00  0.00     0.000 HD 
HETATM    4  C   UNL     1      -9.513  16.760  68.087  1.00  0.00    -0.234 C  
HETATM    5  O   UNL     1     -10.413  17.017  68.863  1.00  0.00    -0.317 OA 
ENDROOT
BRANCH   4   6
HETATM    6  C   UNL     1      -9.395  15.391  67.467  1.00  0.00    -0.204 A  
HETATM    7  C   UNL     1      -8.429  14.462  67.911  1.00  0.00    -0.165 A  
HETATM    8  I   UNL     1      -7.043  15.036  69.467  1.00  0.00    -0.112 I  
HETATM    9  C   UNL     1      -8.424  13.142  67.378  1.00  0.00    -0.201 A  
HETATM   10  I   UNL     1     -10.858  16.684  65.088  1.00  0.00     0.375 I  
HETATM   11  C   UNL     1      -9.559  12.735  66.607  1.00  0.00    -0.255 A  
HETATM   12  I   UNL     1     -10.239  10.707  67.115  1.00  0.00    -0.306 I  
HETATM   13  C   UNL     1     -10.482  13.660  66.021  1.00  0.00    -0.300 A  
HETATM   14  C   UNL     1     -10.271  15.021  66.414  1.00  0.00    -0.277 A  
BRANCH   9  15
HETATM   15  C   UNL     1      -7.261  12.195  67.628  1.00  0.00    -0.123 C  
HETATM   16  N   UNL     1      -7.068  11.720  68.912  1.00  0.00    -0.111 N  
HETATM   17  O   UNL     1      -6.511  11.816  66.742  1.00  0.00    -0.137 OA 
HETATM   18  H   UNL     1      -7.586  12.124  69.692  1.00  0.00     0.000 HD 
BRANCH  16  19
HETATM   19  C   UNL     1      -6.113  10.631  69.148  1.00  0.00    -0.042 C  
BRANCH  19  20
HETATM   20  C   UNL     1      -6.665   9.482  70.022  1.00  0.00    -0.070 C  
HETATM   21  N   UNL     1      -7.640   8.718  69.391  1.00  0.00    -0.086 N  
HETATM   22  O   UNL     1      -6.206   9.239  71.135  1.00  0.00    -0.064 OA 
HETATM   23  H   UNL     1      -7.954   8.987  68.458  1.00  0.00     0.000 HD 
BRANCH  21  24
HETATM   24  C   UNL     1      -8.216   7.563  70.013  1.00  0.00    -0.130 A  
HETATM   25  C   UNL     1      -7.599   6.305  69.823  1.00  0.00    -0.086 A  
HETATM   26  C   UNL     1      -8.119   5.141  70.435  1.00  0.00    -0.090 A  
HETATM   27  I   UNL     1      -5.769   6.209  68.703  1.00  0.00    -0.014 I  
HETATM   28  C   UNL     1      -7.529   3.817  70.050  1.00  0.00    -0.045 C  
HETATM   29  C   UNL     1      -9.236   5.239  71.296  1.00  0.00    -0.146 A  
HETATM   30  I   UNL     1      -9.858   3.477  72.402  1.00  0.00    -0.219 I  
HETATM   31  O   UNL     1      -7.451   3.464  68.891  1.00  0.00    -0.049 OA 
HETATM   32  O   UNL     1      -7.013   3.110  71.072  1.00  0.00    -0.032 OA 
HETATM   33  C   UNL     1      -9.916   6.479  71.462  1.00  0.00    -0.193 A  
HETATM   34  I   UNL     1     -10.697   9.357  70.485  1.00  0.00    -0.416 I  
HETATM   35  C   UNL     1      -9.420   7.623  70.764  1.00  0.00    -0.162 A  
BRANCH  33  36
HETATM   36  C   UNL     1     -11.176   6.537  72.271  1.00  0.00    -0.273 C  
HETATM   37  O   UNL     1     -11.131   6.458  73.494  1.00  0.00    -0.156 OA 
HETATM   38  N   UNL     1     -12.376   6.688  71.599  1.00  0.00    -0.355 N  
HETATM   39  H   UNL     1     -12.374   6.806  70.586  1.00  0.00     0.000 HD 
BRANCH  38  40
HETATM   40  C   UNL     1     -13.648   6.681  72.321  1.00  0.00     0.303 C  
BRANCH  40  41
HETATM   41  C   UNL     1     -14.388   8.009  72.170  1.00  0.00    -0.338 C  
HETATM   42  O   UNL     1     -14.133   8.838  73.304  1.00  0.00    -1.180 OA 
HETATM   43  H   UNL     1     -14.593   9.663  73.210  1.00  0.00     0.000 HD 
ENDBRANCH  40  41
ENDBRANCH  38  40
ENDBRANCH  33  36
ENDBRANCH  21  24
ENDBRANCH  19  20
ENDBRANCH  16  19
ENDBRANCH   9  15
BRANCH  13  44
HETATM   44  N   UNL     1     -11.632  13.277  65.194  1.00  0.00    -0.301 N  
HETATM   45  C   UNL     1     -11.690  12.470  64.045  1.00  0.00    -0.423 C  
HETATM   46  O   UNL     1     -12.787  12.171  63.541  1.00  0.00    -0.768 OA 
HETATM   47  C   UNL     1     -12.964  13.779  65.566  1.00  0.00    -0.315 C  
HETATM   48  C   UNL     1     -10.480  11.982  63.326  1.00  0.00    -0.403 C  
ENDBRANCH  13  44
ENDBRANCH   4   6
TORSDOF 9
ENDMDL
MODEL        6
REMARK 921   NORMALIZED FREE ENERGY PREDICTED BY IDOCK:   -5.04 KCAL/MOL
REMARK 922        TOTAL FREE ENERGY PREDICTED BY IDOCK:   -8.80 KCAL/MOL
REMARK 923 INTER-LIGAND FREE ENERGY PREDICTED BY IDOCK:   -7.69 KCAL/MOL
REMARK 924 INTRA-LIGAND FREE ENERGY PREDICTED BY IDOCK:   -1.11 KCAL/MOL
REMARK 927      BINDING AFFINITY PREDICTED BY RF-SCORE:    0.00 PKD
ROOT
HETATM    1  C   UNL     1      -8.773  18.660  68.189  1.00  0.00    -0.311 C  
HETATM    2  N   UNL     1      -8.600  17.315  67.672  1.00  0.00    -0.215 N  
HETATM    3  H   UNL     1      -7.835  17.128  67.022  1.00  0.00     0.000 HD 
HETATM    4  C   UNL     1      -9.442  16.277  68.034  1.00  0.00    -0.223 C  
HETATM    5  O   UNL     1     -10.330  16.400  68.855  1.00  0.00    -0.236 OA 
ENDROOT
BRANCH   4   6
HETATM    6  C   UNL     1      -9.196  14.956  67.354  1.00  0.00    -0.198 A  
HETATM    7  C   UNL     1      -8.127  14.116  67.737  1.00  0.00    -0.166 A  
HETATM    8  I   UNL     1      -6.770  14.770  69.287  1.00  0.00    -0.169 I  
HETATM    9  C   UNL     1      -7.997  12.828  67.148  1.00  0.00    -0.112 A  
HETATM   10  I   UNL     1     -10.847  16.182  65.064  1.00  0.00     0.139 I  
HETATM   11  C   UNL     1      -9.102  12.334  66.383  1.00  0.00    -0.158 A  
HETATM   12  I   UNL     1      -9.552  10.226  66.817  1.00  0.00    -0.247 I  
HETATM   13  C   UNL     1     -10.131  13.180  65.857  1.00  0.00    -0.290 A  
HETATM   14  C   UNL     1     -10.055  14.537  66.304  1.00  0.00    -0.295 A  
BRANCH   9  15
HETATM   15  C   UNL     1      -6.735  12.000  67.332  1.00  0.00    -0.131 C  
HETATM   16  N   UNL     1      -6.571  11.310  68.520  1.00  0.00    -0.058 N  
HETATM   17  O   UNL     1      -5.877  11.895  66.468  1.00  0.00    -0.234 OA 
HETATM   18  H   UNL     1      -7.196  11.489  69.305  1.00  0.00     0.000 HD 
BRANCH  16  19
HETATM   19  C   UNL     1      -5.494  10.321  68.644  1.00  0.00    -0.038 C  
BRANCH  19  20
HETATM   20  C   UNL     1      -5.964   8.930  69.126  1.00  0.00    -0.042 C  
HETATM   21  N   UNL     1      -7.088   8.457  68.459  1.00  0.00    -0.075 N  
HETATM   22  O   UNL     1      -5.333   8.290  69.964  1.00  0.00    -0.023 OA 
HETATM   23  H   UNL     1      -7.542   9.054  67.768  1.00  0.00     0.000 HD 
BRANCH  21  24
HETATM   24  C   UNL     1      -7.626   7.154  68.715  1.00  0.00    -0.108 A  
HETATM   25  C   UNL     1      -7.406   6.126  67.770  1.00  0.00    -0.084 A  
HETATM   26  C   UNL     1      -7.898   4.819  67.989  1.00  0.00    -0.082 A  
HETATM   27  I   UNL     1      -6.182   6.543  66.054  1.00  0.00    -0.040 I  
HETATM   28  C   UNL     1      -7.788   3.825  66.872  1.00  0.00    -0.084 C  
HETATM   29  C   UNL     1      -8.572   4.515  69.195  1.00  0.00    -0.083 A  
HETATM   30  I   UNL     1      -9.103   2.450  69.602  1.00  0.00    -0.149 I  
HETATM   31  O   UNL     1      -8.219   4.060  65.761  1.00  0.00    -0.104 OA 
HETATM   32  O   UNL     1      -7.096   2.711  67.172  1.00  0.00    -0.051 OA 
HETATM   33  C   UNL     1      -8.862   5.540  70.140  1.00  0.00    -0.147 A  
HETATM   34  I   UNL     1      -9.316   8.550  70.904  1.00  0.00    -0.290 I  
HETATM   35  C   UNL     1      -8.427   6.870  69.853  1.00  0.00    -0.140 A  
BRANCH  33  36
HETATM   36  C   UNL     1      -9.693   5.228  71.348  1.00  0.00    -0.164 C  
HETATM   37  O   UNL     1     -10.909   5.101  71.247  1.00  0.00    -0.134 OA 
HETATM   38  N   UNL     1      -9.048   5.083  72.563  1.00  0.00    -0.132 N  
HETATM   39  H   UNL     1      -8.030   5.140  72.602  1.00  0.00     0.000 HD 
BRANCH  38  40
HETATM   40  C   UNL     1      -9.805   4.849  73.793  1.00  0.00    -0.152 C  
BRANCH  40  41
HETATM   41  C   UNL     1     -10.068   6.150  74.547  1.00  0.00    -0.329 C  
HETATM   42  O   UNL     1     -10.976   6.966  73.807  1.00  0.00    -0.519 OA 
HETATM   43  H   UNL     1     -11.140   7.775  74.277  1.00  0.00     0.000 HD 
ENDBRANCH  40  41
ENDBRANCH  38  40
ENDBRANCH  33  36
ENDBRANCH  21  24
ENDBRANCH  19  20
ENDBRANCH  16  19
ENDBRANCH   9  15
BRANCH  13  44
HETATM   44  N   UNL     1     -11.255  12.711  65.038  1.00  0.00    -0.289 N  
HETATM   45  C   UNL     1     -11.256  12.017  63.816  1.00  0.00    -0.440 C  
HETATM   46  O   UNL     1     -12.323  11.608  63.324  1.00  0.00    -0.452 OA 
HETATM   47  C   UNL     1     -12.625  12.971  65.509  1.00  0.00    -0.362 C  
HETATM   48  C   UNL     1     -10.027  11.786  63.007  1.00  0.00    -0.272 C  
ENDBRANCH  13  44
ENDBRANCH   4   6
TORSDOF 9
ENDMDL
MODEL        7
REMARK 921   NORMALIZED FREE ENERGY PREDICTED BY IDOCK:   -4.94 KCAL/MOL
REMARK 922        TOTAL FREE ENERGY PREDICTED BY IDOCK:   -8.65 KCAL/MOL
REMARK 923 INTER-LIGAND FREE ENERGY PREDICTED BY IDOCK:   -7.94 KCAL/MOL
REMARK 924 INTRA-LIGAND FREE ENERGY PREDICTED BY IDOCK:   -0.71 KCAL/MOL
REMARK 927      BINDING AFFINITY PREDICTED BY RF-SCORE:    0.00 PKD
ROOT
HETATM    1  C   UNL     1      -8.223  18.881  68.252  1.00  0.00    -0.329 C  
HETATM    2  N   UNL     1      -8.307  17.483  67.869  1.00  0.00    -0.224 N  
HETATM    3  H   UNL     1      -7.543  17.070  67.333  1.00  0.00     0.000 HD 
HETATM    4  C   UNL     1      -9.392  16.694  68.211  1.00  0.00    -0.224 C  
HETATM    5  O   UNL     1     -10.307  17.091  68.906  1.00  0.00    -0.300 OA 
ENDROOT
BRANCH   4   6
HETATM    6  C   UNL     1      -9.384  15.287  67.673  1.00  0.00    -0.199 A  
HETATM    7  C   UNL     1      -8.543  14.293  68.221  1.00  0.00    -0.176 A  
HETATM    8  I   UNL     1      -7.187  14.817  69.820  1.00  0.00     0.233 I  
HETATM    9  C   UNL     1      -8.647  12.950  67.760  1.00  0.00    -0.185 A  
HETATM   10  I   UNL     1     -10.582  16.577  65.149  1.00  0.00     0.371 I  
HETATM   11  C   UNL     1      -9.777  12.614  66.948  1.00  0.00    -0.234 A  
HETATM   12  I   UNL     1     -10.687  10.698  67.525  1.00  0.00    -0.350 I  
HETATM   13  C   UNL     1     -10.568  13.591  66.262  1.00  0.00    -0.288 A  
HETATM   14  C   UNL     1     -10.238  14.944  66.594  1.00  0.00    -0.261 A  
BRANCH   9  15
HETATM   15  C   UNL     1      -7.602  11.908  68.126  1.00  0.00    -0.121 C  
HETATM   16  N   UNL     1      -7.657  11.340  69.386  1.00  0.00    -0.349 N  
HETATM   17  O   UNL     1      -6.738  11.532  67.349  1.00  0.00    -0.082 OA 
HETATM   18  H   UNL     1      -8.274  11.730  70.098  1.00  0.00     0.000 HD 
BRANCH  16  19
HETATM   19  C   UNL     1      -6.823  10.172  69.693  1.00  0.00    -0.087 C  
BRANCH  19  20
HETATM   20  C   UNL     1      -7.511   8.814  69.424  1.00  0.00    -0.080 C  
HETATM   21  N   UNL     1      -6.630   7.739  69.385  1.00  0.00    -0.039 N  
HETATM   22  O   UNL     1      -8.732   8.713  69.341  1.00  0.00    -0.135 OA 
HETATM   23  H   UNL     1      -5.629   7.915  69.474  1.00  0.00     0.000 HD 
BRANCH  21  24
HETATM   24  C   UNL     1      -7.089   6.391  69.222  1.00  0.00    -0.080 A  
HETATM   25  C   UNL     1      -7.334   5.610  70.375  1.00  0.00    -0.079 A  
HETATM   26  C   UNL     1      -7.808   4.282  70.266  1.00  0.00    -0.052 A  
HETATM   27  I   UNL     1      -7.112   6.519  72.309  1.00  0.00    -0.078 I  
HETATM   28  C   UNL     1      -7.875   3.450  71.512  1.00  0.00    -0.057 C  
HETATM   29  C   UNL     1      -8.098   3.743  68.991  1.00  0.00    -0.057 A  
HETATM   30  I   UNL     1      -9.046   1.793  68.874  1.00  0.00    -0.197 I  
HETATM   31  O   UNL     1      -6.911   3.301  72.234  1.00  0.00    -0.025 OA 
HETATM   32  O   UNL     1      -9.098   2.973  71.808  1.00  0.00    -0.089 OA 
HETATM   33  C   UNL     1      -7.806   4.481  67.809  1.00  0.00    -0.085 A  
HETATM   34  I   UNL     1      -6.243   6.719  66.261  1.00  0.00    -0.048 I  
HETATM   35  C   UNL     1      -7.247   5.789  67.946  1.00  0.00    -0.072 A  
BRANCH  33  36
HETATM   36  C   UNL     1      -7.994   3.844  66.465  1.00  0.00    -0.097 C  
HETATM   37  O   UNL     1      -7.082   3.204  65.951  1.00  0.00    -0.062 OA 
HETATM   38  N   UNL     1      -9.217   3.994  65.837  1.00  0.00    -0.143 N  
HETATM   39  H   UNL     1      -9.972   4.484  66.317  1.00  0.00     0.000 HD 
BRANCH  38  40
HETATM   40  C   UNL     1      -9.444   3.459  64.495  1.00  0.00    -0.149 C  
BRANCH  40  41
HETATM   41  C   UNL     1     -10.861   3.751  64.005  1.00  0.00    -0.176 C  
HETATM   42  O   UNL     1     -11.575   4.490  64.996  1.00  0.00    -1.101 OA 
HETATM   43  H   UNL     1     -12.456   4.672  64.691  1.00  0.00     0.000 HD 
ENDBRANCH  40  41
ENDBRANCH  38  40
ENDBRANCH  33  36
ENDBRANCH  21  24
ENDBRANCH  19  20
ENDBRANCH  16  19
ENDBRANCH   9  15
BRANCH  13  44
HETATM   44  N   UNL     1     -11.708  13.277  65.393  1.00  0.00    -0.329 N  
HETATM   45  C   UNL     1     -11.765  12.498  64.224  1.00  0.00    -0.382 C  
HETATM   46  O   UNL     1     -12.858  12.259  63.681  1.00  0.00    -0.753 OA 
HETATM   47  C   UNL     1     -13.027  13.828  65.737  1.00  0.00    -0.256 C  
HETATM   48  C   UNL     1     -10.556  11.974  63.531  1.00  0.00    -0.514 C  
ENDBRANCH  13  44
ENDBRANCH   4   6
TORSDOF 9
ENDMDL
MODEL        8
REMARK 921   NORMALIZED FREE ENERGY PREDICTED BY IDOCK:   -4.81 KCAL/MOL
REMARK 922        TOTAL FREE ENERGY PREDICTED BY IDOCK:   -8.46 KCAL/MOL
REMARK 923 INTER-LIGAND FREE ENERGY PREDICTED BY IDOCK:   -7.54 KCAL/MOL
REMARK 924 INTRA-LIGAND FREE ENERGY PREDICTED BY IDOCK:   -0.92 KCAL/MOL
REMARK 927      BINDING AFFINITY PREDICTED BY RF-SCORE:    0.00 PKD
ROOT
HETATM    1  C   UNL     1     -10.951   3.223  73.588  1.00  0.00    -0.237 C  
HETATM    2  N   UNL     1     -10.624   3.722  72.266  1.00  0.00    -0.009 N  
HETATM    3  H   UNL     1     -11.237   3.491  71.483  1.00  0.00     0.000 HD 
HETATM    4  C   UNL     1      -9.504   4.502  72.034  1.00  0.00    -0.143 C  
HETATM    5  O   UNL     1      -8.764   4.879  72.921  1.00  0.00    -0.117 OA 
ENDROOT
BRANCH   4   6
HETATM    6  C   UNL     1      -9.242   4.876  70.598  1.00  0.00    -0.189 A  
HETATM    7  C   UNL     1      -9.881   5.983  69.996  1.00  0.00    -0.172 A  
HETATM    8  I   UNL     1     -11.318   7.125  71.136  1.00  0.00    -0.368 I  
HETATM    9  C   UNL     1      -9.522   6.370  68.675  1.00  0.00    -0.122 A  
HETATM   10  I   UNL     1      -8.301   1.958  70.335  1.00  0.00    -0.095 I  
HETATM   11  C   UNL     1      -8.345   5.783  68.108  1.00  0.00    -0.107 A  
HETATM   12  I   UNL     1      -7.089   7.254  67.064  1.00  0.00    -0.093 I  
HETATM   13  C   UNL     1      -7.752   4.579  68.608  1.00  0.00    -0.071 A  
HETATM   14  C   UNL     1      -8.334   4.105  69.827  1.00  0.00    -0.061 A  
BRANCH   9  15
HETATM   15  C   UNL     1     -10.351   7.379  67.896  1.00  0.00    -0.204 C  
HETATM   16  N   UNL     1     -10.304   8.705  68.286  1.00  0.00    -0.220 N  
HETATM   17  O   UNL     1     -11.031   7.075  66.927  1.00  0.00    -0.371 OA 
HETATM   18  H   UNL     1      -9.861   8.965  69.167  1.00  0.00     0.000 HD 
BRANCH  16  19
HETATM   19  C   UNL     1     -10.895   9.737  67.425  1.00  0.00    -0.197 C  
BRANCH  19  20
HETATM   20  C   UNL     1     -10.463  11.179  67.776  1.00  0.00    -0.193 C  
HETATM   21  N   UNL     1     -11.432  12.136  67.501  1.00  0.00    -0.321 N  
HETATM   22  O   UNL     1      -9.389  11.416  68.323  1.00  0.00    -0.174 OA 
HETATM   23  H   UNL     1     -12.302  11.846  67.054  1.00  0.00     0.000 HD 
BRANCH  21  24
HETATM   24  C   UNL     1     -11.244  13.519  67.828  1.00  0.00    -0.282 A  
HETATM   25  C   UNL     1     -11.726  13.999  69.067  1.00  0.00    -0.330 A  
HETATM   26  C   UNL     1     -11.545  15.350  69.443  1.00  0.00    -0.354 A  
HETATM   27  I   UNL     1     -12.616  12.608  70.441  1.00  0.00     0.208 I  
HETATM   28  C   UNL     1     -12.234  15.838  70.682  1.00  0.00    -0.384 C  
HETATM   29  C   UNL     1     -10.821  16.223  68.598  1.00  0.00    -0.322 A  
HETATM   30  I   UNL     1     -10.358  18.220  69.312  1.00  0.00     0.982 I  
HETATM   31  O   UNL     1     -13.430  15.703  70.844  1.00  0.00    -0.569 OA 
HETATM   32  O   UNL     1     -11.415  16.339  71.624  1.00  0.00    -0.401 OA 
HETATM   33  C   UNL     1     -10.375  15.787  67.318  1.00  0.00    -0.290 A  
HETATM   34  I   UNL     1     -10.543  13.879  64.832  1.00  0.00    -0.338 I  
HETATM   35  C   UNL     1     -10.647  14.440  66.927  1.00  0.00    -0.278 A  
BRANCH  33  36
HETATM   36  C   UNL     1      -9.729  16.762  66.381  1.00  0.00    -0.290 C  
HETATM   37  O   UNL     1     -10.396  17.331  65.522  1.00  0.00    -0.614 OA 
HETATM   38  N   UNL     1      -8.373  17.001  66.520  1.00  0.00    -0.253 N  
HETATM   39  H   UNL     1      -7.859  16.553  67.279  1.00  0.00     0.000 HD 
BRANCH  38  40
HETATM   40  C   UNL     1      -7.666  17.885  65.595  1.00  0.00     0.231 C  
BRANCH  40  41
HETATM   41  C   UNL     1      -7.656  19.329  66.093  1.00  0.00    -0.287 C  
HETATM   42  O   UNL     1      -8.443  20.147  65.229  1.00  0.00    -0.328 OA 
HETATM   43  H   UNL     1      -8.437  21.045  65.539  1.00  0.00     0.000 HD 
ENDBRANCH  40  41
ENDBRANCH  38  40
ENDBRANCH  33  36
ENDBRANCH  21  24
ENDBRANCH  19  20
ENDBRANCH  16  19
ENDBRANCH   9  15
BRANCH  13  44
HETATM   44  N   UNL     1      -6.570   3.932  68.028  1.00  0.00    -0.041 N  
HETATM   45  C   UNL     1      -6.454   3.116  66.889  1.00  0.00    -0.036 C  
HETATM   46  O   UNL     1      -5.335   2.745  66.492  1.00  0.00    -0.014 OA 
HETATM   47  C   UNL     1      -5.268   4.123  68.687  1.00  0.00    -0.011 C  
HETATM   48  C   UNL     1      -7.627   2.594  66.135  1.00  0.00    -0.076 C  
ENDBRANCH  13  44
ENDBRANCH   4   6
TORSDOF 9
ENDMDL
MODEL        9
REMARK 921   NORMALIZED FREE ENERGY PREDICTED BY IDOCK:   -4.79 KCAL/MOL
REMARK 922        TOTAL FREE ENERGY PREDICTED BY IDOCK:   -8.42 KCAL/MOL
REMARK 923 INTER-LIGAND FREE ENERGY PREDICTED BY IDOCK:   -7.54 KCAL/MOL
REMARK 924 INTRA-LIGAND FREE ENERGY PREDICTED BY IDOCK:   -0.88 KCAL/MOL
REMARK 927      BINDING AFFINITY PREDICTED BY RF-SCORE:    0.00 PKD
ROOT
HETATM    1  C   UNL     1     -10.292   5.933  74.504  1.00  0.00    -0.220 C  
HETATM    2  N   UNL     1      -9.848   5.951  73.122  1.00  0.00    -0.166 N  
HETATM    3  H   UNL     1      -9.236   6.704  72.808  1.00  0.00     0.000 HD 
HETATM    4  C   UNL     1     -10.231   4.975  72.218  1.00  0.00    -0.201 C  
HETATM    5  O   UNL     1     -10.899   4.008  72.529  1.00  0.00    -0.074 OA 
ENDROOT
BRANCH   4   6
HETATM    6  C   UNL     1      -9.766   5.167  70.798  1.00  0.00    -0.255 A  
HETATM    7  C   UNL     1     -10.334   6.155  69.963  1.00  0.00    -0.209 A  
HETATM    8  I   UNL     1     -11.954   7.372  70.714  1.00  0.00    -0.086 I  
HETATM    9  C   UNL     1      -9.790   6.381  68.668  1.00  0.00    -0.152 A  
HETATM   10  I   UNL     1      -8.724   2.286  71.078  1.00  0.00    -0.149 I  
HETATM   11  C   UNL     1      -8.527   5.777  68.365  1.00  0.00    -0.110 A  
HETATM   12  I   UNL     1      -7.165   7.153  67.323  1.00  0.00    -0.090 I  
HETATM   13  C   UNL     1      -7.986   4.678  69.107  1.00  0.00    -0.070 A  
HETATM   14  C   UNL     1      -8.733   4.343  70.281  1.00  0.00    -0.081 A  
BRANCH   9  15
HETATM   15  C   UNL     1     -10.517   7.240  67.646  1.00  0.00    -0.242 C  
HETATM   16  N   UNL     1     -10.273   8.601  67.643  1.00  0.00    -0.223 N  
HETATM   17  O   UNL     1     -11.280   6.778  66.812  1.00  0.00    -0.312 OA 
HETATM   18  H   UNL     1      -9.754   9.030  68.409  1.00  0.00     0.000 HD 
BRANCH  16  19
HETATM   19  C   UNL     1     -10.766   9.425  66.533  1.00  0.00     0.058 C  
BRANCH  19  20
HETATM   20  C   UNL     1     -10.085  10.808  66.420  1.00  0.00    -0.227 C  
HETATM   21  N   UNL     1     -10.093  11.534  67.606  1.00  0.00    -0.182 N  
HETATM   22  O   UNL     1      -9.524  11.170  65.389  1.00  0.00    -0.210 OA 
HETATM   23  H   UNL     1     -10.575  11.150  68.419  1.00  0.00     0.000 HD 
BRANCH  21  24
HETATM   24  C   UNL     1      -9.443  12.807  67.718  1.00  0.00    -0.205 A  
HETATM   25  C   UNL     1      -8.208  12.885  68.401  1.00  0.00    -0.121 A  
HETATM   26  C   UNL     1      -7.519  14.114  68.519  1.00  0.00    -0.123 A  
HETATM   27  I   UNL     1      -7.317  11.075  69.139  1.00  0.00    -0.032 I  
HETATM   28  C   UNL     1      -6.311  14.165  69.406  1.00  0.00    -0.114 C  
HETATM   29  C   UNL     1      -8.039  15.272  67.897  1.00  0.00    -0.138 A  
HETATM   30  I   UNL     1      -6.839  17.082  67.895  1.00  0.00    -0.190 I  
HETATM   31  O   UNL     1      -6.352  13.802  70.564  1.00  0.00    -0.099 OA 
HETATM   32  O   UNL     1      -5.176  14.547  68.794  1.00  0.00    -0.084 OA 
HETATM   33  C   UNL     1      -9.308  15.241  67.252  1.00  0.00    -0.212 A  
HETATM   34  I   UNL     1     -12.155  13.997  66.810  1.00  0.00    -0.237 I  
HETATM   35  C   UNL     1     -10.023  14.005  67.222  1.00  0.00    -0.242 A  
BRANCH  33  36
HETATM   36  C   UNL     1      -9.905  16.507  66.716  1.00  0.00    -0.266 C  
HETATM   37  O   UNL     1      -9.906  16.728  65.509  1.00  0.00    -0.564 OA 
HETATM   38  N   UNL     1     -10.454  17.402  67.617  1.00  0.00    -0.361 N  
HETATM   39  H   UNL     1     -10.486  17.162  68.608  1.00  0.00     0.000 HD 
BRANCH  38  40
HETATM   40  C   UNL     1     -10.988  18.688  67.169  1.00  0.00    -0.125 C  
BRANCH  40  41
HETATM   41  C   UNL     1      -9.956  19.805  67.308  1.00  0.00    -0.400 C  
HETATM   42  O   UNL     1      -9.654  20.349  66.024  1.00  0.00    -0.653 OA 
HETATM   43  H   UNL     1      -9.012  21.044  66.110  1.00  0.00     0.000 HD 
ENDBRANCH  40  41
ENDBRANCH  38  40
ENDBRANCH  33  36
ENDBRANCH  21  24
ENDBRANCH  19  20
ENDBRANCH  16  19
ENDBRANCH   9  15
BRANCH  13  44
HETATM   44  N   UNL     1      -6.715   4.013  68.799  1.00  0.00    -0.045 N  
HETATM   45  C   UNL     1      -6.399   3.089  67.788  1.00  0.00    -0.033 C  
HETATM   46  O   UNL     1      -5.224   2.716  67.621  1.00  0.00    -0.011 OA 
HETATM   47  C   UNL     1      -5.544   4.312  69.638  1.00  0.00    -0.016 C  
HETATM   48  C   UNL     1      -7.422   2.455  66.911  1.00  0.00    -0.065 C  
ENDBRANCH  13  44
ENDBRANCH   4   6
TORSDOF 9
ENDMDL
MODEL       10
REMARK 921   NORMALIZED FREE ENERGY PREDICTED BY IDOCK:   -4.50 KCAL/MOL
REMARK 922        TOTAL FREE ENERGY PREDICTED BY IDOCK:   -7.98 KCAL/MOL
REMARK 923 INTER-LIGAND FREE ENERGY PREDICTED BY IDOCK:   -6.95 KCAL/MOL
REMARK 924 INTRA-LIGAND FREE ENERGY PREDICTED BY IDOCK:   -1.03 KCAL/MOL
REMARK 927      BINDING AFFINITY PREDICTED BY RF-SCORE:    0.00 PKD
ROOT
HETATM    1  C   UNL     1      -9.098   1.623  67.490  1.00  0.00    -0.132 C  
HETATM    2  N   UNL     1      -9.066   2.953  68.070  1.00  0.00    -0.160 N  
HETATM    3  H   UNL     1      -9.712   3.662  67.721  1.00  0.00     0.000 HD 
HETATM    4  C   UNL     1      -8.185   3.289  69.085  1.00  0.00    -0.059 C  
HETATM    5  O   UNL     1      -7.435   2.485  69.604  1.00  0.00    -0.043 OA 
ENDROOT
BRANCH   4   6
HETATM    6  C   UNL     1      -8.204   4.728  69.530  1.00  0.00    -0.076 A  
HETATM    7  C   UNL     1      -7.327   5.684  68.972  1.00  0.00    -0.082 A  
HETATM    8  I   UNL     1      -5.877   5.058  67.498  1.00  0.00    -0.024 I  
HETATM    9  C   UNL     1      -7.454   7.054  69.338  1.00  0.00    -0.097 A  
HETATM   10  I   UNL     1      -9.563   3.604  72.052  1.00  0.00    -0.229 I  
HETATM   11  C   UNL     1      -8.631   7.442  70.055  1.00  0.00    -0.140 A  
HETATM   12  I   UNL     1      -9.495   9.317  69.300  1.00  0.00    -0.193 I  
HETATM   13  C   UNL     1      -9.467   6.512  70.752  1.00  0.00    -0.172 A  
HETATM   14  C   UNL     1      -9.123   5.140  70.530  1.00  0.00    -0.139 A  
BRANCH   9  15
HETATM   15  C   UNL     1      -6.384   8.070  68.971  1.00  0.00    -0.040 C  
HETATM   16  N   UNL     1      -6.308   8.496  67.658  1.00  0.00    -0.053 N  
HETATM   17  O   UNL     1      -5.611   8.546  69.789  1.00  0.00    -0.029 OA 
HETATM   18  H   UNL     1      -6.843   8.018  66.932  1.00  0.00     0.000 HD 
BRANCH  16  19
HETATM   19  C   UNL     1      -5.455   9.639  67.313  1.00  0.00    -0.036 C  
BRANCH  19  20
HETATM   20  C   UNL     1      -6.206  10.809  66.637  1.00  0.00    -0.092 C  
HETATM   21  N   UNL     1      -7.374  11.179  67.296  1.00  0.00    -0.111 N  
HETATM   22  O   UNL     1      -5.748  11.392  65.658  1.00  0.00    -0.132 OA 
HETATM   23  H   UNL     1      -7.674  10.643  68.110  1.00  0.00     0.000 HD 
BRANCH  21  24
HETATM   24  C   UNL     1      -8.166  12.292  66.863  1.00  0.00    -0.112 A  
HETATM   25  C   UNL     1      -9.150  12.084  65.869  1.00  0.00    -0.042 A  
HETATM   26  C   UNL     1      -9.971  13.146  65.426  1.00  0.00    -0.203 A  
HETATM   27  I   UNL     1      -9.480  10.090  65.140  1.00  0.00    -0.344 I  
HETATM   28  C   UNL     1     -10.866  12.904  64.247  1.00  0.00    -0.397 C  
HETATM   29  C   UNL     1      -9.851  14.423  66.022  1.00  0.00    -0.319 A  
HETATM   30  I   UNL     1     -11.284  15.964  65.487  1.00  0.00     0.234 I  
HETATM   31  O   UNL     1     -10.437  12.478  63.195  1.00  0.00    -0.252 OA 
HETATM   32  O   UNL     1     -12.176  13.101  64.483  1.00  0.00    -0.384 OA 
HETATM   33  C   UNL     1      -8.831  14.680  66.982  1.00  0.00    -0.262 A  
HETATM   34  I   UNL     1      -6.064  14.041  68.317  1.00  0.00    -0.161 I  
HETATM   35  C   UNL     1      -7.960  13.610  67.350  1.00  0.00    -0.166 A  
BRANCH  33  36
HETATM   36  C   UNL     1      -8.631  16.071  67.504  1.00  0.00    -0.178 C  
HETATM   37  O   UNL     1      -9.151  16.416  68.561  1.00  0.00    -0.206 OA 
HETATM   38  N   UNL     1      -7.844  16.938  66.767  1.00  0.00    -0.216 N  
HETATM   39  H   UNL     1      -7.382  16.602  65.922  1.00  0.00     0.000 HD 
BRANCH  38  40
HETATM   40  C   UNL     1      -7.666  18.329  67.182  1.00  0.00    -0.221 C  
BRANCH  40  41
HETATM   41  C   UNL     1      -6.477  18.486  68.127  1.00  0.00    -0.208 C  
HETATM   42  O   UNL     1      -5.258  18.448  67.384  1.00  0.00    -0.139 OA 
HETATM   43  H   UNL     1      -4.519  18.546  67.972  1.00  0.00     0.000 HD 
ENDBRANCH  40  41
ENDBRANCH  38  40
ENDBRANCH  33  36
ENDBRANCH  21  24
ENDBRANCH  19  20
ENDBRANCH  16  19
ENDBRANCH   9  15
BRANCH  13  44
HETATM   44  N   UNL     1     -10.657   6.882  71.527  1.00  0.00    -0.217 N  
HETATM   45  C   UNL     1     -10.760   7.473  72.798  1.00  0.00    -0.330 C  
HETATM   46  O   UNL     1     -11.869   7.812  73.246  1.00  0.00    -0.108 OA 
HETATM   47  C   UNL     1     -11.983   6.624  70.944  1.00  0.00    -0.355 C  
HETATM   48  C   UNL     1      -9.595   7.670  73.704  1.00  0.00    -0.333 C  
ENDBRANCH  13  44
ENDBRANCH   4   6
TORSDOF 9
ENDMDL
MODEL       11
REMARK 921   NORMALIZED FREE ENERGY PREDICTED BY IDOCK:   -4.46 KCAL/MOL
REMARK 922        TOTAL FREE ENERGY PREDICTED BY IDOCK:   -7.93 KCAL/MOL
REMARK 923 INTER-LIGAND FREE ENERGY PREDICTED BY IDOCK:   -7.35 KCAL/MOL
REMARK 924 INTRA-LIGAND FREE ENERGY PREDICTED BY IDOCK:   -0.57 KCAL/MOL
REMARK 927      BINDING AFFINITY PREDICTED BY RF-SCORE:    0.00 PKD
ROOT
HETATM    1  C   UNL     1      -6.507   5.753  71.399  1.00  0.00    -0.045 C  
HETATM    2  N   UNL     1      -7.069   6.700  70.455  1.00  0.00    -0.066 N  
HETATM    3  H   UNL     1      -6.559   7.559  70.251  1.00  0.00     0.000 HD 
HETATM    4  C   UNL     1      -8.279   6.471  69.821  1.00  0.00    -0.126 C  
HETATM    5  O   UNL     1      -8.914   5.443  69.955  1.00  0.00    -0.125 OA 
ENDROOT
BRANCH   4   6
HETATM    6  C   UNL     1      -8.782   7.579  68.933  1.00  0.00    -0.132 A  
HETATM    7  C   UNL     1      -9.610   8.608  69.434  1.00  0.00    -0.166 A  
HETATM    8  I   UNL     1     -10.228   8.556  71.504  1.00  0.00    -0.403 I  
HETATM    9  C   UNL     1      -9.970   9.696  68.590  1.00  0.00    -0.179 A  
HETATM   10  I   UNL     1      -8.185   5.600  66.653  1.00  0.00    -0.107 I  
HETATM   11  C   UNL     1      -9.266   9.835  67.351  1.00  0.00    -0.134 A  
HETATM   12  I   UNL     1      -8.686  11.915  66.940  1.00  0.00    -0.148 I  
HETATM   13  C   UNL     1      -8.532   8.766  66.743  1.00  0.00    -0.111 A  
HETATM   14  C   UNL     1      -8.418   7.597  67.562  1.00  0.00    -0.116 A  
BRANCH   9  15
HETATM   15  C   UNL     1     -11.054  10.682  68.994  1.00  0.00    -0.254 C  
HETATM   16  N   UNL     1     -10.801  11.537  70.051  1.00  0.00    -0.369 N  
HETATM   17  O   UNL     1     -12.123  10.771  68.410  1.00  0.00    -0.501 OA 
HETATM   18  H   UNL     1      -9.982  11.393  70.642  1.00  0.00     0.000 HD 
BRANCH  16  19
HETATM   19  C   UNL     1     -11.717  12.652  70.319  1.00  0.00    -0.111 C  
BRANCH  19  20
HETATM   20  C   UNL     1     -11.202  14.026  69.831  1.00  0.00    -0.071 C  
HETATM   21  N   UNL     1     -10.204  13.939  68.867  1.00  0.00    -0.384 N  
HETATM   22  O   UNL     1     -11.705  15.078  70.215  1.00  0.00    -0.258 OA 
HETATM   23  H   UNL     1      -9.853  13.019  68.599  1.00  0.00     0.000 HD 
BRANCH  21  24
HETATM   24  C   UNL     1      -9.656  15.104  68.239  1.00  0.00    -0.211 A  
HETATM   25  C   UNL     1     -10.309  15.640  67.105  1.00  0.00    -0.285 A  
HETATM   26  C   UNL     1      -9.818  16.801  66.465  1.00  0.00    -0.303 A  
HETATM   27  I   UNL     1     -12.149  14.745  66.451  1.00  0.00     0.336 I  
HETATM   28  C   UNL     1     -10.447  17.212  65.167  1.00  0.00     0.139 C  
HETATM   29  C   UNL     1      -8.692  17.473  66.995  1.00  0.00    -0.240 A  
HETATM   30  I   UNL     1      -8.111  19.378  66.131  1.00  0.00    -0.101 I  
HETATM   31  O   UNL     1     -10.542  16.445  64.231  1.00  0.00    -0.245 OA 
HETATM   32  O   UNL     1     -10.975  18.450  65.162  1.00  0.00    -0.604 OA 
HETATM   33  C   UNL     1      -7.977  16.927  68.099  1.00  0.00    -0.195 A  
HETATM   34  I   UNL     1      -7.123  14.521  69.924  1.00  0.00     0.352 I  
HETATM   35  C   UNL     1      -8.446  15.706  68.674  1.00  0.00    -0.179 A  
BRANCH  33  36
HETATM   36  C   UNL     1      -6.710  17.579  68.563  1.00  0.00    -0.202 C  
HETATM   37  O   UNL     1      -5.629  17.231  68.099  1.00  0.00    -0.119 OA 
HETATM   38  N   UNL     1      -6.802  18.578  69.516  1.00  0.00    -0.148 N  
HETATM   39  H   UNL     1      -7.720  18.881  69.840  1.00  0.00     0.000 HD 
BRANCH  38  40
HETATM   40  C   UNL     1      -5.600  19.206  70.065  1.00  0.00    -0.237 C  
BRANCH  40  41
HETATM   41  C   UNL     1      -5.675  19.329  71.585  1.00  0.00    -0.123 C  
HETATM   42  O   UNL     1      -6.326  20.548  71.943  1.00  0.00    -0.789 OA 
HETATM   43  H   UNL     1      -6.373  20.624  72.888  1.00  0.00     0.000 HD 
ENDBRANCH  40  41
ENDBRANCH  38  40
ENDBRANCH  33  36
ENDBRANCH  21  24
ENDBRANCH  19  20
ENDBRANCH  16  19
ENDBRANCH   9  15
BRANCH  13  44
HETATM   44  N   UNL     1      -7.833   8.864  65.456  1.00  0.00    -0.097 N  
HETATM   45  C   UNL     1      -6.459   8.968  65.179  1.00  0.00    -0.071 C  
HETATM   46  O   UNL     1      -6.049   8.932  64.006  1.00  0.00    -0.071 OA 
HETATM   47  C   UNL     1      -8.631   8.858  64.220  1.00  0.00    -0.109 C  
HETATM   48  C   UNL     1      -5.428   9.191  66.230  1.00  0.00    -0.044 C  
ENDBRANCH  13  44
ENDBRANCH   4   6
TORSDOF 9
ENDMDL
MODEL       12
REMARK 921   NORMALIZED FREE ENERGY PREDICTED BY IDOCK:   -4.37 KCAL/MOL
REMARK 922        TOTAL FREE ENERGY PREDICTED BY IDOCK:   -7.79 KCAL/MOL
REMARK 923 INTER-LIGAND FREE ENERGY PREDICTED BY IDOCK:   -6.87 KCAL/MOL
REMARK 924 INTRA-LIGAND FREE ENERGY PREDICTED BY IDOCK:   -0.92 KCAL/MOL
REMARK 927      BINDING AFFINITY PREDICTED BY RF-SCORE:    0.00 PKD
ROOT
HETATM    1  C   UNL     1      -5.935   3.256  64.112  1.00  0.00    -0.018 C  
HETATM    2  N   UNL     1      -6.157   3.833  65.425  1.00  0.00    -0.023 N  
HETATM    3  H   UNL     1      -5.395   4.339  65.878  1.00  0.00     0.000 HD 
HETATM    4  C   UNL     1      -7.370   3.716  66.081  1.00  0.00    -0.072 C  
HETATM    5  O   UNL     1      -8.346   3.192  65.581  1.00  0.00    -0.096 OA 
ENDROOT
BRANCH   4   6
HETATM    6  C   UNL     1      -7.429   4.289  67.474  1.00  0.00    -0.069 A  
HETATM    7  C   UNL     1      -7.396   5.683  67.700  1.00  0.00    -0.077 A  
HETATM    8  I   UNL     1      -7.186   7.024  66.018  1.00  0.00    -0.079 I  
HETATM    9  C   UNL     1      -7.567   6.187  69.020  1.00  0.00    -0.091 A  
HETATM   10  I   UNL     1      -6.469   1.493  68.328  1.00  0.00    -0.025 I  
HETATM   11  C   UNL     1      -8.025   5.273  70.023  1.00  0.00    -0.080 A  
HETATM   12  I   UNL     1      -9.582   6.146  71.307  1.00  0.00    -0.209 I  
HETATM   13  C   UNL     1      -7.943   3.851  69.884  1.00  0.00    -0.051 A  
HETATM   14  C   UNL     1      -7.522   3.415  68.587  1.00  0.00    -0.049 A  
BRANCH   9  15
HETATM   15  C   UNL     1      -7.285   7.643  69.351  1.00  0.00    -0.081 C  
HETATM   16  N   UNL     1      -8.302   8.564  69.174  1.00  0.00    -0.119 N  
HETATM   17  O   UNL     1      -6.213   8.029  69.792  1.00  0.00    -0.029 OA 
HETATM   18  H   UNL     1      -9.153   8.298  68.680  1.00  0.00     0.000 HD 
BRANCH  16  19
HETATM   19  C   UNL     1      -8.149   9.926  69.699  1.00  0.00    -0.165 C  
BRANCH  19  20
HETATM   20  C   UNL     1      -9.040  10.978  69.002  1.00  0.00    -0.063 C  
HETATM   21  N   UNL     1      -8.413  11.633  67.948  1.00  0.00    -0.141 N  
HETATM   22  O   UNL     1     -10.216  11.139  69.316  1.00  0.00    -0.184 OA 
HETATM   23  H   UNL     1      -7.433  11.428  67.750  1.00  0.00     0.000 HD 
BRANCH  21  24
HETATM   24  C   UNL     1      -9.103  12.588  67.133  1.00  0.00    -0.205 A  
HETATM   25  C   UNL     1      -9.746  12.142  65.955  1.00  0.00    -0.244 A  
HETATM   26  C   UNL     1     -10.459  13.043  65.131  1.00  0.00    -0.335 A  
HETATM   27  I   UNL     1      -9.750  10.041  65.510  1.00  0.00    -0.321 I  
HETATM   28  C   UNL     1     -10.963  12.545  63.809  1.00  0.00    -0.447 C  
HETATM   29  C   UNL     1     -10.580  14.399  65.514  1.00  0.00    -0.347 A  
HETATM   30  I   UNL     1     -11.876  15.699  64.352  1.00  0.00     0.485 I  
HETATM   31  O   UNL     1     -10.227  12.013  63.003  1.00  0.00    -0.343 OA 
HETATM   32  O   UNL     1     -12.293  12.646  63.637  1.00  0.00    -0.551 OA 
HETATM   33  C   UNL     1      -9.895  14.892  66.660  1.00  0.00    -0.272 A  
HETATM   34  I   UNL     1      -7.601  14.727  68.795  1.00  0.00    -0.152 I  
HETATM   35  C   UNL     1      -9.113  13.977  67.428  1.00  0.00    -0.209 A  
BRANCH  33  36
HETATM   36  C   UNL     1      -9.926  16.357  66.975  1.00  0.00    -0.261 C  
HETATM   37  O   UNL     1     -10.719  16.796  67.802  1.00  0.00    -0.337 OA 
HETATM   38  N   UNL     1      -9.035  17.185  66.316  1.00  0.00    -0.250 N  
HETATM   39  H   UNL     1      -8.352  16.780  65.675  1.00  0.00     0.000 HD 
BRANCH  38  40
HETATM   40  C   UNL     1      -9.059  18.633  66.523  1.00  0.00    -0.315 C  
BRANCH  40  41
HETATM   41  C   UNL     1      -7.685  19.257  66.291  1.00  0.00    -0.289 C  
HETATM   42  O   UNL     1      -7.816  20.667  66.110  1.00  0.00    -0.506 OA 
HETATM   43  H   UNL     1      -6.961  21.055  65.966  1.00  0.00     0.000 HD 
ENDBRANCH  40  41
ENDBRANCH  38  40
ENDBRANCH  33  36
ENDBRANCH  21  24
ENDBRANCH  19  20
ENDBRANCH  16  19
ENDBRANCH   9  15
BRANCH  13  44
HETATM   44  N   UNL     1      -8.368   2.889  70.909  1.00  0.00    -0.056 N  
HETATM   45  C   UNL     1      -7.758   2.535  72.124  1.00  0.00    -0.052 C  
HETATM   46  O   UNL     1      -8.333   1.769  72.917  1.00  0.00    -0.055 OA 
HETATM   47  C   UNL     1      -9.619   2.145  70.698  1.00  0.00    -0.074 C  
HETATM   48  C   UNL     1      -6.391   2.980  72.513  1.00  0.00    -0.014 C  
ENDBRANCH  13  44
ENDBRANCH   4   6
TORSDOF 9
ENDMDL
MODEL       13
REMARK 921   NORMALIZED FREE ENERGY PREDICTED BY IDOCK:   -4.22 KCAL/MOL
REMARK 922        TOTAL FREE ENERGY PREDICTED BY IDOCK:   -7.56 KCAL/MOL
REMARK 923 INTER-LIGAND FREE ENERGY PREDICTED BY IDOCK:   -7.29 KCAL/MOL
REMARK 924 INTRA-LIGAND FREE ENERGY PREDICTED BY IDOCK:   -0.27 KCAL/MOL
REMARK 927      BINDING AFFINITY PREDICTED BY RF-SCORE:    0.00 PKD
ROOT
HETATM    1  C   UNL     1     -13.606   6.856  71.481  1.00  0.00    -0.175 C  
HETATM    2  N   UNL     1     -12.182   6.884  71.203  1.00  0.00    -0.375 N  
HETATM    3  H   UNL     1     -11.858   6.684  70.257  1.00  0.00     0.000 HD 
HETATM    4  C   UNL     1     -11.250   7.176  72.185  1.00  0.00    -0.255 C  
HETATM    5  O   UNL     1     -11.557   7.493  73.318  1.00  0.00    -0.147 OA 
ENDROOT
BRANCH   4   6
HETATM    6  C   UNL     1      -9.804   7.084  71.774  1.00  0.00    -0.169 A  
HETATM    7  C   UNL     1      -9.209   8.063  70.948  1.00  0.00    -0.149 A  
HETATM    8  I   UNL     1     -10.415   9.692  70.199  1.00  0.00    -0.377 I  
HETATM    9  C   UNL     1      -7.813   8.002  70.675  1.00  0.00    -0.091 A  
HETATM   10  I   UNL     1     -10.122   4.100  72.452  1.00  0.00    -0.181 I  
HETATM   11  C   UNL     1      -7.024   7.100  71.460  1.00  0.00    -0.064 A  
HETATM   12  I   UNL     1      -5.133   8.001  72.127  1.00  0.00    -0.037 I  
HETATM   13  C   UNL     1      -7.583   6.008  72.198  1.00  0.00    -0.097 A  
HETATM   14  C   UNL     1      -9.015   5.995  72.224  1.00  0.00    -0.141 A  
BRANCH   9  15
HETATM   15  C   UNL     1      -7.181   8.868  69.598  1.00  0.00    -0.055 C  
HETATM   16  N   UNL     1      -6.877  10.182  69.909  1.00  0.00    -0.106 N  
HETATM   17  O   UNL     1      -6.905   8.449  68.484  1.00  0.00    -0.062 OA 
HETATM   18  H   UNL     1      -7.220  10.595  70.775  1.00  0.00     0.000 HD 
BRANCH  16  19
HETATM   19  C   UNL     1      -6.058  10.976  68.985  1.00  0.00    -0.043 C  
BRANCH  19  20
HETATM   20  C   UNL     1      -6.873  11.897  68.049  1.00  0.00    -0.072 C  
HETATM   21  N   UNL     1      -7.717  12.774  68.722  1.00  0.00    -0.297 N  
HETATM   22  O   UNL     1      -6.708  11.890  66.832  1.00  0.00    -0.138 OA 
HETATM   23  H   UNL     1      -7.783  12.716  69.739  1.00  0.00     0.000 HD 
BRANCH  21  24
HETATM   24  C   UNL     1      -8.495  13.756  68.028  1.00  0.00    -0.176 A  
HETATM   25  C   UNL     1      -8.230  15.125  68.260  1.00  0.00    -0.144 A  
HETATM   26  C   UNL     1      -8.957  16.131  67.582  1.00  0.00    -0.194 A  
HETATM   27  I   UNL     1      -6.601  15.660  69.554  1.00  0.00    -0.141 I  
HETATM   28  C   UNL     1      -8.754  17.556  68.003  1.00  0.00    -0.254 C  
HETATM   29  C   UNL     1      -9.924  15.768  66.616  1.00  0.00    -0.257 A  
HETATM   30  I   UNL     1     -10.849  17.332  65.427  1.00  0.00     0.844 I  
HETATM   31  O   UNL     1      -8.882  17.906  69.159  1.00  0.00    -0.065 OA 
HETATM   32  O   UNL     1      -8.330  18.379  67.027  1.00  0.00    -0.241 OA 
HETATM   33  C   UNL     1     -10.257  14.400  66.403  1.00  0.00    -0.294 A  
HETATM   34  I   UNL     1     -10.396  11.409  67.341  1.00  0.00    -0.275 I  
HETATM   35  C   UNL     1      -9.566  13.408  67.163  1.00  0.00    -0.241 A  
BRANCH  33  36
HETATM   36  C   UNL     1     -11.377  14.041  65.474  1.00  0.00    -0.313 C  
HETATM   37  O   UNL     1     -12.543  14.136  65.844  1.00  0.00    -0.486 OA 
HETATM   38  N   UNL     1     -11.055  13.610  64.199  1.00  0.00    -0.574 N  
HETATM   39  H   UNL     1     -10.078  13.595  63.906  1.00  0.00     0.000 HD 
BRANCH  38  40
HETATM   40  C   UNL     1     -12.094  13.175  63.267  1.00  0.00    -0.386 C  
BRANCH  40  41
HETATM   41  C   UNL     1     -12.225  11.654  63.240  1.00  0.00    -0.152 C  
HETATM   42  O   UNL     1     -10.930  11.054  63.262  1.00  0.00    -0.735 OA 
HETATM   43  H   UNL     1     -11.012  10.108  63.246  1.00  0.00     0.000 HD 
ENDBRANCH  40  41
ENDBRANCH  38  40
ENDBRANCH  33  36
ENDBRANCH  21  24
ENDBRANCH  19  20
ENDBRANCH  16  19
ENDBRANCH   9  15
BRANCH  13  44
HETATM   44  N   UNL     1      -6.799   5.045  72.979  1.00  0.00    -0.074 N  
HETATM   45  C   UNL     1      -6.104   3.896  72.564  1.00  0.00    -0.009 C  
HETATM   46  O   UNL     1      -5.401   3.260  73.369  1.00  0.00     0.000 OA 
HETATM   47  C   UNL     1      -6.677   5.251  74.431  1.00  0.00    -0.076 C  
HETATM   48  C   UNL     1      -6.206   3.331  71.190  1.00  0.00    -0.018 C  
ENDBRANCH  13  44
ENDBRANCH   4   6
TORSDOF 9
ENDMDL
MODEL       14
REMARK 921   NORMALIZED FREE ENERGY PREDICTED BY IDOCK:   -4.14 KCAL/MOL
REMARK 922        TOTAL FREE ENERGY PREDICTED BY IDOCK:   -7.44 KCAL/MOL
REMARK 923 INTER-LIGAND FREE ENERGY PREDICTED BY IDOCK:   -7.71 KCAL/MOL
REMARK 924 INTRA-LIGAND FREE ENERGY PREDICTED BY IDOCK:    0.27 KCAL/MOL
REMARK 927      BINDING AFFINITY PREDICTED BY RF-SCORE:    0.00 PKD
ROOT
HETATM    1  C   UNL     1      -8.221   3.547  73.630  1.00  0.00    -0.079 C  
HETATM    2  N   UNL     1      -8.283   4.450  72.496  1.00  0.00    -0.103 N  
HETATM    3  H   UNL     1      -7.444   4.967  72.228  1.00  0.00     0.000 HD 
HETATM    4  C   UNL     1      -9.446   4.631  71.766  1.00  0.00    -0.150 C  
HETATM    5  O   UNL     1     -10.465   4.003  71.976  1.00  0.00    -0.105 OA 
ENDROOT
BRANCH   4   6
HETATM    6  C   UNL     1      -9.386   5.664  70.670  1.00  0.00    -0.191 A  
HETATM    7  C   UNL     1      -9.882   6.972  70.861  1.00  0.00    -0.185 A  
HETATM    8  I   UNL     1     -10.811   7.488  72.743  1.00  0.00    -0.441 I  
HETATM    9  C   UNL     1      -9.705   7.949  69.842  1.00  0.00    -0.176 A  
HETATM   10  I   UNL     1      -9.138   3.223  68.812  1.00  0.00    -0.222 I  
HETATM   11  C   UNL     1      -8.803   7.635  68.774  1.00  0.00    -0.131 A  
HETATM   12  I   UNL     1      -7.488   9.321  68.262  1.00  0.00    -0.078 I  
HETATM   13  C   UNL     1      -8.390   6.300  68.463  1.00  0.00    -0.115 A  
HETATM   14  C   UNL     1      -8.819   5.321  69.416  1.00  0.00    -0.100 A  
BRANCH   9  15
HETATM   15  C   UNL     1     -10.437   9.280  69.889  1.00  0.00    -0.227 C  
HETATM   16  N   UNL     1     -10.950   9.787  68.708  1.00  0.00    -0.386 N  
HETATM   17  O   UNL     1     -10.617   9.904  70.923  1.00  0.00    -0.304 OA 
HETATM   18  H   UNL     1     -10.698   9.363  67.816  1.00  0.00     0.000 HD 
BRANCH  16  19
HETATM   19  C   UNL     1     -11.859  10.939  68.746  1.00  0.00    -0.235 C  
BRANCH  19  20
HETATM   20  C   UNL     1     -11.150  12.309  68.653  1.00  0.00    -0.249 C  
HETATM   21  N   UNL     1     -10.672  12.606  67.381  1.00  0.00    -0.227 N  
HETATM   22  O   UNL     1     -11.101  13.078  69.609  1.00  0.00    -0.080 OA 
HETATM   23  H   UNL     1     -10.766  11.909  66.641  1.00  0.00     0.000 HD 
BRANCH  21  24
HETATM   24  C   UNL     1     -10.053  13.862  67.080  1.00  0.00    -0.256 A  
HETATM   25  C   UNL     1     -10.726  14.768  66.229  1.00  0.00    -0.313 A  
HETATM   26  C   UNL     1     -10.165  16.029  65.920  1.00  0.00    -0.386 A  
HETATM   27  I   UNL     1     -12.690  14.260  65.521  1.00  0.00     0.148 I  
HETATM   28  C   UNL     1     -10.838  16.866  64.874  1.00  0.00     0.003 C  
HETATM   29  C   UNL     1      -8.942  16.418  66.514  1.00  0.00    -0.276 A  
HETATM   30  I   UNL     1      -8.231  18.446  66.207  1.00  0.00    -0.032 I  
HETATM   31  O   UNL     1     -11.078  16.433  63.765  1.00  0.00    -0.475 OA 
HETATM   32  O   UNL     1     -11.236  18.081  65.291  1.00  0.00    -0.220 OA 
HETATM   33  C   UNL     1      -8.210  15.506  67.328  1.00  0.00    -0.224 A  
HETATM   34  I   UNL     1      -7.481  12.599  68.256  1.00  0.00    -0.133 I  
HETATM   35  C   UNL     1      -8.760  14.207  67.554  1.00  0.00    -0.204 A  
BRANCH  33  36
HETATM   36  C   UNL     1      -6.853  15.886  67.839  1.00  0.00    -0.143 C  
HETATM   37  O   UNL     1      -5.871  15.801  67.109  1.00  0.00    -0.334 OA 
HETATM   38  N   UNL     1      -6.750  16.336  69.143  1.00  0.00    -0.183 N  
HETATM   39  H   UNL     1      -7.594  16.447  69.706  1.00  0.00     0.000 HD 
BRANCH  38  40
HETATM   40  C   UNL     1      -5.448  16.655  69.728  1.00  0.00    -0.173 C  
BRANCH  40  41
HETATM   41  C   UNL     1      -5.501  17.939  70.553  1.00  0.00    -0.245 C  
HETATM   42  O   UNL     1      -5.787  19.050  69.704  1.00  0.00    -0.236 OA 
HETATM   43  H   UNL     1      -5.820  19.849  70.218  1.00  0.00     0.000 HD 
ENDBRANCH  40  41
ENDBRANCH  38  40
ENDBRANCH  33  36
ENDBRANCH  21  24
ENDBRANCH  19  20
ENDBRANCH  16  19
ENDBRANCH   9  15
BRANCH  13  44
HETATM   44  N   UNL     1      -7.499   5.943  67.353  1.00  0.00    -0.077 N  
HETATM   45  C   UNL     1      -6.147   5.559  67.367  1.00  0.00    -0.030 C  
HETATM   46  O   UNL     1      -5.587   5.187  66.320  1.00  0.00    -0.016 OA 
HETATM   47  C   UNL     1      -8.037   5.966  65.984  1.00  0.00    -0.115 C  
HETATM   48  C   UNL     1      -5.289   5.632  68.582  1.00  0.00    -0.003 C  
ENDBRANCH  13  44
ENDBRANCH   4   6
TORSDOF 9
ENDMDL
MODEL       15
REMARK 921   NORMALIZED FREE ENERGY PREDICTED BY IDOCK:   -4.08 KCAL/MOL
REMARK 922        TOTAL FREE ENERGY PREDICTED BY IDOCK:   -7.34 KCAL/MOL
REMARK 923 INTER-LIGAND FREE ENERGY PREDICTED BY IDOCK:   -6.53 KCAL/MOL
REMARK 924 INTRA-LIGAND FREE ENERGY PREDICTED BY IDOCK:   -0.81 KCAL/MOL
REMARK 927      BINDING AFFINITY PREDICTED BY RF-SCORE:    0.00 PKD
ROOT
HETATM    1  C   UNL     1     -10.117   4.341  65.072  1.00  0.00    -0.192 C  
HETATM    2  N   UNL     1      -9.338   4.850  66.185  1.00  0.00    -0.144 N  
HETATM    3  H   UNL     1      -8.336   4.658  66.217  1.00  0.00     0.000 HD 
HETATM    4  C   UNL     1      -9.913   5.591  67.204  1.00  0.00    -0.169 C  
HETATM    5  O   UNL     1     -11.082   5.923  67.203  1.00  0.00    -0.256 OA 
ENDROOT
BRANCH   4   6
HETATM    6  C   UNL     1      -8.999   5.981  68.337  1.00  0.00    -0.114 A  
HETATM    7  C   UNL     1      -8.259   7.183  68.307  1.00  0.00    -0.124 A  
HETATM    8  I   UNL     1      -8.384   8.461  66.569  1.00  0.00    -0.138 I  
HETATM    9  C   UNL     1      -7.497   7.569  69.445  1.00  0.00    -0.087 A  
HETATM   10  I   UNL     1      -9.053   2.976  69.001  1.00  0.00    -0.205 I  
HETATM   11  C   UNL     1      -7.719   6.854  70.666  1.00  0.00    -0.096 A  
HETATM   12  I   UNL     1      -7.847   8.185  72.410  1.00  0.00    -0.138 I  
HETATM   13  C   UNL     1      -8.341   5.565  70.717  1.00  0.00    -0.122 A  
HETATM   14  C   UNL     1      -8.876   5.127  69.463  1.00  0.00    -0.099 A  
BRANCH   9  15
HETATM   15  C   UNL     1      -6.491   8.706  69.371  1.00  0.00    -0.045 C  
HETATM   16  N   UNL     1      -6.918   9.981  69.696  1.00  0.00    -0.081 N  
HETATM   17  O   UNL     1      -5.319   8.539  69.068  1.00  0.00    -0.034 OA 
HETATM   18  H   UNL     1      -7.913  10.173  69.816  1.00  0.00     0.000 HD 
BRANCH  16  19
HETATM   19  C   UNL     1      -5.934  11.057  69.866  1.00  0.00    -0.099 C  
BRANCH  19  20
HETATM   20  C   UNL     1      -6.532  12.480  69.791  1.00  0.00    -0.018 C  
HETATM   21  N   UNL     1      -7.256  12.723  68.629  1.00  0.00    -0.105 N  
HETATM   22  O   UNL     1      -6.432  13.273  70.724  1.00  0.00     0.101 OA 
HETATM   23  H   UNL     1      -7.295  12.000  67.910  1.00  0.00     0.000 HD 
BRANCH  21  24
HETATM   24  C   UNL     1      -7.948  13.958  68.413  1.00  0.00    -0.144 A  
HETATM   25  C   UNL     1      -9.348  13.932  68.216  1.00  0.00    -0.209 A  
HETATM   26  C   UNL     1     -10.077  15.127  68.022  1.00  0.00    -0.222 A  
HETATM   27  I   UNL     1     -10.378  12.052  68.361  1.00  0.00    -0.203 I  
HETATM   28  C   UNL     1     -11.523  15.019  67.640  1.00  0.00    -0.333 C  
HETATM   29  C   UNL     1      -9.412  16.373  68.081  1.00  0.00    -0.213 A  
HETATM   30  I   UNL     1     -10.596  18.193  68.016  1.00  0.00    -0.058 I  
HETATM   31  O   UNL     1     -11.886  14.359  66.687  1.00  0.00    -0.389 OA 
HETATM   32  O   UNL     1     -12.378  15.623  68.485  1.00  0.00     0.010 OA 
HETATM   33  C   UNL     1      -7.996  16.433  68.218  1.00  0.00    -0.170 A  
HETATM   34  I   UNL     1      -5.135  15.170  67.946  1.00  0.00     0.066 I  
HETATM   35  C   UNL     1      -7.273  15.205  68.327  1.00  0.00    -0.110 A  
BRANCH  33  36
HETATM   36  C   UNL     1      -7.293  17.754  68.144  1.00  0.00    -0.238 C  
HETATM   37  O   UNL     1      -7.015  18.366  69.171  1.00  0.00    -0.274 OA 
HETATM   38  N   UNL     1      -6.965  18.250  66.895  1.00  0.00    -0.186 N  
HETATM   39  H   UNL     1      -7.161  17.691  66.065  1.00  0.00     0.000 HD 
BRANCH  38  40
HETATM   40  C   UNL     1      -6.344  19.566  66.747  1.00  0.00    -0.187 C  
BRANCH  40  41
HETATM   41  C   UNL     1      -7.090  20.430  65.733  1.00  0.00    -0.202 C  
HETATM   42  O   UNL     1      -8.485  20.438  66.035  1.00  0.00    -0.560 OA 
HETATM   43  H   UNL     1      -8.949  20.976  65.404  1.00  0.00     0.000 HD 
ENDBRANCH  40  41
ENDBRANCH  38  40
ENDBRANCH  33  36
ENDBRANCH  21  24
ENDBRANCH  19  20
ENDBRANCH  16  19
ENDBRANCH   9  15
BRANCH  13  44
HETATM   44  N   UNL     1      -8.548   4.790  71.945  1.00  0.00    -0.121 N  
HETATM   45  C   UNL     1      -9.696   4.652  72.745  1.00  0.00    -0.139 C  
HETATM   46  O   UNL     1      -9.706   3.855  73.699  1.00  0.00    -0.105 OA 
HETATM   47  C   UNL     1      -7.423   4.009  72.482  1.00  0.00    -0.068 C  
HETATM   48  C   UNL     1     -10.925   5.471  72.558  1.00  0.00    -0.316 C  
ENDBRANCH  13  44
ENDBRANCH   4   6
TORSDOF 9
ENDMDL
MODEL       16
REMARK 921   NORMALIZED FREE ENERGY PREDICTED BY IDOCK:   -3.99 KCAL/MOL
REMARK 922        TOTAL FREE ENERGY PREDICTED BY IDOCK:   -7.21 KCAL/MOL
REMARK 923 INTER-LIGAND FREE ENERGY PREDICTED BY IDOCK:   -5.89 KCAL/MOL
REMARK 924 INTRA-LIGAND FREE ENERGY PREDICTED BY IDOCK:   -1.32 KCAL/MOL
REMARK 927      BINDING AFFINITY PREDICTED BY RF-SCORE:    0.00 PKD
ROOT
HETATM    1  C   UNL     1      -6.248  16.330  67.267  1.00  0.00    -0.170 C  
HETATM    2  N   UNL     1      -7.474  15.571  67.437  1.00  0.00    -0.186 N  
HETATM    3  H   UNL     1      -8.088  15.437  66.633  1.00  0.00     0.000 HD 
HETATM    4  C   UNL     1      -7.833  15.023  68.656  1.00  0.00    -0.138 C  
HETATM    5  O   UNL     1      -7.124  15.077  69.642  1.00  0.00    -0.176 OA 
ENDROOT
BRANCH   4   6
HETATM    6  C   UNL     1      -9.173  14.335  68.705  1.00  0.00    -0.167 A  
HETATM    7  C   UNL     1      -9.353  13.034  68.187  1.00  0.00    -0.217 A  
HETATM    8  I   UNL     1      -7.688  12.031  67.241  1.00  0.00    -0.111 I  
HETATM    9  C   UNL     1     -10.604  12.376  68.354  1.00  0.00    -0.251 A  
HETATM   10  I   UNL     1     -10.279  17.192  69.001  1.00  0.00    -0.128 I  
HETATM   11  C   UNL     1     -11.542  12.958  69.266  1.00  0.00    -0.310 A  
HETATM   12  I   UNL     1     -12.502  11.460  70.557  1.00  0.00    -0.226 I  
HETATM   13  C   UNL     1     -11.469  14.320  69.702  1.00  0.00    -0.282 A  
HETATM   14  C   UNL     1     -10.283  15.003  69.284  1.00  0.00    -0.241 A  
BRANCH   9  15
HETATM   15  C   UNL     1     -10.928  11.096  67.600  1.00  0.00    -0.269 C  
HETATM   16  N   UNL     1     -10.402   9.907  68.072  1.00  0.00    -0.190 N  
HETATM   17  O   UNL     1     -11.654  11.069  66.618  1.00  0.00    -0.263 OA 
HETATM   18  H   UNL     1      -9.686   9.916  68.799  1.00  0.00     0.000 HD 
BRANCH  16  19
HETATM   19  C   UNL     1     -10.877   8.633  67.521  1.00  0.00    -0.017 C  
BRANCH  19  20
HETATM   20  C   UNL     1     -10.431   7.390  68.324  1.00  0.00    -0.189 C  
HETATM   21  N   UNL     1      -9.608   7.688  69.405  1.00  0.00    -0.159 N  
HETATM   22  O   UNL     1     -10.848   6.265  68.059  1.00  0.00    -0.272 OA 
HETATM   23  H   UNL     1      -9.320   8.655  69.556  1.00  0.00     0.000 HD 
BRANCH  21  24
HETATM   24  C   UNL     1      -9.155   6.675  70.311  1.00  0.00    -0.156 A  
HETATM   25  C   UNL     1      -9.855   6.481  71.524  1.00  0.00    -0.168 A  
HETATM   26  C   UNL     1      -9.459   5.480  72.440  1.00  0.00    -0.160 A  
HETATM   27  I   UNL     1     -11.627   7.639  71.893  1.00  0.00    -0.407 I  
HETATM   28  C   UNL     1     -10.127   5.445  73.782  1.00  0.00    -0.203 C  
HETATM   29  C   UNL     1      -8.384   4.620  72.118  1.00  0.00    -0.117 A  
HETATM   30  I   UNL     1      -7.956   2.947  73.435  1.00  0.00    -0.065 I  
HETATM   31  O   UNL     1     -10.172   6.423  74.501  1.00  0.00    -0.342 OA 
HETATM   32  O   UNL     1     -10.748   4.288  74.075  1.00  0.00    -0.230 OA 
HETATM   33  C   UNL     1      -7.621   4.826  70.934  1.00  0.00    -0.069 A  
HETATM   34  I   UNL     1      -6.573   6.644  68.601  1.00  0.00    -0.056 I  
HETATM   35  C   UNL     1      -7.991   5.899  70.067  1.00  0.00    -0.105 A  
BRANCH  33  36
HETATM   36  C   UNL     1      -6.404   3.991  70.675  1.00  0.00    -0.023 C  
HETATM   37  O   UNL     1      -5.336   4.269  71.213  1.00  0.00     0.000 OA 
HETATM   38  N   UNL     1      -6.526   2.905  69.827  1.00  0.00    -0.029 N  
HETATM   39  H   UNL     1      -7.440   2.669  69.440  1.00  0.00     0.000 HD 
BRANCH  38  40
HETATM   40  C   UNL     1      -5.363   2.091  69.475  1.00  0.00    -0.012 C  
BRANCH  40  41
HETATM   41  C   UNL     1      -5.353   1.736  67.989  1.00  0.00    -0.013 C  
HETATM   42  O   UNL     1      -5.525   2.917  67.207  1.00  0.00    -0.016 OA 
HETATM   43  H   UNL     1      -5.518   2.697  66.283  1.00  0.00     0.000 HD 
ENDBRANCH  40  41
ENDBRANCH  38  40
ENDBRANCH  33  36
ENDBRANCH  21  24
ENDBRANCH  19  20
ENDBRANCH  16  19
ENDBRANCH   9  15
BRANCH  13  44
HETATM   44  N   UNL     1     -12.436  14.957  70.604  1.00  0.00    -0.328 N  
HETATM   45  C   UNL     1     -12.296  15.353  71.945  1.00  0.00    -0.371 C  
HETATM   46  O   UNL     1     -13.206  15.981  72.514  1.00  0.00    -0.450 OA 
HETATM   47  C   UNL     1     -13.782  15.260  70.091  1.00  0.00     0.798 C  
HETATM   48  C   UNL     1     -11.116  15.002  72.782  1.00  0.00     0.594 C  
ENDBRANCH  13  44
ENDBRANCH   4   6
TORSDOF 9
ENDMDL
MODEL       17
REMARK 921   NORMALIZED FREE ENERGY PREDICTED BY IDOCK:   -3.84 KCAL/MOL
REMARK 922        TOTAL FREE ENERGY PREDICTED BY IDOCK:   -6.97 KCAL/MOL
REMARK 923 INTER-LIGAND FREE ENERGY PREDICTED BY IDOCK:   -5.98 KCAL/MOL
REMARK 924 INTRA-LIGAND FREE ENERGY PREDICTED BY IDOCK:   -0.99 KCAL/MOL
REMARK 927      BINDING AFFINITY PREDICTED BY RF-SCORE:    0.00 PKD
ROOT
HETATM    1  C   UNL     1      -6.716   1.478  62.518  1.00  0.00    -0.013 C  
HETATM    2  N   UNL     1      -7.134   2.356  63.596  1.00  0.00    -0.040 N  
HETATM    3  H   UNL     1      -8.071   2.249  63.986  1.00  0.00     0.000 HD 
HETATM    4  C   UNL     1      -6.299   3.333  64.109  1.00  0.00    -0.023 C  
HETATM    5  O   UNL     1      -5.148   3.479  63.748  1.00  0.00    -0.007 OA 
ENDROOT
BRANCH   4   6
HETATM    6  C   UNL     1      -6.896   4.226  65.166  1.00  0.00    -0.053 A  
HETATM    7  C   UNL     1      -7.365   5.522  64.857  1.00  0.00    -0.068 A  
HETATM    8  I   UNL     1      -7.160   6.270  62.840  1.00  0.00    -0.062 I  
HETATM    9  C   UNL     1      -8.025   6.290  65.858  1.00  0.00    -0.116 A  
HETATM   10  I   UNL     1      -5.360   2.415  67.122  1.00  0.00    -0.018 I  
HETATM   11  C   UNL     1      -8.416   5.615  67.060  1.00  0.00    -0.110 A  
HETATM   12  I   UNL     1     -10.446   6.157  67.706  1.00  0.00    -0.404 I  
HETATM   13  C   UNL     1      -7.855   4.365  67.475  1.00  0.00    -0.085 A  
HETATM   14  C   UNL     1      -6.995   3.761  66.503  1.00  0.00    -0.059 A  
BRANCH   9  15
HETATM   15  C   UNL     1      -8.314   7.768  65.655  1.00  0.00    -0.139 C  
HETATM   16  N   UNL     1      -7.773   8.670  66.554  1.00  0.00    -0.094 N  
HETATM   17  O   UNL     1      -8.976   8.195  64.721  1.00  0.00     0.134 OA 
HETATM   18  H   UNL     1      -7.338   8.338  67.415  1.00  0.00     0.000 HD 
BRANCH  16  19
HETATM   19  C   UNL     1      -7.830  10.108  66.264  1.00  0.00    -0.113 C  
BRANCH  19  20
HETATM   20  C   UNL     1      -9.080  10.819  66.829  1.00  0.00    -0.154 C  
HETATM   21  N   UNL     1      -8.854  11.476  68.033  1.00  0.00    -0.152 N  
HETATM   22  O   UNL     1     -10.139  10.855  66.208  1.00  0.00    -0.218 OA 
HETATM   23  H   UNL     1      -7.936  11.401  68.474  1.00  0.00     0.000 HD 
BRANCH  21  24
HETATM   24  C   UNL     1      -9.872  12.255  68.673  1.00  0.00    -0.089 A  
HETATM   25  C   UNL     1     -10.803  11.603  69.514  1.00  0.00    -0.029 A  
HETATM   26  C   UNL     1     -11.812  12.333  70.184  1.00  0.00    -0.352 A  
HETATM   27  I   UNL     1     -10.575   9.498  69.874  1.00  0.00    -0.338 I  
HETATM   28  C   UNL     1     -12.874  11.565  70.913  1.00  0.00    -0.201 C  
HETATM   29  C   UNL     1     -11.859  13.741  70.061  1.00  0.00    -0.307 A  
HETATM   30  I   UNL     1     -13.268  14.848  71.288  1.00  0.00    -0.557 I  
HETATM   31  O   UNL     1     -13.527  10.700  70.366  1.00  0.00     0.014 OA 
HETATM   32  O   UNL     1     -12.971  11.842  72.226  1.00  0.00    -0.288 OA 
HETATM   33  C   UNL     1     -10.975  14.421  69.177  1.00  0.00    -0.288 A  
HETATM   34  I   UNL     1      -9.067  14.491  66.686  1.00  0.00    -0.127 I  
HETATM   35  C   UNL     1     -10.020  13.649  68.446  1.00  0.00    -0.235 A  
BRANCH  33  36
HETATM   36  C   UNL     1     -11.127  15.896  68.957  1.00  0.00    -0.294 C  
HETATM   37  O   UNL     1     -12.068  16.330  68.301  1.00  0.00     0.114 OA 
HETATM   38  N   UNL     1     -10.185  16.739  69.519  1.00  0.00    -0.217 N  
HETATM   39  H   UNL     1      -9.447  16.349  70.105  1.00  0.00     0.000 HD 
BRANCH  38  40
HETATM   40  C   UNL     1     -10.233  18.182  69.285  1.00  0.00     0.003 C  
BRANCH  40  41
HETATM   41  C   UNL     1      -9.290  18.601  68.159  1.00  0.00    -0.318 C  
HETATM   42  O   UNL     1      -9.816  18.177  66.902  1.00  0.00    -0.301 OA 
HETATM   43  H   UNL     1      -9.230  18.437  66.202  1.00  0.00     0.000 HD 
ENDBRANCH  40  41
ENDBRANCH  38  40
ENDBRANCH  33  36
ENDBRANCH  21  24
ENDBRANCH  19  20
ENDBRANCH  16  19
ENDBRANCH   9  15
BRANCH  13  44
HETATM   44  N   UNL     1      -8.205   3.668  68.718  1.00  0.00    -0.072 N  
HETATM   45  C   UNL     1      -7.863   3.966  70.048  1.00  0.00    -0.051 C  
HETATM   46  O   UNL     1      -8.351   3.310  70.985  1.00  0.00    -0.063 OA 
HETATM   47  C   UNL     1      -9.045   2.463  68.635  1.00  0.00    -0.146 C  
HETATM   48  C   UNL     1      -6.870   5.010  70.423  1.00  0.00    -0.044 C  
ENDBRANCH  13  44
ENDBRANCH   4   6
TORSDOF 9
ENDMDL
MODEL       18
REMARK 921   NORMALIZED FREE ENERGY PREDICTED BY IDOCK:   -3.82 KCAL/MOL
REMARK 922        TOTAL FREE ENERGY PREDICTED BY IDOCK:   -6.95 KCAL/MOL
REMARK 923 INTER-LIGAND FREE ENERGY PREDICTED BY IDOCK:   -6.59 KCAL/MOL
REMARK 924 INTRA-LIGAND FREE ENERGY PREDICTED BY IDOCK:   -0.36 KCAL/MOL
REMARK 927      BINDING AFFINITY PREDICTED BY RF-SCORE:    0.00 PKD
ROOT
HETATM    1  C   UNL     1     -13.099   7.129  71.711  1.00  0.00    -0.314 C  
HETATM    2  N   UNL     1     -11.648   7.111  71.655  1.00  0.00    -0.264 N  
HETATM    3  H   UNL     1     -11.123   7.765  72.236  1.00  0.00     0.000 HD 
HETATM    4  C   UNL     1     -10.958   6.232  70.838  1.00  0.00    -0.286 C  
HETATM    5  O   UNL     1     -11.506   5.377  70.171  1.00  0.00     0.369 OA 
ENDROOT
BRANCH   4   6
HETATM    6  C   UNL     1      -9.459   6.385  70.818  1.00  0.00    -0.179 A  
HETATM    7  C   UNL     1      -8.814   7.208  69.869  1.00  0.00    -0.142 A  
HETATM    8  I   UNL     1      -9.995   8.218  68.366  1.00  0.00    -0.243 I  
HETATM    9  C   UNL     1      -7.409   7.415  69.954  1.00  0.00    -0.083 A  
HETATM   10  I   UNL     1      -9.480   3.725  72.365  1.00  0.00    -0.217 I  
HETATM   11  C   UNL     1      -6.748   6.989  71.152  1.00  0.00    -0.056 A  
HETATM   12  I   UNL     1      -5.302   8.473  71.888  1.00  0.00    -0.052 I  
HETATM   13  C   UNL     1      -7.316   6.045  72.067  1.00  0.00    -0.094 A  
HETATM   14  C   UNL     1      -8.671   5.691  71.772  1.00  0.00    -0.136 A  
BRANCH   9  15
HETATM   15  C   UNL     1      -6.637   8.072  68.821  1.00  0.00    -0.049 C  
HETATM   16  N   UNL     1      -6.554   9.453  68.801  1.00  0.00    -0.052 N  
HETATM   17  O   UNL     1      -6.067   7.436  67.948  1.00  0.00    -0.033 OA 
HETATM   18  H   UNL     1      -7.131  10.010  69.430  1.00  0.00     0.000 HD 
BRANCH  16  19
HETATM   19  C   UNL     1      -5.631  10.112  67.869  1.00  0.00    -0.038 C  
BRANCH  19  20
HETATM   20  C   UNL     1      -6.223  11.352  67.162  1.00  0.00    -0.106 C  
HETATM   21  N   UNL     1      -7.303  11.916  67.832  1.00  0.00    -0.096 N  
HETATM   22  O   UNL     1      -5.714  11.822  66.148  1.00  0.00    -0.188 OA 
HETATM   23  H   UNL     1      -7.654  11.462  68.676  1.00  0.00     0.000 HD 
BRANCH  21  24
HETATM   24  C   UNL     1      -7.936  13.115  67.371  1.00  0.00    -0.171 A  
HETATM   25  C   UNL     1      -9.036  13.011  66.489  1.00  0.00    -0.127 A  
HETATM   26  C   UNL     1      -9.708  14.166  66.024  1.00  0.00    -0.297 A  
HETATM   27  I   UNL     1      -9.768  11.058  65.974  1.00  0.00    -0.314 I  
HETATM   28  C   UNL     1     -10.745  13.998  64.955  1.00  0.00    -0.418 C  
HETATM   29  C   UNL     1      -9.314  15.441  66.491  1.00  0.00    -0.282 A  
HETATM   30  I   UNL     1     -10.515  17.167  65.945  1.00  0.00     0.093 I  
HETATM   31  O   UNL     1     -10.502  13.426  63.911  1.00  0.00    -0.253 OA 
HETATM   32  O   UNL     1     -11.972  14.439  65.284  1.00  0.00    -0.368 OA 
HETATM   33  C   UNL     1      -8.175  15.586  67.332  1.00  0.00    -0.199 A  
HETATM   34  I   UNL     1      -5.434  14.570  68.474  1.00  0.00    -0.120 I  
HETATM   35  C   UNL     1      -7.463  14.409  67.717  1.00  0.00    -0.170 A  
BRANCH  33  36
HETATM   36  C   UNL     1      -7.692  16.954  67.707  1.00  0.00    -0.173 C  
HETATM   37  O   UNL     1      -7.749  17.333  68.873  1.00  0.00    -0.258 OA 
HETATM   38  N   UNL     1      -7.181  17.762  66.707  1.00  0.00    -0.192 N  
HETATM   39  H   UNL     1      -7.097  17.397  65.759  1.00  0.00     0.000 HD 
BRANCH  38  40
HETATM   40  C   UNL     1      -6.759  19.134  66.991  1.00  0.00    -0.197 C  
BRANCH  40  41
HETATM   41  C   UNL     1      -7.017  20.059  65.804  1.00  0.00    -0.294 C  
HETATM   42  O   UNL     1      -6.295  21.278  65.972  1.00  0.00    -0.423 OA 
HETATM   43  H   UNL     1      -6.455  21.853  65.233  1.00  0.00     0.000 HD 
ENDBRANCH  40  41
ENDBRANCH  38  40
ENDBRANCH  33  36
ENDBRANCH  21  24
ENDBRANCH  19  20
ENDBRANCH  16  19
ENDBRANCH   9  15
BRANCH  13  44
HETATM   44  N   UNL     1      -6.649   5.560  73.281  1.00  0.00    -0.067 N  
HETATM   45  C   UNL     1      -5.728   4.512  73.449  1.00  0.00    -0.009 C  
HETATM   46  O   UNL     1      -5.187   4.320  74.552  1.00  0.00    -0.004 OA 
HETATM   47  C   UNL     1      -6.943   6.228  74.558  1.00  0.00    -0.090 C  
HETATM   48  C   UNL     1      -5.390   3.540  72.373  1.00  0.00     0.000 C  
ENDBRANCH  13  44
ENDBRANCH   4   6
TORSDOF 9
ENDMDL
MODEL       19
REMARK 921   NORMALIZED FREE ENERGY PREDICTED BY IDOCK:   -3.78 KCAL/MOL
REMARK 922        TOTAL FREE ENERGY PREDICTED BY IDOCK:   -6.88 KCAL/MOL
REMARK 923 INTER-LIGAND FREE ENERGY PREDICTED BY IDOCK:   -6.65 KCAL/MOL
REMARK 924 INTRA-LIGAND FREE ENERGY PREDICTED BY IDOCK:   -0.23 KCAL/MOL
REMARK 927      BINDING AFFINITY PREDICTED BY RF-SCORE:    0.00 PKD
ROOT
HETATM    1  C   UNL     1      -7.137  19.663  68.436  1.00  0.00    -0.309 C  
HETATM    2  N   UNL     1      -7.338  18.247  68.187  1.00  0.00    -0.251 N  
HETATM    3  H   UNL     1      -6.615  17.724  67.692  1.00  0.00     0.000 HD 
HETATM    4  C   UNL     1      -8.481  17.586  68.601  1.00  0.00    -0.258 C  
HETATM    5  O   UNL     1      -9.355  18.119  69.256  1.00  0.00    -0.027 OA 
ENDROOT
BRANCH   4   6
HETATM    6  C   UNL     1      -8.592  16.138  68.198  1.00  0.00    -0.177 A  
HETATM    7  C   UNL     1      -7.679  15.169  68.669  1.00  0.00    -0.126 A  
HETATM    8  I   UNL     1      -6.044  15.785  69.942  1.00  0.00    -0.053 I  
HETATM    9  C   UNL     1      -7.885  13.796  68.357  1.00  0.00    -0.143 A  
HETATM   10  I   UNL     1     -10.217  17.245  65.831  1.00  0.00     0.036 I  
HETATM   11  C   UNL     1      -9.150  13.427  67.797  1.00  0.00    -0.202 A  
HETATM   12  I   UNL     1      -9.966  11.595  68.698  1.00  0.00    -0.038 I  
HETATM   13  C   UNL     1     -10.040  14.366  67.183  1.00  0.00    -0.253 A  
HETATM   14  C   UNL     1      -9.636  15.732  67.327  1.00  0.00    -0.217 A  
BRANCH   9  15
HETATM   15  C   UNL     1      -6.806  12.758  68.617  1.00  0.00    -0.099 C  
HETATM   16  N   UNL     1      -6.525  12.419  69.929  1.00  0.00    -0.344 N  
HETATM   17  O   UNL     1      -6.199  12.191  67.721  1.00  0.00    -0.067 OA 
HETATM   18  H   UNL     1      -6.912  12.971  70.694  1.00  0.00     0.000 HD 
BRANCH  16  19
HETATM   19  C   UNL     1      -5.667  11.263  70.213  1.00  0.00    -0.134 C  
BRANCH  19  20
HETATM   20  C   UNL     1      -6.441   9.954  70.489  1.00  0.00    -0.116 C  
HETATM   21  N   UNL     1      -5.721   8.804  70.183  1.00  0.00    -0.030 N  
HETATM   22  O   UNL     1      -7.553   9.958  71.009  1.00  0.00    -0.255 OA 
HETATM   23  H   UNL     1      -4.796   8.896  69.763  1.00  0.00     0.000 HD 
BRANCH  21  24
HETATM   24  C   UNL     1      -6.242   7.494  70.442  1.00  0.00    -0.034 A  
HETATM   25  C   UNL     1      -6.146   6.967  71.750  1.00  0.00    -0.038 A  
HETATM   26  C   UNL     1      -6.665   5.689  72.059  1.00  0.00    -0.063 A  
HETATM   27  I   UNL     1      -5.323   8.200  73.305  1.00  0.00    -0.059 I  
HETATM   28  C   UNL     1      -6.371   5.114  73.412  1.00  0.00    -0.056 C  
HETATM   29  C   UNL     1      -7.343   4.947  71.063  1.00  0.00    -0.061 A  
HETATM   30  I   UNL     1      -8.332   3.100  71.631  1.00  0.00    -0.097 I  
HETATM   31  O   UNL     1      -5.237   5.020  73.835  1.00  0.00    -0.012 OA 
HETATM   32  O   UNL     1      -7.458   4.809  74.144  1.00  0.00    -0.080 OA 
HETATM   33  C   UNL     1      -7.406   5.423  69.723  1.00  0.00    -0.065 A  
HETATM   34  I   UNL     1      -6.330   7.187  67.361  1.00  0.00    -0.055 I  
HETATM   35  C   UNL     1      -6.797   6.679  69.420  1.00  0.00    -0.065 A  
BRANCH  33  36
HETATM   36  C   UNL     1      -8.009   4.564  68.653  1.00  0.00    -0.078 C  
HETATM   37  O   UNL     1      -7.564   3.442  68.435  1.00  0.00    -0.056 OA 
HETATM   38  N   UNL     1      -9.077   5.071  67.934  1.00  0.00    -0.111 N  
HETATM   39  H   UNL     1      -9.458   5.985  68.178  1.00  0.00     0.000 HD 
BRANCH  38  40
HETATM   40  C   UNL     1      -9.667   4.315  66.830  1.00  0.00    -0.214 C  
BRANCH  40  41
HETATM   41  C   UNL     1     -10.673   5.156  66.046  1.00  0.00    -0.140 C  
HETATM   42  O   UNL     1     -11.325   4.347  65.068  1.00  0.00    -1.040 OA 
HETATM   43  H   UNL     1     -11.950   4.870  64.581  1.00  0.00     0.000 HD 
ENDBRANCH  40  41
ENDBRANCH  38  40
ENDBRANCH  33  36
ENDBRANCH  21  24
ENDBRANCH  19  20
ENDBRANCH  16  19
ENDBRANCH   9  15
BRANCH  13  44
HETATM   44  N   UNL     1     -11.325  14.014  66.567  1.00  0.00    -0.325 N  
HETATM   45  C   UNL     1     -11.596  13.364  65.350  1.00  0.00    -0.314 C  
HETATM   46  O   UNL     1     -12.762  13.056  65.048  1.00  0.00    -0.622 OA 
HETATM   47  C   UNL     1     -12.564  14.363  67.278  1.00  0.00     0.425 C  
HETATM   48  C   UNL     1     -10.551  13.066  64.332  1.00  0.00    -0.429 C  
ENDBRANCH  13  44
ENDBRANCH   4   6
TORSDOF 9
ENDMDL
MODEL       20
REMARK 921   NORMALIZED FREE ENERGY PREDICTED BY IDOCK:   -3.61 KCAL/MOL
REMARK 922        TOTAL FREE ENERGY PREDICTED BY IDOCK:   -6.62 KCAL/MOL
REMARK 923 INTER-LIGAND FREE ENERGY PREDICTED BY IDOCK:   -6.34 KCAL/MOL
REMARK 924 INTRA-LIGAND FREE ENERGY PREDICTED BY IDOCK:   -0.29 KCAL/MOL
REMARK 927      BINDING AFFINITY PREDICTED BY RF-SCORE:    0.00 PKD
ROOT
HETATM    1  C   UNL     1     -14.138  15.384  71.512  1.00  0.00    -0.491 C  
HETATM    2  N   UNL     1     -13.233  15.038  70.432  1.00  0.00    -0.655 N  
HETATM    3  H   UNL     1     -13.253  15.590  69.573  1.00  0.00     0.000 HD 
HETATM    4  C   UNL     1     -12.343  13.983  70.531  1.00  0.00    -0.367 C  
HETATM    5  O   UNL     1     -12.207  13.323  71.543  1.00  0.00    -0.115 OA 
ENDROOT
BRANCH   4   6
HETATM    6  C   UNL     1     -11.526  13.686  69.300  1.00  0.00    -0.344 A  
HETATM    7  C   UNL     1     -11.471  12.388  68.746  1.00  0.00    -0.304 A  
HETATM    8  I   UNL     1     -12.525  10.774  69.724  1.00  0.00     0.284 I  
HETATM    9  C   UNL     1     -10.781  12.173  67.520  1.00  0.00    -0.265 A  
HETATM   10  I   UNL     1     -10.009  16.251  70.068  1.00  0.00     0.856 I  
HETATM   11  C   UNL     1     -10.394  13.328  66.767  1.00  0.00    -0.257 A  
HETATM   12  I   UNL     1     -10.801  13.107  64.618  1.00  0.00    -0.459 I  
HETATM   13  C   UNL     1     -10.302  14.640  67.335  1.00  0.00    -0.241 A  
HETATM   14  C   UNL     1     -10.795  14.730  68.676  1.00  0.00    -0.253 A  
BRANCH   9  15
HETATM   15  C   UNL     1     -10.476  10.770  67.022  1.00  0.00    -0.247 C  
HETATM   16  N   UNL     1      -9.153  10.424  66.810  1.00  0.00    -0.143 N  
HETATM   17  O   UNL     1     -11.341   9.929  66.830  1.00  0.00     0.096 OA 
HETATM   18  H   UNL     1      -8.428  11.140  66.826  1.00  0.00     0.000 HD 
BRANCH  16  19
HETATM   19  C   UNL     1      -8.801   9.022  66.559  1.00  0.00    -0.135 C  
BRANCH  19  20
HETATM   20  C   UNL     1      -8.109   8.320  67.750  1.00  0.00    -0.127 C  
HETATM   21  N   UNL     1      -8.767   7.175  68.184  1.00  0.00    -0.128 N  
HETATM   22  O   UNL     1      -7.034   8.714  68.196  1.00  0.00    -0.071 OA 
HETATM   23  H   UNL     1      -9.652   6.916  67.746  1.00  0.00     0.000 HD 
BRANCH  21  24
HETATM   24  C   UNL     1      -8.237   6.348  69.227  1.00  0.00    -0.115 A  
HETATM   25  C   UNL     1      -7.956   4.991  68.946  1.00  0.00    -0.081 A  
HETATM   26  C   UNL     1      -7.412   4.141  69.937  1.00  0.00    -0.049 A  
HETATM   27  I   UNL     1      -8.233   4.270  66.942  1.00  0.00    -0.100 I  
HETATM   28  C   UNL     1      -7.306   2.677  69.632  1.00  0.00    -0.044 C  
HETATM   29  C   UNL     1      -7.089   4.664  71.210  1.00  0.00    -0.047 A  
HETATM   30  I   UNL     1      -6.039   3.394  72.624  1.00  0.00    -0.010 I  
HETATM   31  O   UNL     1      -8.265   2.030  69.261  1.00  0.00    -0.044 OA 
HETATM   32  O   UNL     1      -6.062   2.172  69.707  1.00  0.00    -0.023 OA 
HETATM   33  C   UNL     1      -7.415   6.010  71.544  1.00  0.00    -0.094 A  
HETATM   34  I   UNL     1      -9.087   8.634  71.136  1.00  0.00    -0.328 I  
HETATM   35  C   UNL     1      -8.042   6.822  70.551  1.00  0.00    -0.116 A  
BRANCH  33  36
HETATM   36  C   UNL     1      -7.189   6.508  72.939  1.00  0.00    -0.082 C  
HETATM   37  O   UNL     1      -7.884   6.099  73.863  1.00  0.00    -0.097 OA 
HETATM   38  N   UNL     1      -6.177   7.429  73.148  1.00  0.00    -0.059 N  
HETATM   39  H   UNL     1      -5.581   7.706  72.367  1.00  0.00     0.000 HD 
BRANCH  38  40
HETATM   40  C   UNL     1      -5.949   8.009  74.470  1.00  0.00    -0.093 C  
BRANCH  40  41
HETATM   41  C   UNL     1      -5.613   9.497  74.381  1.00  0.00    -0.030 C  
HETATM   42  O   UNL     1      -5.775   9.952  73.038  1.00  0.00    -0.305 OA 
HETATM   43  H   UNL     1      -5.567  10.877  72.983  1.00  0.00     0.000 HD 
ENDBRANCH  40  41
ENDBRANCH  38  40
ENDBRANCH  33  36
ENDBRANCH  21  24
ENDBRANCH  19  20
ENDBRANCH  16  19
ENDBRANCH   9  15
BRANCH  13  44
HETATM   44  N   UNL     1      -9.872  15.835  66.601  1.00  0.00    -0.242 N  
HETATM   45  C   UNL     1      -8.578  16.309  66.323  1.00  0.00    -0.339 C  
HETATM   46  O   UNL     1      -8.414  17.296  65.585  1.00  0.00    -0.475 OA 
HETATM   47  C   UNL     1     -10.901  16.723  66.039  1.00  0.00    -0.026 C  
HETATM   48  C   UNL     1      -7.347  15.725  66.925  1.00  0.00    -0.174 C  
ENDBRANCH  13  44
ENDBRANCH   4   6
TORSDOF 9
ENDMDL
MODEL       21
REMARK 921   NORMALIZED FREE ENERGY PREDICTED BY IDOCK:   -3.36 KCAL/MOL
REMARK 922        TOTAL FREE ENERGY PREDICTED BY IDOCK:   -6.25 KCAL/MOL
REMARK 923 INTER-LIGAND FREE ENERGY PREDICTED BY IDOCK:   -6.15 KCAL/MOL
REMARK 924 INTRA-LIGAND FREE ENERGY PREDICTED BY IDOCK:   -0.10 KCAL/MOL
REMARK 927      BINDING AFFINITY PREDICTED BY RF-SCORE:    0.00 PKD
ROOT
HETATM    1  C   UNL     1     -13.257   6.609  71.237  1.00  0.00     0.126 C  
HETATM    2  N   UNL     1     -12.027   7.087  70.634  1.00  0.00    -0.505 N  
HETATM    3  H   UNL     1     -12.018   8.004  70.187  1.00  0.00     0.000 HD 
HETATM    4  C   UNL     1     -10.864   6.335  70.648  1.00  0.00    -0.280 C  
HETATM    5  O   UNL     1     -10.773   5.266  71.221  1.00  0.00    -0.210 OA 
ENDROOT
BRANCH   4   6
HETATM    6  C   UNL     1      -9.688   6.919  69.910  1.00  0.00    -0.165 A  
HETATM    7  C   UNL     1      -8.807   7.832  70.530  1.00  0.00    -0.145 A  
HETATM    8  I   UNL     1      -9.191   8.460  72.562  1.00  0.00    -0.106 I  
HETATM    9  C   UNL     1      -7.645   8.272  69.836  1.00  0.00    -0.080 A  
HETATM   10  I   UNL     1     -11.282   6.146  67.394  1.00  0.00     0.786 I  
HETATM   11  C   UNL     1      -7.283   7.572  68.640  1.00  0.00    -0.086 A  
HETATM   12  I   UNL     1      -5.126   7.161  68.528  1.00  0.00    -0.018 I  
HETATM   13  C   UNL     1      -8.196   6.749  67.907  1.00  0.00    -0.117 A  
HETATM   14  C   UNL     1      -9.453   6.547  68.561  1.00  0.00    -0.121 A  
BRANCH   9  15
HETATM   15  C   UNL     1      -6.814   9.437  70.350  1.00  0.00    -0.089 C  
HETATM   16  N   UNL     1      -6.169  10.239  69.425  1.00  0.00    -0.045 N  
HETATM   17  O   UNL     1      -6.714   9.710  71.536  1.00  0.00    -0.316 OA 
HETATM   18  H   UNL     1      -6.120   9.956  68.447  1.00  0.00     0.000 HD 
BRANCH  16  19
HETATM   19  C   UNL     1      -5.557  11.500  69.860  1.00  0.00    -0.088 C  
BRANCH  19  20
HETATM   20  C   UNL     1      -6.456  12.742  69.664  1.00  0.00    -0.046 C  
HETATM   21  N   UNL     1      -6.623  13.107  68.333  1.00  0.00    -0.082 N  
HETATM   22  O   UNL     1      -7.024  13.284  70.608  1.00  0.00     0.807 OA 
HETATM   23  H   UNL     1      -6.120  12.592  67.611  1.00  0.00     0.000 HD 
BRANCH  21  24
HETATM   24  C   UNL     1      -7.483  14.187  67.947  1.00  0.00    -0.152 A  
HETATM   25  C   UNL     1      -7.072  15.514  68.209  1.00  0.00    -0.114 A  
HETATM   26  C   UNL     1      -7.876  16.612  67.827  1.00  0.00    -0.175 A  
HETATM   27  I   UNL     1      -5.132  15.846  69.071  1.00  0.00    -0.103 I  
HETATM   28  C   UNL     1      -7.472  17.980  68.293  1.00  0.00    -0.266 C  
HETATM   29  C   UNL     1      -9.081  16.389  67.122  1.00  0.00    -0.205 A  
HETATM   30  I   UNL     1     -10.168  18.100  66.345  1.00  0.00    -0.288 I  
HETATM   31  O   UNL     1      -7.275  18.224  69.465  1.00  0.00    -0.057 OA 
HETATM   32  O   UNL     1      -7.256  18.871  67.308  1.00  0.00    -0.212 OA 
HETATM   33  C   UNL     1      -9.552  15.064  66.895  1.00  0.00    -0.251 A  
HETATM   34  I   UNL     1      -9.656  12.007  67.596  1.00  0.00    -0.211 I  
HETATM   35  C   UNL     1      -8.761  13.973  67.367  1.00  0.00    -0.207 A  
BRANCH  33  36
HETATM   36  C   UNL     1     -10.895  14.848  66.266  1.00  0.00    -0.331 C  
HETATM   37  O   UNL     1     -11.915  14.913  66.945  1.00  0.00    -0.279 OA 
HETATM   38  N   UNL     1     -10.945  14.582  64.908  1.00  0.00    -0.395 N  
HETATM   39  H   UNL     1     -10.082  14.590  64.363  1.00  0.00     0.000 HD 
BRANCH  38  40
HETATM   40  C   UNL     1     -12.215  14.291  64.245  1.00  0.00    -0.423 C  
BRANCH  40  41
HETATM   41  C   UNL     1     -12.249  12.865  63.698  1.00  0.00    -0.499 C  
HETATM   42  O   UNL     1     -13.260  12.112  64.366  1.00  0.00    -0.758 OA 
HETATM   43  H   UNL     1     -13.282  11.226  64.026  1.00  0.00     0.000 HD 
ENDBRANCH  40  41
ENDBRANCH  38  40
ENDBRANCH  33  36
ENDBRANCH  21  24
ENDBRANCH  19  20
ENDBRANCH  16  19
ENDBRANCH   9  15
BRANCH  13  44
HETATM   44  N   UNL     1      -7.867   6.050  66.659  1.00  0.00    -0.100 N  
HETATM   45  C   UNL     1      -7.826   6.529  65.338  1.00  0.00    -0.106 C  
HETATM   46  O   UNL     1      -7.416   5.801  64.417  1.00  0.00    -0.065 OA 
HETATM   47  C   UNL     1      -7.513   4.624  66.725  1.00  0.00    -0.086 C  
HETATM   48  C   UNL     1      -8.320   7.877  64.942  1.00  0.00    -0.087 C  
ENDBRANCH  13  44
ENDBRANCH   4   6
TORSDOF 9
ENDMDL
MODEL       22
REMARK 921   NORMALIZED FREE ENERGY PREDICTED BY IDOCK:   -3.31 KCAL/MOL
REMARK 922        TOTAL FREE ENERGY PREDICTED BY IDOCK:   -6.17 KCAL/MOL
REMARK 923 INTER-LIGAND FREE ENERGY PREDICTED BY IDOCK:   -5.62 KCAL/MOL
REMARK 924 INTRA-LIGAND FREE ENERGY PREDICTED BY IDOCK:   -0.55 KCAL/MOL
REMARK 927      BINDING AFFINITY PREDICTED BY RF-SCORE:    0.00 PKD
ROOT
HETATM    1  C   UNL     1     -14.384  14.649  71.763  1.00  0.00    -0.554 C  
HETATM    2  N   UNL     1     -13.500  14.720  70.614  1.00  0.00    -0.587 N  
HETATM    3  H   UNL     1     -13.688  15.409  69.886  1.00  0.00     0.000 HD 
HETATM    4  C   UNL     1     -12.408  13.880  70.478  1.00  0.00    -0.369 C  
HETATM    5  O   UNL     1     -12.075  13.081  71.332  1.00  0.00     0.009 OA 
ENDROOT
BRANCH   4   6
HETATM    6  C   UNL     1     -11.629  14.008  69.194  1.00  0.00    -0.356 A  
HETATM    7  C   UNL     1     -11.461  12.910  68.321  1.00  0.00    -0.311 A  
HETATM    8  I   UNL     1     -12.278  10.986  68.869  1.00  0.00     0.740 I  
HETATM    9  C   UNL     1     -10.817  13.101  67.066  1.00  0.00    -0.278 A  
HETATM   10  I   UNL     1     -10.366  16.454  70.569  1.00  0.00     1.373 I  
HETATM   11  C   UNL     1     -10.599  14.448  66.631  1.00  0.00    -0.282 A  
HETATM   12  I   UNL     1     -11.091  14.735  64.508  1.00  0.00     0.140 I  
HETATM   13  C   UNL     1     -10.623  15.572  67.518  1.00  0.00    -0.297 A  
HETATM   14  C   UNL     1     -11.051  15.256  68.847  1.00  0.00    -0.266 A  
BRANCH   9  15
HETATM   15  C   UNL     1     -10.385  11.918  66.214  1.00  0.00    -0.224 C  
HETATM   16  N   UNL     1      -9.153  11.343  66.469  1.00  0.00    -0.180 N  
HETATM   17  O   UNL     1     -11.087  11.439  65.337  1.00  0.00    -0.231 OA 
HETATM   18  H   UNL     1      -8.492  11.803  67.094  1.00  0.00     0.000 HD 
BRANCH  16  19
HETATM   19  C   UNL     1      -8.803  10.066  65.835  1.00  0.00    -0.144 C  
BRANCH  19  20
HETATM   20  C   UNL     1      -9.169   8.821  66.675  1.00  0.00    -0.177 C  
HETATM   21  N   UNL     1      -8.071   8.193  67.252  1.00  0.00    -0.119 N  
HETATM   22  O   UNL     1     -10.336   8.490  66.866  1.00  0.00    -0.287 OA 
HETATM   23  H   UNL     1      -7.135   8.543  67.046  1.00  0.00     0.000 HD 
BRANCH  21  24
HETATM   24  C   UNL     1      -8.216   7.067  68.126  1.00  0.00    -0.120 A  
HETATM   25  C   UNL     1      -8.340   5.776  67.563  1.00  0.00    -0.104 A  
HETATM   26  C   UNL     1      -8.464   4.633  68.386  1.00  0.00    -0.094 A  
HETATM   27  I   UNL     1      -8.193   5.559  65.431  1.00  0.00    -0.144 I  
HETATM   28  C   UNL     1      -8.772   3.320  67.730  1.00  0.00    -0.112 C  
HETATM   29  C   UNL     1      -8.405   4.771  69.792  1.00  0.00    -0.075 A  
HETATM   30  I   UNL     1      -8.359   2.977  71.015  1.00  0.00    -0.113 I  
HETATM   31  O   UNL     1      -9.722   3.184  66.987  1.00  0.00    -0.081 OA 
HETATM   32  O   UNL     1      -7.867   2.350  67.954  1.00  0.00    -0.059 OA 
HETATM   33  C   UNL     1      -8.341   6.060  70.392  1.00  0.00    -0.124 A  
HETATM   34  I   UNL     1      -8.797   9.165  70.330  1.00  0.00    -0.296 I  
HETATM   35  C   UNL     1      -8.303   7.204  69.537  1.00  0.00    -0.133 A  
BRANCH  33  36
HETATM   36  C   UNL     1      -8.415   6.195  71.882  1.00  0.00    -0.129 C  
HETATM   37  O   UNL     1      -7.389   6.223  72.554  1.00  0.00    -0.084 OA 
HETATM   38  N   UNL     1      -9.666   6.294  72.467  1.00  0.00    -0.156 N  
HETATM   39  H   UNL     1     -10.496   6.323  71.876  1.00  0.00     0.000 HD 
BRANCH  38  40
HETATM   40  C   UNL     1      -9.813   6.356  73.921  1.00  0.00    -0.234 C  
BRANCH  40  41
HETATM   41  C   UNL     1     -10.341   5.040  74.489  1.00  0.00    -0.278 C  
HETATM   42  O   UNL     1     -10.592   4.119  73.428  1.00  0.00    -0.164 OA 
HETATM   43  H   UNL     1     -10.920   3.300  73.782  1.00  0.00     0.000 HD 
ENDBRANCH  40  41
ENDBRANCH  38  40
ENDBRANCH  33  36
ENDBRANCH  21  24
ENDBRANCH  19  20
ENDBRANCH  16  19
ENDBRANCH   9  15
BRANCH  13  44
HETATM   44  N   UNL     1     -10.366  16.958  67.111  1.00  0.00    -0.304 N  
HETATM   45  C   UNL     1      -9.252  17.518  66.460  1.00  0.00    -0.267 C  
HETATM   46  O   UNL     1      -9.267  18.708  66.100  1.00  0.00    -0.453 OA 
HETATM   47  C   UNL     1     -11.390  17.975  67.394  1.00  0.00     0.651 C  
HETATM   48  C   UNL     1      -7.985  16.773  66.221  1.00  0.00    -0.352 C  
ENDBRANCH  13  44
ENDBRANCH   4   6
TORSDOF 9
ENDMDL
MODEL       23
REMARK 921   NORMALIZED FREE ENERGY PREDICTED BY IDOCK:   -3.08 KCAL/MOL
REMARK 922        TOTAL FREE ENERGY PREDICTED BY IDOCK:   -5.82 KCAL/MOL
REMARK 923 INTER-LIGAND FREE ENERGY PREDICTED BY IDOCK:   -5.99 KCAL/MOL
REMARK 924 INTRA-LIGAND FREE ENERGY PREDICTED BY IDOCK:    0.17 KCAL/MOL
REMARK 927      BINDING AFFINITY PREDICTED BY RF-SCORE:    0.00 PKD
ROOT
HETATM    1  C   UNL     1      -9.095   3.661  65.991  1.00  0.00    -0.155 C  
HETATM    2  N   UNL     1      -8.967   4.409  67.228  1.00  0.00    -0.115 N  
HETATM    3  H   UNL     1      -8.665   5.383  67.189  1.00  0.00     0.000 HD 
HETATM    4  C   UNL     1      -9.241   3.839  68.460  1.00  0.00    -0.156 C  
HETATM    5  O   UNL     1      -9.672   2.710  68.587  1.00  0.00    -0.087 OA 
ENDROOT
BRANCH   4   6
HETATM    6  C   UNL     1      -8.982   4.707  69.664  1.00  0.00    -0.140 A  
HETATM    7  C   UNL     1      -9.648   5.940  69.842  1.00  0.00    -0.158 A  
HETATM    8  I   UNL     1     -11.018   6.632  68.321  1.00  0.00    -0.152 I  
HETATM    9  C   UNL     1      -9.460   6.675  71.046  1.00  0.00    -0.168 A  
HETATM   10  I   UNL     1      -6.350   3.124  69.850  1.00  0.00    -0.029 I  
HETATM   11  C   UNL     1      -8.808   6.009  72.134  1.00  0.00    -0.135 A  
HETATM   12  I   UNL     1      -9.802   6.375  74.060  1.00  0.00    -0.378 I  
HETATM   13  C   UNL     1      -8.007   4.835  71.967  1.00  0.00    -0.105 A  
HETATM   14  C   UNL     1      -8.051   4.282  70.646  1.00  0.00    -0.063 A  
BRANCH   9  15
HETATM   15  C   UNL     1      -9.942   8.111  71.177  1.00  0.00    -0.180 C  
HETATM   16  N   UNL     1     -11.304   8.351  71.127  1.00  0.00    -0.261 N  
HETATM   17  O   UNL     1      -9.185   9.053  71.352  1.00  0.00    -0.247 OA 
HETATM   18  H   UNL     1     -11.945   7.610  70.844  1.00  0.00     0.000 HD 
BRANCH  16  19
HETATM   19  C   UNL     1     -11.821   9.678  71.483  1.00  0.00    -0.407 C  
BRANCH  19  20
HETATM   20  C   UNL     1     -12.013  10.626  70.278  1.00  0.00    -0.339 C  
HETATM   21  N   UNL     1     -10.870  11.344  69.943  1.00  0.00    -0.447 N  
HETATM   22  O   UNL     1     -13.064  10.660  69.643  1.00  0.00    -0.052 OA 
HETATM   23  H   UNL     1     -10.036  11.246  70.522  1.00  0.00     0.000 HD 
BRANCH  21  24
HETATM   24  C   UNL     1     -10.831  12.218  68.808  1.00  0.00    -0.229 A  
HETATM   25  C   UNL     1     -10.481  11.684  67.547  1.00  0.00    -0.200 A  
HETATM   26  C   UNL     1     -10.451  12.502  66.394  1.00  0.00    -0.269 A  
HETATM   27  I   UNL     1     -10.133   9.571  67.378  1.00  0.00    -0.317 I  
HETATM   28  C   UNL     1      -9.898  11.919  65.128  1.00  0.00    -0.218 C  
HETATM   29  C   UNL     1     -10.831  13.861  66.488  1.00  0.00    -0.295 A  
HETATM   30  I   UNL     1     -11.001  15.024  64.662  1.00  0.00     0.074 I  
HETATM   31  O   UNL     1      -8.799  11.405  65.086  1.00  0.00    -0.057 OA 
HETATM   32  O   UNL     1     -10.749  11.925  64.085  1.00  0.00    -0.294 OA 
HETATM   33  C   UNL     1     -11.131  14.444  67.752  1.00  0.00    -0.299 A  
HETATM   34  I   UNL     1     -10.927  14.517  70.882  1.00  0.00     1.160 I  
HETATM   35  C   UNL     1     -11.071  13.614  68.913  1.00  0.00    -0.256 A  
BRANCH  33  36
HETATM   36  C   UNL     1     -11.401  15.915  67.850  1.00  0.00    -0.252 C  
HETATM   37  O   UNL     1     -12.530  16.322  68.103  1.00  0.00     0.854 OA 
HETATM   38  N   UNL     1     -10.343  16.786  67.657  1.00  0.00    -0.300 N  
HETATM   39  H   UNL     1      -9.406  16.414  67.503  1.00  0.00     0.000 HD 
BRANCH  38  40
HETATM   40  C   UNL     1     -10.550  18.234  67.668  1.00  0.00    -0.405 C  
BRANCH  40  41
HETATM   41  C   UNL     1      -9.280  18.981  68.070  1.00  0.00    -0.310 C  
HETATM   42  O   UNL     1      -9.261  20.271  67.459  1.00  0.00    -0.357 OA 
HETATM   43  H   UNL     1      -8.471  20.735  67.709  1.00  0.00     0.000 HD 
ENDBRANCH  40  41
ENDBRANCH  38  40
ENDBRANCH  33  36
ENDBRANCH  21  24
ENDBRANCH  19  20
ENDBRANCH  16  19
ENDBRANCH   9  15
BRANCH  13  44
HETATM   44  N   UNL     1      -7.296   4.152  73.053  1.00  0.00    -0.068 N  
HETATM   45  C   UNL     1      -7.610   2.962  73.733  1.00  0.00    -0.052 C  
HETATM   46  O   UNL     1      -6.817   2.482  74.562  1.00  0.00    -0.028 OA 
HETATM   47  C   UNL     1      -6.050   4.748  73.561  1.00  0.00    -0.030 C  
HETATM   48  C   UNL     1      -8.904   2.245  73.568  1.00  0.00    -0.069 C  
ENDBRANCH  13  44
ENDBRANCH   4   6
TORSDOF 9
ENDMDL
MODEL       24
REMARK 921   NORMALIZED FREE ENERGY PREDICTED BY IDOCK:   -3.05 KCAL/MOL
REMARK 922        TOTAL FREE ENERGY PREDICTED BY IDOCK:   -5.78 KCAL/MOL
REMARK 923 INTER-LIGAND FREE ENERGY PREDICTED BY IDOCK:   -5.16 KCAL/MOL
REMARK 924 INTRA-LIGAND FREE ENERGY PREDICTED BY IDOCK:   -0.62 KCAL/MOL
REMARK 927      BINDING AFFINITY PREDICTED BY RF-SCORE:    0.00 PKD
ROOT
HETATM    1  C   UNL     1     -13.063  11.844  72.148  1.00  0.00    -0.222 C  
HETATM    2  N   UNL     1     -12.211  12.349  71.087  1.00  0.00    -0.317 N  
HETATM    3  H   UNL     1     -11.328  11.875  70.895  1.00  0.00     0.000 HD 
HETATM    4  C   UNL     1     -12.561  13.453  70.330  1.00  0.00    -0.117 C  
HETATM    5  O   UNL     1     -13.625  14.029  70.449  1.00  0.00     0.245 OA 
ENDROOT
BRANCH   4   6
HETATM    6  C   UNL     1     -11.541  13.916  69.322  1.00  0.00    -0.358 A  
HETATM    7  C   UNL     1     -11.055  13.054  68.315  1.00  0.00    -0.263 A  
HETATM    8  I   UNL     1     -11.735  11.003  68.258  1.00  0.00     0.112 I  
HETATM    9  C   UNL     1     -10.178  13.561  67.316  1.00  0.00    -0.242 A  
HETATM   10  I   UNL     1     -10.913  16.081  71.418  1.00  0.00     0.802 I  
HETATM   11  C   UNL     1     -10.033  14.983  67.222  1.00  0.00    -0.233 A  
HETATM   12  I   UNL     1     -10.078  15.697  65.143  1.00  0.00     0.376 I  
HETATM   13  C   UNL     1     -10.386  15.879  68.282  1.00  0.00    -0.242 A  
HETATM   14  C   UNL     1     -11.054  15.248  69.379  1.00  0.00    -0.280 A  
BRANCH   9  15
HETATM   15  C   UNL     1      -9.432  12.630  66.374  1.00  0.00    -0.231 C  
HETATM   16  N   UNL     1      -8.171  12.197  66.746  1.00  0.00    -0.341 N  
HETATM   17  O   UNL     1      -9.906  12.226  65.323  1.00  0.00    -0.250 OA 
HETATM   18  H   UNL     1      -7.697  12.623  67.542  1.00  0.00     0.000 HD 
BRANCH  16  19
HETATM   19  C   UNL     1      -7.520  11.122  65.988  1.00  0.00     0.036 C  
BRANCH  19  20
HETATM   20  C   UNL     1      -7.334   9.810  66.784  1.00  0.00    -0.091 C  
HETATM   21  N   UNL     1      -8.485   9.034  66.861  1.00  0.00    -0.118 N  
HETATM   22  O   UNL     1      -6.238   9.470  67.223  1.00  0.00    -0.062 OA 
HETATM   23  H   UNL     1      -9.351   9.391  66.457  1.00  0.00     0.000 HD 
BRANCH  21  24
HETATM   24  C   UNL     1      -8.489   7.748  67.493  1.00  0.00    -0.120 A  
HETATM   25  C   UNL     1      -8.575   7.679  68.902  1.00  0.00    -0.129 A  
HETATM   26  C   UNL     1      -8.605   6.432  69.569  1.00  0.00    -0.133 A  
HETATM   27  I   UNL     1      -8.807   9.502  70.015  1.00  0.00    -0.227 I  
HETATM   28  C   UNL     1      -8.515   6.429  71.066  1.00  0.00    -0.127 C  
HETATM   29  C   UNL     1      -8.608   5.235  68.817  1.00  0.00    -0.091 A  
HETATM   30  I   UNL     1      -8.894   3.351  69.859  1.00  0.00    -0.204 I  
HETATM   31  O   UNL     1      -7.615   6.993  71.653  1.00  0.00    -0.087 OA 
HETATM   32  O   UNL     1      -9.550   5.842  71.693  1.00  0.00    -0.152 OA 
HETATM   33  C   UNL     1      -8.462   5.267  67.402  1.00  0.00    -0.106 A  
HETATM   34  I   UNL     1      -7.544   6.668  64.747  1.00  0.00    -0.118 I  
HETATM   35  C   UNL     1      -8.348   6.539  66.761  1.00  0.00    -0.111 A  
BRANCH  33  36
HETATM   36  C   UNL     1      -8.331   3.986  66.635  1.00  0.00    -0.104 C  
HETATM   37  O   UNL     1      -7.260   3.388  66.606  1.00  0.00    -0.064 OA 
HETATM   38  N   UNL     1      -9.447   3.504  65.975  1.00  0.00    -0.281 N  
HETATM   39  H   UNL     1     -10.336   3.997  66.064  1.00  0.00     0.000 HD 
BRANCH  38  40
HETATM   40  C   UNL     1      -9.371   2.299  65.150  1.00  0.00    -0.053 C  
BRANCH  40  41
HETATM   41  C   UNL     1      -9.901   2.548  63.739  1.00  0.00    -0.140 C  
HETATM   42  O   UNL     1     -11.313   2.343  63.708  1.00  0.00    -0.623 OA 
HETATM   43  H   UNL     1     -11.643   2.499  62.831  1.00  0.00     0.000 HD 
ENDBRANCH  40  41
ENDBRANCH  38  40
ENDBRANCH  33  36
ENDBRANCH  21  24
ENDBRANCH  19  20
ENDBRANCH  16  19
ENDBRANCH   9  15
BRANCH  13  44
HETATM   44  N   UNL     1     -10.213  17.335  68.232  1.00  0.00    -0.326 N  
HETATM   45  C   UNL     1      -9.044  18.111  68.316  1.00  0.00    -0.300 C  
HETATM   46  O   UNL     1      -9.092  19.341  68.143  1.00  0.00    -0.308 OA 
HETATM   47  C   UNL     1     -11.408  18.179  68.067  1.00  0.00     0.714 C  
HETATM   48  C   UNL     1      -7.714  17.547  68.675  1.00  0.00    -0.275 C  
ENDBRANCH  13  44
ENDBRANCH   4   6
TORSDOF 9
ENDMDL
MODEL       25
REMARK 921   NORMALIZED FREE ENERGY PREDICTED BY IDOCK:   -2.31 KCAL/MOL
REMARK 922        TOTAL FREE ENERGY PREDICTED BY IDOCK:   -4.64 KCAL/MOL
REMARK 923 INTER-LIGAND FREE ENERGY PREDICTED BY IDOCK:   -6.00 KCAL/MOL
REMARK 924 INTRA-LIGAND FREE ENERGY PREDICTED BY IDOCK:    1.35 KCAL/MOL
REMARK 927      BINDING AFFINITY PREDICTED BY RF-SCORE:    0.00 PKD
ROOT
HETATM    1  C   UNL     1      -6.884  18.864  67.721  1.00  0.00    -0.207 C  
HETATM    2  N   UNL     1      -7.273  17.537  67.282  1.00  0.00    -0.166 N  
HETATM    3  H   UNL     1      -7.272  17.326  66.283  1.00  0.00     0.000 HD 
HETATM    4  C   UNL     1      -7.644  16.549  68.177  1.00  0.00    -0.161 C  
HETATM    5  O   UNL     1      -7.604  16.697  69.383  1.00  0.00    -0.201 OA 
ENDROOT
BRANCH   4   6
HETATM    6  C   UNL     1      -8.105  15.247  67.574  1.00  0.00    -0.192 A  
HETATM    7  C   UNL     1      -7.322  14.075  67.662  1.00  0.00    -0.175 A  
HETATM    8  I   UNL     1      -5.386  14.164  68.619  1.00  0.00    -0.110 I  
HETATM    9  C   UNL     1      -7.843  12.842  67.179  1.00  0.00    -0.097 A  
HETATM   10  I   UNL     1      -9.911  17.045  65.849  1.00  0.00     0.054 I  
HETATM   11  C   UNL     1      -9.239  12.790  66.864  1.00  0.00    -0.229 A  
HETATM   12  I   UNL     1     -10.202  10.959  67.608  1.00  0.00    -0.258 I  
HETATM   13  C   UNL     1     -10.033  13.958  66.630  1.00  0.00    -0.279 A  
HETATM   14  C   UNL     1      -9.355  15.189  66.905  1.00  0.00    -0.234 A  
BRANCH   9  15
HETATM   15  C   UNL     1      -6.953  11.620  67.015  1.00  0.00    -0.144 C  
HETATM   16  N   UNL     1      -6.575  10.928  68.151  1.00  0.00    -0.061 N  
HETATM   17  O   UNL     1      -6.583  11.209  65.925  1.00  0.00    -0.045 OA 
HETATM   18  H   UNL     1      -6.750  11.324  69.074  1.00  0.00     0.000 HD 
BRANCH  16  19
HETATM   19  C   UNL     1      -5.920   9.621  68.021  1.00  0.00    -0.043 C  
BRANCH  19  20
HETATM   20  C   UNL     1      -6.885   8.417  68.112  1.00  0.00    -0.069 C  
HETATM   21  N   UNL     1      -6.261   7.186  67.942  1.00  0.00    -0.041 N  
HETATM   22  O   UNL     1      -8.072   8.560  68.392  1.00  0.00    -0.119 OA 
HETATM   23  H   UNL     1      -5.265   7.162  67.722  1.00  0.00     0.000 HD 
BRANCH  21  24
HETATM   24  C   UNL     1      -6.977   5.951  68.068  1.00  0.00    -0.069 A  
HETATM   25  C   UNL     1      -7.606   5.407  66.924  1.00  0.00    -0.089 A  
HETATM   26  C   UNL     1      -8.305   4.180  66.994  1.00  0.00    -0.100 A  
HETATM   27  I   UNL     1      -7.362   6.403  65.036  1.00  0.00    -0.096 I  
HETATM   28  C   UNL     1      -9.099   3.750  65.797  1.00  0.00    -0.149 C  
HETATM   29  C   UNL     1      -8.330   3.455  68.207  1.00  0.00    -0.082 A  
HETATM   30  I   UNL     1      -9.207   1.468  68.216  1.00  0.00    -0.204 I  
HETATM   31  O   UNL     1      -9.932   4.472  65.288  1.00  0.00    -0.187 OA 
HETATM   32  O   UNL     1      -8.746   2.558  65.283  1.00  0.00    -0.105 OA 
HETATM   33  C   UNL     1      -7.758   4.002  69.391  1.00  0.00    -0.053 A  
HETATM   34  I   UNL     1      -6.778   6.429  71.122  1.00  0.00    -0.061 I  
HETATM   35  C   UNL     1      -7.132   5.283  69.311  1.00  0.00    -0.057 A  
BRANCH  33  36
HETATM   36  C   UNL     1      -7.911   3.282  70.696  1.00  0.00    -0.046 C  
HETATM   37  O   UNL     1      -6.927   2.834  71.275  1.00  0.00    -0.031 OA 
HETATM   38  N   UNL     1      -9.184   3.147  71.222  1.00  0.00    -0.110 N  
HETATM   39  H   UNL     1      -9.974   3.579  70.742  1.00  0.00     0.000 HD 
BRANCH  38  40
HETATM   40  C   UNL     1      -9.413   2.394  72.455  1.00  0.00    -0.096 C  
BRANCH  40  41
HETATM   41  C   UNL     1      -8.137   1.709  72.940  1.00  0.00    -0.052 C  
HETATM   42  O   UNL     1      -7.716   2.286  74.176  1.00  0.00    -0.043 OA 
HETATM   43  H   UNL     1      -6.923   1.859  74.478  1.00  0.00     0.000 HD 
ENDBRANCH  40  41
ENDBRANCH  38  40
ENDBRANCH  33  36
ENDBRANCH  21  24
ENDBRANCH  19  20
ENDBRANCH  16  19
ENDBRANCH   9  15
BRANCH  13  44
HETATM   44  N   UNL     1     -11.455  13.938  66.268  1.00  0.00    -0.328 N  
HETATM   45  C   UNL     1     -12.079  13.535  65.074  1.00  0.00    -0.397 C  
HETATM   46  O   UNL     1     -13.319  13.490  64.996  1.00  0.00    -0.596 OA 
HETATM   47  C   UNL     1     -12.440  14.397  67.260  1.00  0.00     0.154 C  
HETATM   48  C   UNL     1     -11.328  13.206  63.831  1.00  0.00    -0.420 C  
ENDBRANCH  13  44
ENDBRANCH   4   6
TORSDOF 9
ENDMDL
MODEL       26
REMARK 921   NORMALIZED FREE ENERGY PREDICTED BY IDOCK:   -2.01 KCAL/MOL
REMARK 922        TOTAL FREE ENERGY PREDICTED BY IDOCK:   -4.19 KCAL/MOL
REMARK 923 INTER-LIGAND FREE ENERGY PREDICTED BY IDOCK:   -3.59 KCAL/MOL
REMARK 924 INTRA-LIGAND FREE ENERGY PREDICTED BY IDOCK:   -0.60 KCAL/MOL
REMARK 927      BINDING AFFINITY PREDICTED BY RF-SCORE:    0.00 PKD
ROOT
HETATM    1  C   UNL     1     -13.406   6.823  71.148  1.00  0.00     0.109 C  
HETATM    2  N   UNL     1     -12.145   7.292  70.605  1.00  0.00    -0.535 N  
HETATM    3  H   UNL     1     -12.137   8.133  70.026  1.00  0.00     0.000 HD 
HETATM    4  C   UNL     1     -10.953   6.632  70.848  1.00  0.00    -0.268 C  
HETATM    5  O   UNL     1     -10.867   5.667  71.582  1.00  0.00    -0.250 OA 
ENDROOT
BRANCH   4   6
HETATM    6  C   UNL     1      -9.736   7.182  70.149  1.00  0.00    -0.171 A  
HETATM    7  C   UNL     1      -8.818   8.022  70.818  1.00  0.00    -0.139 A  
HETATM    8  I   UNL     1      -9.200   8.588  72.868  1.00  0.00     0.443 I  
HETATM    9  C   UNL     1      -7.625   8.428  70.158  1.00  0.00    -0.070 A  
HETATM   10  I   UNL     1     -11.329   6.594  67.583  1.00  0.00     0.919 I  
HETATM   11  C   UNL     1      -7.281   7.757  68.940  1.00  0.00    -0.081 A  
HETATM   12  I   UNL     1      -5.147   7.237  68.840  1.00  0.00    -0.015 I  
HETATM   13  C   UNL     1      -8.224   7.013  68.161  1.00  0.00    -0.120 A  
HETATM   14  C   UNL     1      -9.500   6.852  68.790  1.00  0.00    -0.135 A  
BRANCH   9  15
HETATM   15  C   UNL     1      -6.741   9.525  70.729  1.00  0.00    -0.105 C  
HETATM   16  N   UNL     1      -6.353  10.556  69.892  1.00  0.00    -0.088 N  
HETATM   17  O   UNL     1      -6.385   9.551  71.897  1.00  0.00    -0.291 OA 
HETATM   18  H   UNL     1      -6.517  10.489  68.887  1.00  0.00     0.000 HD 
BRANCH  16  19
HETATM   19  C   UNL     1      -5.705  11.745  70.456  1.00  0.00    -0.150 C  
BRANCH  19  20
HETATM   20  C   UNL     1      -6.499  13.055  70.255  1.00  0.00     0.247 C  
HETATM   21  N   UNL     1      -7.084  13.168  68.998  1.00  0.00    -0.226 N  
HETATM   22  O   UNL     1      -6.653  13.864  71.166  1.00  0.00     0.152 OA 
HETATM   23  H   UNL     1      -6.911  12.440  68.304  1.00  0.00     0.000 HD 
BRANCH  21  24
HETATM   24  C   UNL     1      -7.922  14.276  68.650  1.00  0.00    -0.139 A  
HETATM   25  C   UNL     1      -9.303  14.051  68.445  1.00  0.00    -0.210 A  
HETATM   26  C   UNL     1     -10.173  15.117  68.122  1.00  0.00    -0.227 A  
HETATM   27  I   UNL     1     -10.089  12.079  68.773  1.00  0.00     0.128 I  
HETATM   28  C   UNL     1     -11.585  14.786  67.741  1.00  0.00    -0.357 C  
HETATM   29  C   UNL     1      -9.672  16.438  68.059  1.00  0.00    -0.235 A  
HETATM   30  I   UNL     1     -11.076  18.074  67.797  1.00  0.00     0.906 I  
HETATM   31  O   UNL     1     -11.840  13.993  66.858  1.00  0.00    -0.385 OA 
HETATM   32  O   UNL     1     -12.528  15.357  68.512  1.00  0.00     0.122 OA 
HETATM   33  C   UNL     1      -8.279  16.692  68.202  1.00  0.00    -0.192 A  
HETATM   34  I   UNL     1      -5.276  15.785  68.086  1.00  0.00    -0.140 I  
HETATM   35  C   UNL     1      -7.409  15.584  68.443  1.00  0.00    -0.115 A  
BRANCH  33  36
HETATM   36  C   UNL     1      -7.748  18.078  67.999  1.00  0.00    -0.250 C  
HETATM   37  O   UNL     1      -7.715  18.872  68.934  1.00  0.00    -0.325 OA 
HETATM   38  N   UNL     1      -7.294  18.425  66.738  1.00  0.00    -0.205 N  
HETATM   39  H   UNL     1      -7.284  17.724  65.997  1.00  0.00     0.000 HD 
BRANCH  38  40
HETATM   40  C   UNL     1      -6.830  19.783  66.454  1.00  0.00    -0.213 C  
BRANCH  40  41
HETATM   41  C   UNL     1      -5.767  19.795  65.357  1.00  0.00    -0.172 C  
HETATM   42  O   UNL     1      -5.927  18.654  64.513  1.00  0.00    -0.342 OA 
HETATM   43  H   UNL     1      -5.266  18.662  63.831  1.00  0.00     0.000 HD 
ENDBRANCH  40  41
ENDBRANCH  38  40
ENDBRANCH  33  36
ENDBRANCH  21  24
ENDBRANCH  19  20
ENDBRANCH  16  19
ENDBRANCH   9  15
BRANCH  13  44
HETATM   44  N   UNL     1      -7.913   6.348  66.891  1.00  0.00    -0.108 N  
HETATM   45  C   UNL     1      -7.559   5.012  66.632  1.00  0.00    -0.088 C  
HETATM   46  O   UNL     1      -7.437   4.608  65.462  1.00  0.00    -0.078 OA 
HETATM   47  C   UNL     1      -7.959   7.141  65.652  1.00  0.00    -0.126 C  
HETATM   48  C   UNL     1      -7.248   4.027  67.704  1.00  0.00    -0.067 C  
ENDBRANCH  13  44
ENDBRANCH   4   6
TORSDOF 9
ENDMDL
MODEL       27
REMARK 921   NORMALIZED FREE ENERGY PREDICTED BY IDOCK:   -1.76 KCAL/MOL
REMARK 922        TOTAL FREE ENERGY PREDICTED BY IDOCK:   -3.81 KCAL/MOL
REMARK 923 INTER-LIGAND FREE ENERGY PREDICTED BY IDOCK:   -4.68 KCAL/MOL
REMARK 924 INTRA-LIGAND FREE ENERGY PREDICTED BY IDOCK:    0.87 KCAL/MOL
REMARK 927      BINDING AFFINITY PREDICTED BY RF-SCORE:    0.00 PKD
ROOT
HETATM    1  C   UNL     1      -7.444   1.467  62.766  1.00  0.00    -0.044 C  
HETATM    2  N   UNL     1      -7.626   2.448  63.819  1.00  0.00    -0.065 N  
HETATM    3  H   UNL     1      -8.563   2.605  64.193  1.00  0.00     0.000 HD 
HETATM    4  C   UNL     1      -6.567   3.178  64.332  1.00  0.00    -0.035 C  
HETATM    5  O   UNL     1      -5.414   3.001  63.992  1.00  0.00    -0.009 OA 
ENDROOT
BRANCH   4   6
HETATM    6  C   UNL     1      -6.918   4.221  65.361  1.00  0.00    -0.058 A  
HETATM    7  C   UNL     1      -6.797   5.601  65.083  1.00  0.00    -0.052 A  
HETATM    8  I   UNL     1      -6.026   6.231  63.165  1.00  0.00    -0.027 I  
HETATM    9  C   UNL     1      -7.245   6.554  66.040  1.00  0.00    -0.071 A  
HETATM   10  I   UNL     1      -6.508   1.929  67.372  1.00  0.00    -0.028 I  
HETATM   11  C   UNL     1      -8.037   6.074  67.132  1.00  0.00    -0.106 A  
HETATM   12  I   UNL     1      -9.769   7.365  67.546  1.00  0.00    -0.249 I  
HETATM   13  C   UNL     1      -8.073   4.699  67.530  1.00  0.00    -0.101 A  
HETATM   14  C   UNL     1      -7.383   3.817  66.639  1.00  0.00    -0.069 A  
BRANCH   9  15
HETATM   15  C   UNL     1      -6.904   8.029  65.903  1.00  0.00    -0.057 C  
HETATM   16  N   UNL     1      -6.213   8.640  66.934  1.00  0.00    -0.058 N  
HETATM   17  O   UNL     1      -7.188   8.688  64.914  1.00  0.00    -0.082 OA 
HETATM   18  H   UNL     1      -6.088   8.157  67.823  1.00  0.00     0.000 HD 
BRANCH  16  19
HETATM   19  C   UNL     1      -5.663   9.987  66.741  1.00  0.00    -0.050 C  
BRANCH  19  20
HETATM   20  C   UNL     1      -6.709  11.120  66.850  1.00  0.00    -0.128 C  
HETATM   21  N   UNL     1      -6.978  11.509  68.158  1.00  0.00    -0.067 N  
HETATM   22  O   UNL     1      -7.179  11.664  65.855  1.00  0.00     0.322 OA 
HETATM   23  H   UNL     1      -6.532  11.006  68.926  1.00  0.00     0.000 HD 
BRANCH  21  24
HETATM   24  C   UNL     1      -7.863  12.595  68.457  1.00  0.00    -0.104 A  
HETATM   25  C   UNL     1      -7.334  13.903  68.546  1.00  0.00    -0.116 A  
HETATM   26  C   UNL     1      -8.171  15.010  68.817  1.00  0.00    -0.168 A  
HETATM   27  I   UNL     1      -5.251  14.207  68.118  1.00  0.00    -0.044 I  
HETATM   28  C   UNL     1      -7.526  16.338  69.076  1.00  0.00    -0.220 C  
HETATM   29  C   UNL     1      -9.567  14.819  68.945  1.00  0.00    -0.210 A  
HETATM   30  I   UNL     1     -10.846  16.565  69.123  1.00  0.00    -0.213 I  
HETATM   31  O   UNL     1      -6.665  16.477  69.920  1.00  0.00    -0.132 OA 
HETATM   32  O   UNL     1      -7.905  17.323  68.241  1.00  0.00    -0.224 OA 
HETATM   33  C   UNL     1     -10.124  13.509  68.921  1.00  0.00    -0.029 A  
HETATM   34  I   UNL     1      -9.893  10.398  69.263  1.00  0.00    -0.154 I  
HETATM   35  C   UNL     1      -9.243  12.401  68.730  1.00  0.00     0.137 A  
BRANCH  33  36
HETATM   36  C   UNL     1     -11.585  13.314  69.192  1.00  0.00    -0.319 C  
HETATM   37  O   UNL     1     -12.404  13.434  68.287  1.00  0.00    -0.187 OA 
HETATM   38  N   UNL     1     -11.972  12.991  70.481  1.00  0.00    -0.534 N  
HETATM   39  H   UNL     1     -11.261  12.845  71.197  1.00  0.00     0.000 HD 
BRANCH  38  40
HETATM   40  C   UNL     1     -13.386  12.857  70.830  1.00  0.00     0.396 C  
BRANCH  40  41
HETATM   41  C   UNL     1     -13.615  13.049  72.328  1.00  0.00    -0.547 C  
HETATM   42  O   UNL     1     -13.158  14.341  72.728  1.00  0.00    -0.468 OA 
HETATM   43  H   UNL     1     -13.301  14.461  73.659  1.00  0.00     0.000 HD 
ENDBRANCH  40  41
ENDBRANCH  38  40
ENDBRANCH  33  36
ENDBRANCH  21  24
ENDBRANCH  19  20
ENDBRANCH  16  19
ENDBRANCH   9  15
BRANCH  13  44
HETATM   44  N   UNL     1      -8.843   4.183  68.667  1.00  0.00    -0.098 N  
HETATM   45  C   UNL     1      -8.990   4.695  69.968  1.00  0.00    -0.093 C  
HETATM   46  O   UNL     1      -9.781   4.165  70.768  1.00  0.00    -0.176 OA 
HETATM   47  C   UNL     1      -9.607   2.938  68.491  1.00  0.00    -0.026 C  
HETATM   48  C   UNL     1      -8.185   5.833  70.494  1.00  0.00    -0.118 C  
ENDBRANCH  13  44
ENDBRANCH   4   6
TORSDOF 9
ENDMDL
MODEL       28
REMARK 921   NORMALIZED FREE ENERGY PREDICTED BY IDOCK:   -1.76 KCAL/MOL
REMARK 922        TOTAL FREE ENERGY PREDICTED BY IDOCK:   -3.80 KCAL/MOL
REMARK 923 INTER-LIGAND FREE ENERGY PREDICTED BY IDOCK:   -3.93 KCAL/MOL
REMARK 924 INTRA-LIGAND FREE ENERGY PREDICTED BY IDOCK:    0.13 KCAL/MOL
REMARK 927      BINDING AFFINITY PREDICTED BY RF-SCORE:    0.00 PKD
ROOT
HETATM    1  C   UNL     1     -10.729  17.896  67.001  1.00  0.00    -0.209 C  
HETATM    2  N   UNL     1     -10.459  16.484  67.197  1.00  0.00    -0.310 N  
HETATM    3  H   UNL     1     -10.689  15.827  66.450  1.00  0.00     0.000 HD 
HETATM    4  C   UNL     1      -9.901  16.001  68.368  1.00  0.00    -0.213 C  
HETATM    5  O   UNL     1      -9.535  16.723  69.275  1.00  0.00    -0.211 OA 
ENDROOT
BRANCH   4   6
HETATM    6  C   UNL     1      -9.757  14.504  68.466  1.00  0.00    -0.224 A  
HETATM    7  C   UNL     1     -10.676  13.722  69.201  1.00  0.00    -0.123 A  
HETATM    8  I   UNL     1     -12.283  14.698  70.267  1.00  0.00    -0.410 I  
HETATM    9  C   UNL     1     -10.571  12.303  69.175  1.00  0.00    -0.025 A  
HETATM   10  I   UNL     1      -6.824  15.048  67.714  1.00  0.00    -0.167 I  
HETATM   11  C   UNL     1      -9.700  11.720  68.199  1.00  0.00    -0.192 A  
HETATM   12  I   UNL     1     -10.600   9.980  67.202  1.00  0.00    -0.164 I  
HETATM   13  C   UNL     1      -8.664  12.453  67.537  1.00  0.00    -0.179 A  
HETATM   14  C   UNL     1      -8.680  13.859  67.807  1.00  0.00    -0.187 A  
BRANCH   9  15
HETATM   15  C   UNL     1     -11.362  11.436  70.142  1.00  0.00    -0.119 C  
HETATM   16  N   UNL     1     -10.813  10.230  70.539  1.00  0.00    -0.408 N  
HETATM   17  O   UNL     1     -12.443  11.770  70.603  1.00  0.00    -0.324 OA 
HETATM   18  H   UNL     1      -9.986   9.864  70.068  1.00  0.00     0.000 HD 
BRANCH  16  19
HETATM   19  C   UNL     1     -11.427   9.481  71.642  1.00  0.00    -0.363 C  
BRANCH  19  20
HETATM   20  C   UNL     1     -10.661   8.198  72.039  1.00  0.00    -0.278 C  
HETATM   21  N   UNL     1     -10.592   7.251  71.023  1.00  0.00    -0.220 N  
HETATM   22  O   UNL     1     -10.105   8.088  73.128  1.00  0.00    -0.307 OA 
HETATM   23  H   UNL     1     -11.077   7.431  70.144  1.00  0.00     0.000 HD 
BRANCH  21  24
HETATM   24  C   UNL     1      -9.860   6.029  71.177  1.00  0.00    -0.179 A  
HETATM   25  C   UNL     1     -10.419   4.991  71.957  1.00  0.00    -0.203 A  
HETATM   26  C   UNL     1      -9.744   3.759  72.119  1.00  0.00    -0.228 A  
HETATM   27  I   UNL     1     -12.386   5.258  72.778  1.00  0.00     1.435 I  
HETATM   28  C   UNL     1     -10.301   2.771  73.100  1.00  0.00    -0.147 C  
HETATM   29  C   UNL     1      -8.519   3.536  71.448  1.00  0.00    -0.068 A  
HETATM   30  I   UNL     1      -7.632   1.556  71.528  1.00  0.00    -0.036 I  
HETATM   31  O   UNL     1     -10.528   3.074  74.254  1.00  0.00    -0.157 OA 
HETATM   32  O   UNL     1     -10.615   1.572  72.578  1.00  0.00    -0.149 OA 
HETATM   33  C   UNL     1      -7.900   4.581  70.704  1.00  0.00    -0.057 A  
HETATM   34  I   UNL     1      -7.452   7.616  70.045  1.00  0.00    -0.085 I  
HETATM   35  C   UNL     1      -8.564   5.843  70.627  1.00  0.00    -0.133 A  
BRANCH  33  36
HETATM   36  C   UNL     1      -6.540   4.370  70.112  1.00  0.00    -0.032 C  
HETATM   37  O   UNL     1      -5.534   4.554  70.790  1.00  0.00    -0.007 OA 
HETATM   38  N   UNL     1      -6.459   3.959  68.793  1.00  0.00    -0.036 N  
HETATM   39  H   UNL     1      -7.315   3.763  68.274  1.00  0.00     0.000 HD 
BRANCH  38  40
HETATM   40  C   UNL     1      -5.164   3.804  68.132  1.00  0.00    -0.012 C  
BRANCH  40  41
HETATM   41  C   UNL     1      -5.225   4.233  66.667  1.00  0.00    -0.009 C  
HETATM   42  O   UNL     1      -5.626   5.600  66.577  1.00  0.00    -0.015 OA 
HETATM   43  H   UNL     1      -5.664   5.866  65.666  1.00  0.00     0.000 HD 
ENDBRANCH  40  41
ENDBRANCH  38  40
ENDBRANCH  33  36
ENDBRANCH  21  24
ENDBRANCH  19  20
ENDBRANCH  16  19
ENDBRANCH   9  15
BRANCH  13  44
HETATM   44  N   UNL     1      -7.731  11.876  66.561  1.00  0.00     0.024 N  
HETATM   45  C   UNL     1      -6.425  11.387  66.737  1.00  0.00    -0.140 C  
HETATM   46  O   UNL     1      -5.829  10.833  65.798  1.00  0.00    -0.126 OA 
HETATM   47  C   UNL     1      -8.164  11.760  65.159  1.00  0.00     1.099 C  
HETATM   48  C   UNL     1      -5.656  11.551  68.002  1.00  0.00    -0.043 C  
ENDBRANCH  13  44
ENDBRANCH   4   6
TORSDOF 9
ENDMDL
MODEL       29
REMARK 921   NORMALIZED FREE ENERGY PREDICTED BY IDOCK:   -1.69 KCAL/MOL
REMARK 922        TOTAL FREE ENERGY PREDICTED BY IDOCK:   -3.70 KCAL/MOL
REMARK 923 INTER-LIGAND FREE ENERGY PREDICTED BY IDOCK:   -5.04 KCAL/MOL
REMARK 924 INTRA-LIGAND FREE ENERGY PREDICTED BY IDOCK:    1.34 KCAL/MOL
REMARK 927      BINDING AFFINITY PREDICTED BY RF-SCORE:    0.00 PKD
ROOT
HETATM    1  C   UNL     1      -8.460  19.222  68.344  1.00  0.00    -0.351 C  
HETATM    2  N   UNL     1      -8.317  17.832  67.951  1.00  0.00    -0.236 N  
HETATM    3  H   UNL     1      -7.453  17.532  67.499  1.00  0.00     0.000 HD 
HETATM    4  C   UNL     1      -9.319  16.902  68.173  1.00  0.00    -0.240 C  
HETATM    5  O   UNL     1     -10.346  17.163  68.767  1.00  0.00    -0.314 OA 
ENDROOT
BRANCH   4   6
HETATM    6  C   UNL     1      -9.067  15.517  67.636  1.00  0.00    -0.183 A  
HETATM    7  C   UNL     1      -8.073  14.681  68.190  1.00  0.00    -0.137 A  
HETATM    8  I   UNL     1      -6.836  15.427  69.797  1.00  0.00     0.013 I  
HETATM    9  C   UNL     1      -7.943  13.340  67.729  1.00  0.00    -0.166 A  
HETATM   10  I   UNL     1     -10.451  16.585  65.104  1.00  0.00     0.494 I  
HETATM   11  C   UNL     1      -8.995  12.817  66.910  1.00  0.00    -0.213 A  
HETATM   12  I   UNL     1      -9.569  10.773  67.482  1.00  0.00    -0.192 I  
HETATM   13  C   UNL     1      -9.936  13.645  66.218  1.00  0.00    -0.300 A  
HETATM   14  C   UNL     1      -9.844  15.035  66.551  1.00  0.00    -0.260 A  
BRANCH   9  15
HETATM   15  C   UNL     1      -6.739  12.491  68.102  1.00  0.00    -0.078 C  
HETATM   16  N   UNL     1      -6.630  12.046  69.407  1.00  0.00    -0.172 N  
HETATM   17  O   UNL     1      -5.882  12.163  67.296  1.00  0.00    -0.123 OA 
HETATM   18  H   UNL     1      -7.250  12.416  70.128  1.00  0.00     0.000 HD 
BRANCH  16  19
HETATM   19  C   UNL     1      -5.619  11.038  69.749  1.00  0.00    -0.052 C  
BRANCH  19  20
HETATM   20  C   UNL     1      -6.152   9.588  69.768  1.00  0.00    -0.039 C  
HETATM   21  N   UNL     1      -5.163   8.626  69.589  1.00  0.00    -0.030 N  
HETATM   22  O   UNL     1      -7.330   9.335  70.003  1.00  0.00    -0.063 OA 
HETATM   23  H   UNL     1      -4.205   8.929  69.409  1.00  0.00     0.000 HD 
BRANCH  21  24
HETATM   24  C   UNL     1      -5.451   7.224  69.651  1.00  0.00    -0.022 A  
HETATM   25  C   UNL     1      -5.594   6.502  68.444  1.00  0.00    -0.012 A  
HETATM   26  C   UNL     1      -5.857   5.113  68.454  1.00  0.00    -0.017 A  
HETATM   27  I   UNL     1      -5.262   7.522  66.582  1.00  0.00    -0.025 I  
HETATM   28  C   UNL     1      -6.175   4.444  67.151  1.00  0.00    -0.036 C  
HETATM   29  C   UNL     1      -5.921   4.420  69.685  1.00  0.00    -0.018 A  
HETATM   30  I   UNL     1      -6.088   2.255  69.656  1.00  0.00    -0.025 I  
HETATM   31  O   UNL     1      -7.058   4.849  66.423  1.00  0.00    -0.069 OA 
HETATM   32  O   UNL     1      -5.350   3.436  66.816  1.00  0.00    -0.011 OA 
HETATM   33  C   UNL     1      -5.841   5.126  70.919  1.00  0.00    -0.017 A  
HETATM   34  I   UNL     1      -6.117   7.742  72.632  1.00  0.00    -0.056 I  
HETATM   35  C   UNL     1      -5.661   6.543  70.879  1.00  0.00    -0.027 A  
BRANCH  33  36
HETATM   36  C   UNL     1      -6.046   4.396  72.212  1.00  0.00    -0.017 C  
HETATM   37  O   UNL     1      -5.206   4.468  73.103  1.00  0.00    -0.007 OA 
HETATM   38  N   UNL     1      -7.204   3.654  72.366  1.00  0.00    -0.047 N  
HETATM   39  H   UNL     1      -7.907   3.661  71.627  1.00  0.00     0.000 HD 
BRANCH  38  40
HETATM   40  C   UNL     1      -7.434   2.861  73.572  1.00  0.00    -0.051 C  
BRANCH  40  41
HETATM   41  C   UNL     1      -8.534   3.465  74.442  1.00  0.00    -0.083 C  
HETATM   42  O   UNL     1      -9.744   2.727  74.277  1.00  0.00    -0.089 OA 
HETATM   43  H   UNL     1     -10.428   3.103  74.819  1.00  0.00     0.000 HD 
ENDBRANCH  40  41
ENDBRANCH  38  40
ENDBRANCH  33  36
ENDBRANCH  21  24
ENDBRANCH  19  20
ENDBRANCH  16  19
ENDBRANCH   9  15
BRANCH  13  44
HETATM   44  N   UNL     1     -10.999  13.142  65.341  1.00  0.00    -0.276 N  
HETATM   45  C   UNL     1     -10.977  12.099  64.399  1.00  0.00    -0.326 C  
HETATM   46  O   UNL     1     -12.022  11.748  63.824  1.00  0.00    -0.418 OA 
HETATM   47  C   UNL     1     -12.323  13.780  65.405  1.00  0.00    -0.475 C  
HETATM   48  C   UNL     1      -9.729  11.402  63.982  1.00  0.00    -0.275 C  
ENDBRANCH  13  44
ENDBRANCH   4   6
TORSDOF 9
ENDMDL
MODEL       30
REMARK 921   NORMALIZED FREE ENERGY PREDICTED BY IDOCK:   -1.61 KCAL/MOL
REMARK 922        TOTAL FREE ENERGY PREDICTED BY IDOCK:   -3.57 KCAL/MOL
REMARK 923 INTER-LIGAND FREE ENERGY PREDICTED BY IDOCK:   -4.47 KCAL/MOL
REMARK 924 INTRA-LIGAND FREE ENERGY PREDICTED BY IDOCK:    0.90 KCAL/MOL
REMARK 927      BINDING AFFINITY PREDICTED BY RF-SCORE:    0.00 PKD
ROOT
HETATM    1  C   UNL     1     -10.529  10.356  62.571  1.00  0.00     1.159 C  
HETATM    2  N   UNL     1     -10.095   9.902  63.879  1.00  0.00    -0.353 N  
HETATM    3  H   UNL     1     -10.638  10.167  64.701  1.00  0.00     0.000 HD 
HETATM    4  C   UNL     1      -8.965   9.119  64.044  1.00  0.00     0.017 C  
HETATM    5  O   UNL     1      -8.304   8.703  63.113  1.00  0.00    -0.185 OA 
ENDROOT
BRANCH   4   6
HETATM    6  C   UNL     1      -8.585   8.794  65.466  1.00  0.00    -0.198 A  
HETATM    7  C   UNL     1      -8.554   9.790  66.467  1.00  0.00    -0.127 A  
HETATM    8  I   UNL     1      -8.992  11.839  65.936  1.00  0.00     0.203 I  
HETATM    9  C   UNL     1      -8.302   9.423  67.818  1.00  0.00    -0.115 A  
HETATM   10  I   UNL     1      -7.245   6.323  64.215  1.00  0.00    -0.083 I  
HETATM   11  C   UNL     1      -8.348   8.030  68.146  1.00  0.00    -0.127 A  
HETATM   12  I   UNL     1      -9.431   7.642  70.020  1.00  0.00    -0.157 I  
HETATM   13  C   UNL     1      -8.240   6.990  67.168  1.00  0.00    -0.118 A  
HETATM   14  C   UNL     1      -8.253   7.460  65.815  1.00  0.00    -0.135 A  
BRANCH   9  15
HETATM   15  C   UNL     1      -8.005  10.472  68.878  1.00  0.00    -0.128 C  
HETATM   16  N   UNL     1      -6.682  10.728  69.193  1.00  0.00    -0.066 N  
HETATM   17  O   UNL     1      -8.878  11.115  69.441  1.00  0.00     0.084 OA 
HETATM   18  H   UNL     1      -5.945  10.115  68.846  1.00  0.00     0.000 HD 
BRANCH  16  19
HETATM   19  C   UNL     1      -6.346  11.887  70.029  1.00  0.00    -0.072 C  
BRANCH  19  20
HETATM   20  C   UNL     1      -6.457  13.246  69.302  1.00  0.00    -0.107 C  
HETATM   21  N   UNL     1      -7.425  14.089  69.837  1.00  0.00    -0.188 N  
HETATM   22  O   UNL     1      -5.692  13.558  68.394  1.00  0.00    -0.082 OA 
HETATM   23  H   UNL     1      -8.010  13.749  70.601  1.00  0.00     0.000 HD 
BRANCH  21  24
HETATM   24  C   UNL     1      -7.624  15.420  69.346  1.00  0.00    -0.224 A  
HETATM   25  C   UNL     1      -6.761  16.448  69.790  1.00  0.00    -0.051 A  
HETATM   26  C   UNL     1      -6.903  17.773  69.317  1.00  0.00    -0.186 A  
HETATM   27  I   UNL     1      -5.129  15.939  71.091  1.00  0.00     0.089 I  
HETATM   28  C   UNL     1      -6.077  18.846  69.960  1.00  0.00    -0.178 C  
HETATM   29  C   UNL     1      -7.885  18.068  68.342  1.00  0.00    -0.295 A  
HETATM   30  I   UNL     1      -7.919  20.054  67.465  1.00  0.00    -0.317 I  
HETATM   31  O   UNL     1      -6.077  19.020  71.161  1.00  0.00     0.102 OA 
HETATM   32  O   UNL     1      -5.276  19.523  69.118  1.00  0.00    -0.184 OA 
HETATM   33  C   UNL     1      -8.808  17.070  67.918  1.00  0.00    -0.224 A  
HETATM   34  I   UNL     1     -10.369  14.382  68.354  1.00  0.00    -0.257 I  
HETATM   35  C   UNL     1      -8.695  15.760  68.477  1.00  0.00    -0.184 A  
BRANCH  33  36
HETATM   36  C   UNL     1      -9.924  17.433  66.987  1.00  0.00    -0.295 C  
HETATM   37  O   UNL     1     -10.700  18.339  67.274  1.00  0.00    -0.404 OA 
HETATM   38  N   UNL     1     -10.043  16.726  65.804  1.00  0.00    -0.292 N  
HETATM   39  H   UNL     1      -9.348  16.016  65.570  1.00  0.00     0.000 HD 
BRANCH  38  40
HETATM   40  C   UNL     1     -11.151  16.980  64.883  1.00  0.00     0.146 C  
BRANCH  40  41
HETATM   41  C   UNL     1     -11.978  15.720  64.637  1.00  0.00     0.015 C  
HETATM   42  O   UNL     1     -11.144  14.686  64.114  1.00  0.00    -0.579 OA 
HETATM   43  H   UNL     1     -11.658  13.902  63.961  1.00  0.00     0.000 HD 
ENDBRANCH  40  41
ENDBRANCH  38  40
ENDBRANCH  33  36
ENDBRANCH  21  24
ENDBRANCH  19  20
ENDBRANCH  16  19
ENDBRANCH   9  15
BRANCH  13  44
HETATM   44  N   UNL     1      -8.245   5.556  67.475  1.00  0.00    -0.101 N  
HETATM   45  C   UNL     1      -7.283   4.768  68.131  1.00  0.00    -0.065 C  
HETATM   46  O   UNL     1      -7.519   3.576  68.394  1.00  0.00    -0.053 OA 
HETATM   47  C   UNL     1      -9.407   4.753  67.062  1.00  0.00    -0.134 C  
HETATM   48  C   UNL     1      -5.926   5.265  68.488  1.00  0.00    -0.021 C  
ENDBRANCH  13  44
ENDBRANCH   4   6
TORSDOF 9
ENDMDL
MODEL       31
REMARK 921   NORMALIZED FREE ENERGY PREDICTED BY IDOCK:   -1.58 KCAL/MOL
REMARK 922        TOTAL FREE ENERGY PREDICTED BY IDOCK:   -3.53 KCAL/MOL
REMARK 923 INTER-LIGAND FREE ENERGY PREDICTED BY IDOCK:   -4.85 KCAL/MOL
REMARK 924 INTRA-LIGAND FREE ENERGY PREDICTED BY IDOCK:    1.31 KCAL/MOL
REMARK 927      BINDING AFFINITY PREDICTED BY RF-SCORE:    0.00 PKD
ROOT
HETATM    1  C   UNL     1      -7.712   1.884  63.397  1.00  0.00    -0.056 C  
HETATM    2  N   UNL     1      -7.711   2.777  64.541  1.00  0.00    -0.076 N  
HETATM    3  H   UNL     1      -8.600   3.029  64.973  1.00  0.00     0.000 HD 
HETATM    4  C   UNL     1      -6.539   3.297  65.063  1.00  0.00    -0.040 C  
HETATM    5  O   UNL     1      -5.437   2.991  64.651  1.00  0.00    -0.009 OA 
ENDROOT
BRANCH   4   6
HETATM    6  C   UNL     1      -6.696   4.278  66.196  1.00  0.00    -0.049 A  
HETATM    7  C   UNL     1      -6.610   5.671  65.982  1.00  0.00    -0.048 A  
HETATM    8  I   UNL     1      -6.174   6.414  64.000  1.00  0.00    -0.030 I  
HETATM    9  C   UNL     1      -6.876   6.566  67.056  1.00  0.00    -0.066 A  
HETATM   10  I   UNL     1      -5.969   1.869  67.968  1.00  0.00    -0.025 I  
HETATM   11  C   UNL     1      -7.473   6.023  68.239  1.00  0.00    -0.086 A  
HETATM   12  I   UNL     1      -9.093   7.287  69.020  1.00  0.00    -0.127 I  
HETATM   13  C   UNL     1      -7.454   4.626  68.556  1.00  0.00    -0.065 A  
HETATM   14  C   UNL     1      -6.937   3.798  67.509  1.00  0.00    -0.055 A  
BRANCH   9  15
HETATM   15  C   UNL     1      -6.548   8.047  66.949  1.00  0.00    -0.057 C  
HETATM   16  N   UNL     1      -5.834   8.636  67.977  1.00  0.00    -0.042 N  
HETATM   17  O   UNL     1      -6.862   8.729  65.985  1.00  0.00    -0.071 OA 
HETATM   18  H   UNL     1      -5.682   8.131  68.850  1.00  0.00     0.000 HD 
BRANCH  16  19
HETATM   19  C   UNL     1      -5.298   9.991  67.805  1.00  0.00    -0.038 C  
BRANCH  19  20
HETATM   20  C   UNL     1      -6.370  11.062  67.501  1.00  0.00    -0.062 C  
HETATM   21  N   UNL     1      -6.821  11.738  68.630  1.00  0.00    -0.075 N  
HETATM   22  O   UNL     1      -6.710  11.328  66.352  1.00  0.00    -0.128 OA 
HETATM   23  H   UNL     1      -6.475  11.457  69.547  1.00  0.00     0.000 HD 
BRANCH  21  24
HETATM   24  C   UNL     1      -7.759  12.818  68.540  1.00  0.00    -0.113 A  
HETATM   25  C   UNL     1      -9.140  12.520  68.489  1.00  0.00    -0.061 A  
HETATM   26  C   UNL     1     -10.104  13.553  68.423  1.00  0.00    -0.240 A  
HETATM   27  I   UNL     1      -9.765  10.472  68.660  1.00  0.00    -0.214 I  
HETATM   28  C   UNL     1     -11.535  13.170  68.189  1.00  0.00    -0.314 C  
HETATM   29  C   UNL     1      -9.689  14.904  68.466  1.00  0.00    -0.215 A  
HETATM   30  I   UNL     1     -11.202  16.455  68.601  1.00  0.00    -0.058 I  
HETATM   31  O   UNL     1     -11.866  12.473  67.252  1.00  0.00    -0.402 OA 
HETATM   32  O   UNL     1     -12.391  13.576  69.144  1.00  0.00    -0.251 OA 
HETATM   33  C   UNL     1      -8.305  15.238  68.457  1.00  0.00    -0.152 A  
HETATM   34  I   UNL     1      -5.303  14.568  67.834  1.00  0.00     0.117 I  
HETATM   35  C   UNL     1      -7.351  14.174  68.438  1.00  0.00    -0.115 A  
BRANCH  33  36
HETATM   36  C   UNL     1      -7.884  16.673  68.367  1.00  0.00    -0.202 C  
HETATM   37  O   UNL     1      -7.741  17.342  69.385  1.00  0.00    -0.046 OA 
HETATM   38  N   UNL     1      -7.657  17.209  67.111  1.00  0.00    -0.165 N  
HETATM   39  H   UNL     1      -7.731  16.610  66.288  1.00  0.00     0.000 HD 
BRANCH  38  40
HETATM   40  C   UNL     1      -7.313  18.621  66.947  1.00  0.00    -0.208 C  
BRANCH  40  41
HETATM   41  C   UNL     1      -6.040  18.797  66.122  1.00  0.00    -0.174 C  
HETATM   42  O   UNL     1      -6.359  18.798  64.730  1.00  0.00    -0.481 OA 
HETATM   43  H   UNL     1      -5.568  18.909  64.217  1.00  0.00     0.000 HD 
ENDBRANCH  40  41
ENDBRANCH  38  40
ENDBRANCH  33  36
ENDBRANCH  21  24
ENDBRANCH  19  20
ENDBRANCH  16  19
ENDBRANCH   9  15
BRANCH  13  44
HETATM   44  N   UNL     1      -8.022   4.043  69.777  1.00  0.00    -0.055 N  
HETATM   45  C   UNL     1      -7.565   4.103  71.105  1.00  0.00    -0.055 C  
HETATM   46  O   UNL     1      -8.250   3.629  72.028  1.00  0.00    -0.070 OA 
HETATM   47  C   UNL     1      -9.264   3.262  69.671  1.00  0.00    -0.151 C  
HETATM   48  C   UNL     1      -6.238   4.658  71.488  1.00  0.00    -0.018 C  
ENDBRANCH  13  44
ENDBRANCH   4   6
TORSDOF 9
ENDMDL
MODEL       32
REMARK 921   NORMALIZED FREE ENERGY PREDICTED BY IDOCK:   -1.37 KCAL/MOL
REMARK 922        TOTAL FREE ENERGY PREDICTED BY IDOCK:   -3.21 KCAL/MOL
REMARK 923 INTER-LIGAND FREE ENERGY PREDICTED BY IDOCK:   -3.51 KCAL/MOL
REMARK 924 INTRA-LIGAND FREE ENERGY PREDICTED BY IDOCK:    0.30 KCAL/MOL
REMARK 927      BINDING AFFINITY PREDICTED BY RF-SCORE:    0.00 PKD
ROOT
HETATM    1  C   UNL     1     -11.142  19.122  67.677  1.00  0.00    -0.093 C  
HETATM    2  N   UNL     1     -11.006  17.680  67.596  1.00  0.00    -0.213 N  
HETATM    3  H   UNL     1     -11.306  17.201  66.746  1.00  0.00     0.000 HD 
HETATM    4  C   UNL     1     -10.481  16.934  68.638  1.00  0.00    -0.352 C  
HETATM    5  O   UNL     1     -10.037  17.435  69.653  1.00  0.00    -0.046 OA 
ENDROOT
BRANCH   4   6
HETATM    6  C   UNL     1     -10.480  15.439  68.449  1.00  0.00    -0.239 A  
HETATM    7  C   UNL     1     -11.099  14.578  69.381  1.00  0.00    -0.268 A  
HETATM    8  I   UNL     1     -12.007  15.413  71.155  1.00  0.00    -0.598 I  
HETATM    9  C   UNL     1     -11.174  13.183  69.109  1.00  0.00    -0.303 A  
HETATM   10  I   UNL     1      -8.070  15.986  66.615  1.00  0.00    -0.130 I  
HETATM   11  C   UNL     1     -10.852  12.748  67.783  1.00  0.00    -0.225 A  
HETATM   12  I   UNL     1     -12.270  11.252  67.020  1.00  0.00     3.514 I  
HETATM   13  C   UNL     1     -10.101  13.543  66.858  1.00  0.00    -0.256 A  
HETATM   14  C   UNL     1      -9.847  14.878  67.310  1.00  0.00    -0.229 A  
BRANCH   9  15
HETATM   15  C   UNL     1     -11.592  12.191  70.183  1.00  0.00    -0.118 C  
HETATM   16  N   UNL     1     -11.016  10.933  70.172  1.00  0.00    -0.468 N  
HETATM   17  O   UNL     1     -12.389  12.465  71.067  1.00  0.00    -0.349 OA 
HETATM   18  H   UNL     1     -10.459  10.632  69.373  1.00  0.00     0.000 HD 
BRANCH  16  19
HETATM   19  C   UNL     1     -11.211  10.036  71.317  1.00  0.00    -0.200 C  
BRANCH  19  20
HETATM   20  C   UNL     1     -10.413   8.715  71.229  1.00  0.00    -0.242 C  
HETATM   21  N   UNL     1     -11.111   7.679  70.618  1.00  0.00    -0.254 N  
HETATM   22  O   UNL     1      -9.243   8.641  71.597  1.00  0.00    -0.210 OA 
HETATM   23  H   UNL     1     -12.078   7.834  70.333  1.00  0.00     0.000 HD 
BRANCH  21  24
HETATM   24  C   UNL     1     -10.510   6.401  70.378  1.00  0.00    -0.218 A  
HETATM   25  C   UNL     1     -10.326   5.517  71.465  1.00  0.00    -0.222 A  
HETATM   26  C   UNL     1      -9.758   4.236  71.274  1.00  0.00    -0.256 A  
HETATM   27  I   UNL     1     -11.059   6.092  73.401  1.00  0.00     0.294 I  
HETATM   28  C   UNL     1      -9.426   3.421  72.488  1.00  0.00    -0.117 C  
HETATM   29  C   UNL     1      -9.420   3.807  69.970  1.00  0.00    -0.193 A  
HETATM   30  I   UNL     1      -8.773   1.753  69.683  1.00  0.00    -0.143 I  
HETATM   31  O   UNL     1      -8.732   3.860  73.382  1.00  0.00    -0.093 OA 
HETATM   32  O   UNL     1     -10.031   2.222  72.547  1.00  0.00    -0.118 OA 
HETATM   33  C   UNL     1      -9.536   4.693  68.862  1.00  0.00    -0.218 A  
HETATM   34  I   UNL     1      -9.691   7.576  67.631  1.00  0.00    -0.239 I  
HETATM   35  C   UNL     1     -10.033   6.011  69.098  1.00  0.00    -0.162 A  
BRANCH  33  36
HETATM   36  C   UNL     1      -9.047   4.268  67.511  1.00  0.00    -0.134 C  
HETATM   37  O   UNL     1      -7.845   4.251  67.264  1.00  0.00    -0.094 OA 
HETATM   38  N   UNL     1      -9.985   3.892  66.566  1.00  0.00    -0.392 N  
HETATM   39  H   UNL     1     -10.973   3.864  66.821  1.00  0.00     0.000 HD 
BRANCH  38  40
HETATM   40  C   UNL     1      -9.582   3.534  65.206  1.00  0.00    -0.140 C  
BRANCH  40  41
HETATM   41  C   UNL     1     -10.785   3.435  64.271  1.00  0.00    -0.055 C  
HETATM   42  O   UNL     1     -11.803   4.344  64.690  1.00  0.00    -0.730 OA 
HETATM   43  H   UNL     1     -12.551   4.282  64.108  1.00  0.00     0.000 HD 
ENDBRANCH  40  41
ENDBRANCH  38  40
ENDBRANCH  33  36
ENDBRANCH  21  24
ENDBRANCH  19  20
ENDBRANCH  16  19
ENDBRANCH   9  15
BRANCH  13  44
HETATM   44  N   UNL     1      -9.722  13.112  65.508  1.00  0.00    -0.116 N  
HETATM   45  C   UNL     1     -10.339  13.365  64.271  1.00  0.00    -0.226 C  
HETATM   46  O   UNL     1      -9.800  12.998  63.212  1.00  0.00     0.437 OA 
HETATM   47  C   UNL     1      -8.516  12.284  65.348  1.00  0.00     1.245 C  
HETATM   48  C   UNL     1     -11.675  14.010  64.141  1.00  0.00    -0.340 C  
ENDBRANCH  13  44
ENDBRANCH   4   6
TORSDOF 9
ENDMDL
MODEL       33
REMARK 921   NORMALIZED FREE ENERGY PREDICTED BY IDOCK:   -1.35 KCAL/MOL
REMARK 922        TOTAL FREE ENERGY PREDICTED BY IDOCK:   -3.17 KCAL/MOL
REMARK 923 INTER-LIGAND FREE ENERGY PREDICTED BY IDOCK:   -3.45 KCAL/MOL
REMARK 924 INTRA-LIGAND FREE ENERGY PREDICTED BY IDOCK:    0.27 KCAL/MOL
REMARK 927      BINDING AFFINITY PREDICTED BY RF-SCORE:    0.00 PKD
ROOT
HETATM    1  C   UNL     1      -8.629   1.731  74.482  1.00  0.00    -0.057 C  
HETATM    2  N   UNL     1      -8.472   2.638  73.359  1.00  0.00    -0.071 N  
HETATM    3  H   UNL     1      -7.598   3.156  73.260  1.00  0.00     0.000 HD 
HETATM    4  C   UNL     1      -9.472   2.820  72.419  1.00  0.00    -0.110 C  
HETATM    5  O   UNL     1     -10.511   2.189  72.426  1.00  0.00    -0.155 OA 
ENDROOT
BRANCH   4   6
HETATM    6  C   UNL     1      -9.203   3.855  71.358  1.00  0.00    -0.189 A  
HETATM    7  C   UNL     1      -9.881   5.094  71.349  1.00  0.00    -0.179 A  
HETATM    8  I   UNL     1     -11.387   5.489  72.848  1.00  0.00    -0.111 I  
HETATM    9  C   UNL     1      -9.518   6.088  70.398  1.00  0.00    -0.187 A  
HETATM   10  I   UNL     1      -8.128   1.468  69.742  1.00  0.00    -0.067 I  
HETATM   11  C   UNL     1      -8.306   5.889  69.660  1.00  0.00    -0.117 A  
HETATM   12  I   UNL     1      -7.100   7.721  69.511  1.00  0.00    -0.066 I  
HETATM   13  C   UNL     1      -7.668   4.614  69.532  1.00  0.00    -0.055 A  
HETATM   14  C   UNL     1      -8.248   3.587  70.343  1.00  0.00    -0.052 A  
BRANCH   9  15
HETATM   15  C   UNL     1     -10.378   7.323  70.179  1.00  0.00    -0.212 C  
HETATM   16  N   UNL     1     -10.723   7.659  68.883  1.00  0.00    -0.375 N  
HETATM   17  O   UNL     1     -10.799   8.011  71.097  1.00  0.00    -0.232 OA 
HETATM   18  H   UNL     1     -10.276   7.190  68.095  1.00  0.00     0.000 HD 
BRANCH  16  19
HETATM   19  C   UNL     1     -11.737   8.694  68.646  1.00  0.00     1.658 C  
BRANCH  19  20
HETATM   20  C   UNL     1     -11.269  10.127  68.984  1.00  0.00    -0.173 C  
HETATM   21  N   UNL     1     -12.308  11.046  69.086  1.00  0.00    -0.379 N  
HETATM   22  O   UNL     1     -10.091  10.384  69.218  1.00  0.00    -0.209 OA 
HETATM   23  H   UNL     1     -13.260  10.741  68.884  1.00  0.00     0.000 HD 
BRANCH  21  24
HETATM   24  C   UNL     1     -12.079  12.408  69.466  1.00  0.00    -0.189 A  
HETATM   25  C   UNL     1     -12.513  12.844  70.739  1.00  0.00    -0.286 A  
HETATM   26  C   UNL     1     -12.290  14.173  71.167  1.00  0.00    -0.447 A  
HETATM   27  I   UNL     1     -13.395  11.414  72.077  1.00  0.00     0.629 I  
HETATM   28  C   UNL     1     -12.932  14.621  72.446  1.00  0.00    -0.368 C  
HETATM   29  C   UNL     1     -11.572  15.066  70.339  1.00  0.00    -0.287 A  
HETATM   30  I   UNL     1     -11.042  17.020  71.125  1.00  0.00     2.442 I  
HETATM   31  O   UNL     1     -14.125  14.504  72.638  1.00  0.00    -0.518 OA 
HETATM   32  O   UNL     1     -12.075  15.062  73.384  1.00  0.00    -0.384 OA 
HETATM   33  C   UNL     1     -11.172  14.677  69.029  1.00  0.00    -0.287 A  
HETATM   34  I   UNL     1     -11.456  12.884  66.469  1.00  0.00    -0.459 I  
HETATM   35  C   UNL     1     -11.486  13.355  68.589  1.00  0.00    -0.310 A  
BRANCH  33  36
HETATM   36  C   UNL     1     -10.532  15.678  68.116  1.00  0.00    -0.259 C  
HETATM   37  O   UNL     1     -11.112  16.051  67.101  1.00  0.00    -0.242 OA 
HETATM   38  N   UNL     1      -9.282  16.166  68.457  1.00  0.00    -0.203 N  
HETATM   39  H   UNL     1      -8.852  15.877  69.335  1.00  0.00     0.000 HD 
BRANCH  38  40
HETATM   40  C   UNL     1      -8.570  17.090  67.575  1.00  0.00    -0.205 C  
BRANCH  40  41
HETATM   41  C   UNL     1      -8.140  18.355  68.315  1.00  0.00    -0.298 C  
HETATM   42  O   UNL     1      -6.929  18.111  69.030  1.00  0.00    -0.269 OA 
HETATM   43  H   UNL     1      -6.661  18.898  69.490  1.00  0.00     0.000 HD 
ENDBRANCH  40  41
ENDBRANCH  38  40
ENDBRANCH  33  36
ENDBRANCH  21  24
ENDBRANCH  19  20
ENDBRANCH  16  19
ENDBRANCH   9  15
BRANCH  13  44
HETATM   44  N   UNL     1      -6.449   4.369  68.753  1.00  0.00    -0.036 N  
HETATM   45  C   UNL     1      -6.281   4.186  67.369  1.00  0.00    -0.036 C  
HETATM   46  O   UNL     1      -5.141   4.097  66.879  1.00  0.00    -0.007 OA 
HETATM   47  C   UNL     1      -5.163   4.291  69.465  1.00  0.00    -0.007 C  
HETATM   48  C   UNL     1      -7.419   4.023  66.423  1.00  0.00    -0.084 C  
ENDBRANCH  13  44
ENDBRANCH   4   6
TORSDOF 9
ENDMDL
MODEL       34
REMARK 921   NORMALIZED FREE ENERGY PREDICTED BY IDOCK:   -1.31 KCAL/MOL
REMARK 922        TOTAL FREE ENERGY PREDICTED BY IDOCK:   -3.12 KCAL/MOL
REMARK 923 INTER-LIGAND FREE ENERGY PREDICTED BY IDOCK:   -5.84 KCAL/MOL
REMARK 924 INTRA-LIGAND FREE ENERGY PREDICTED BY IDOCK:    2.72 KCAL/MOL
REMARK 927      BINDING AFFINITY PREDICTED BY RF-SCORE:    0.00 PKD
ROOT
HETATM    1  C   UNL     1      -7.133   2.747  66.710  1.00  0.00    -0.050 C  
HETATM    2  N   UNL     1      -7.106   3.534  67.929  1.00  0.00    -0.051 N  
HETATM    3  H   UNL     1      -7.726   3.278  68.698  1.00  0.00     0.000 HD 
HETATM    4  C   UNL     1      -6.263   4.623  68.079  1.00  0.00    -0.036 C  
HETATM    5  O   UNL     1      -5.447   4.950  67.240  1.00  0.00    -0.012 OA 
ENDROOT
BRANCH   4   6
HETATM    6  C   UNL     1      -6.404   5.398  69.363  1.00  0.00    -0.034 A  
HETATM    7  C   UNL     1      -6.259   6.802  69.397  1.00  0.00    -0.030 A  
HETATM    8  I   UNL     1      -5.756   7.859  67.580  1.00  0.00    -0.040 I  
HETATM    9  C   UNL     1      -6.511   7.508  70.607  1.00  0.00    -0.039 A  
HETATM   10  I   UNL     1      -5.808   2.690  70.699  1.00  0.00    -0.019 I  
HETATM   11  C   UNL     1      -7.153   6.793  71.669  1.00  0.00    -0.076 A  
HETATM   12  I   UNL     1      -8.738   7.969  72.638  1.00  0.00    -0.299 I  
HETATM   13  C   UNL     1      -7.195   5.364  71.739  1.00  0.00    -0.085 A  
HETATM   14  C   UNL     1      -6.690   4.708  70.570  1.00  0.00    -0.036 A  
BRANCH   9  15
HETATM   15  C   UNL     1      -6.124   8.970  70.763  1.00  0.00    -0.044 C  
HETATM   16  N   UNL     1      -5.344   9.549  69.778  1.00  0.00    -0.033 N  
HETATM   17  O   UNL     1      -6.495   9.659  71.701  1.00  0.00    -0.302 OA 
HETATM   18  H   UNL     1      -4.907   8.968  69.063  1.00  0.00     0.000 HD 
BRANCH  16  19
HETATM   19  C   UNL     1      -5.147  11.003  69.769  1.00  0.00    -0.042 C  
BRANCH  19  20
HETATM   20  C   UNL     1      -5.937  11.742  68.666  1.00  0.00    -0.050 C  
HETATM   21  N   UNL     1      -7.050  12.428  69.138  1.00  0.00    -0.280 N  
HETATM   22  O   UNL     1      -5.547  11.773  67.501  1.00  0.00    -0.058 OA 
HETATM   23  H   UNL     1      -7.294  12.356  70.126  1.00  0.00     0.000 HD 
BRANCH  21  24
HETATM   24  C   UNL     1      -7.864  13.234  68.277  1.00  0.00    -0.143 A  
HETATM   25  C   UNL     1      -7.803  14.642  68.400  1.00  0.00    -0.131 A  
HETATM   26  C   UNL     1      -8.570  15.479  67.558  1.00  0.00    -0.184 A  
HETATM   27  I   UNL     1      -6.412  15.499  69.796  1.00  0.00    -0.057 I  
HETATM   28  C   UNL     1      -8.599  16.948  67.858  1.00  0.00    -0.208 C  
HETATM   29  C   UNL     1      -9.367  14.909  66.539  1.00  0.00    -0.282 A  
HETATM   30  I   UNL     1     -10.343  16.228  65.117  1.00  0.00     0.469 I  
HETATM   31  O   UNL     1      -8.900  17.371  68.955  1.00  0.00    -0.191 OA 
HETATM   32  O   UNL     1      -8.175  17.738  66.855  1.00  0.00    -0.216 OA 
HETATM   33  C   UNL     1      -9.497  13.495  66.426  1.00  0.00    -0.236 A  
HETATM   34  I   UNL     1      -9.361  10.601  67.631  1.00  0.00    -0.169 I  
HETATM   35  C   UNL     1      -8.777  12.673  67.346  1.00  0.00    -0.191 A  
BRANCH  33  36
HETATM   36  C   UNL     1     -10.450  12.910  65.428  1.00  0.00    -0.292 C  
HETATM   37  O   UNL     1     -10.033  12.452  64.369  1.00  0.00    -0.269 OA 
HETATM   38  N   UNL     1     -11.797  12.898  65.742  1.00  0.00    -0.396 N  
HETATM   39  H   UNL     1     -12.104  13.237  66.654  1.00  0.00     0.000 HD 
BRANCH  38  40
HETATM   40  C   UNL     1     -12.788  12.408  64.784  1.00  0.00    -0.093 C  
BRANCH  40  41
HETATM   41  C   UNL     1     -12.143  12.027  63.453  1.00  0.00    -0.493 C  
HETATM   42  O   UNL     1     -12.024  13.181  62.622  1.00  0.00    -0.567 OA 
HETATM   43  H   UNL     1     -11.623  12.944  61.795  1.00  0.00     0.000 HD 
ENDBRANCH  40  41
ENDBRANCH  38  40
ENDBRANCH  33  36
ENDBRANCH  21  24
ENDBRANCH  19  20
ENDBRANCH  16  19
ENDBRANCH   9  15
BRANCH  13  44
HETATM   44  N   UNL     1      -7.810   4.602  72.832  1.00  0.00    -0.091 N  
HETATM   45  C   UNL     1      -8.973   3.812  72.842  1.00  0.00    -0.097 C  
HETATM   46  O   UNL     1      -9.276   3.151  73.850  1.00  0.00    -0.085 OA 
HETATM   47  C   UNL     1      -7.161   4.620  74.153  1.00  0.00    -0.077 C  
HETATM   48  C   UNL     1      -9.936   3.762  71.708  1.00  0.00    -0.227 C  
ENDBRANCH  13  44
ENDBRANCH   4   6
TORSDOF 9
ENDMDL
MODEL       35
REMARK 921   NORMALIZED FREE ENERGY PREDICTED BY IDOCK:   -1.29 KCAL/MOL
REMARK 922        TOTAL FREE ENERGY PREDICTED BY IDOCK:   -3.09 KCAL/MOL
REMARK 923 INTER-LIGAND FREE ENERGY PREDICTED BY IDOCK:   -3.95 KCAL/MOL
REMARK 924 INTRA-LIGAND FREE ENERGY PREDICTED BY IDOCK:    0.85 KCAL/MOL
REMARK 927      BINDING AFFINITY PREDICTED BY RF-SCORE:    0.00 PKD
ROOT
HETATM    1  C   UNL     1     -13.433   6.782  70.717  1.00  0.00     0.760 C  
HETATM    2  N   UNL     1     -12.141   7.142  70.164  1.00  0.00    -0.589 N  
HETATM    3  H   UNL     1     -12.017   8.071  69.759  1.00  0.00     0.000 HD 
HETATM    4  C   UNL     1     -11.072   6.263  70.169  1.00  0.00    -0.377 C  
HETATM    5  O   UNL     1     -11.117   5.167  70.693  1.00  0.00     0.043 OA 
ENDROOT
BRANCH   4   6
HETATM    6  C   UNL     1      -9.818   6.740  69.483  1.00  0.00    -0.164 A  
HETATM    7  C   UNL     1      -8.960   7.685  70.089  1.00  0.00    -0.146 A  
HETATM    8  I   UNL     1      -9.492   8.519  72.011  1.00  0.00    -0.275 I  
HETATM    9  C   UNL     1      -7.730   8.025  69.460  1.00  0.00    -0.103 A  
HETATM   10  I   UNL     1     -11.220   5.768  66.922  1.00  0.00     1.246 I  
HETATM   11  C   UNL     1      -7.292   7.202  68.373  1.00  0.00    -0.100 A  
HETATM   12  I   UNL     1      -5.150   6.724  68.489  1.00  0.00    -0.013 I  
HETATM   13  C   UNL     1      -8.168   6.336  67.643  1.00  0.00    -0.117 A  
HETATM   14  C   UNL     1      -9.483   6.232  68.201  1.00  0.00    -0.113 A  
BRANCH   9  15
HETATM   15  C   UNL     1      -6.904   9.211  69.932  1.00  0.00    -0.052 C  
HETATM   16  N   UNL     1      -6.263   9.983  68.979  1.00  0.00    -0.044 N  
HETATM   17  O   UNL     1      -6.807   9.528  71.107  1.00  0.00    -0.247 OA 
HETATM   18  H   UNL     1      -6.211   9.664  68.012  1.00  0.00     0.000 HD 
BRANCH  16  19
HETATM   19  C   UNL     1      -5.656  11.261  69.368  1.00  0.00    -0.046 C  
BRANCH  19  20
HETATM   20  C   UNL     1      -6.514  12.500  69.023  1.00  0.00    -0.097 C  
HETATM   21  N   UNL     1      -7.018  12.488  67.726  1.00  0.00    -0.107 N  
HETATM   22  O   UNL     1      -6.778  13.357  69.861  1.00  0.00     0.011 OA 
HETATM   23  H   UNL     1      -6.754  11.727  67.099  1.00  0.00     0.000 HD 
BRANCH  21  24
HETATM   24  C   UNL     1      -7.897  13.513  67.247  1.00  0.00    -0.091 A  
HETATM   25  C   UNL     1      -9.017  13.143  66.468  1.00  0.00    -0.059 A  
HETATM   26  C   UNL     1      -9.925  14.116  65.992  1.00  0.00    -0.340 A  
HETATM   27  I   UNL     1      -9.403  11.056  66.137  1.00  0.00    -0.252 I  
HETATM   28  C   UNL     1     -10.985  13.681  65.025  1.00  0.00    -0.346 C  
HETATM   29  C   UNL     1      -9.746  15.474  66.344  1.00  0.00    -0.283 A  
HETATM   30  I   UNL     1     -11.285  16.905  65.795  1.00  0.00     1.164 I  
HETATM   31  O   UNL     1     -10.713  13.086  64.002  1.00  0.00    -0.400 OA 
HETATM   32  O   UNL     1     -12.247  13.914  65.428  1.00  0.00    -0.393 OA 
HETATM   33  C   UNL     1      -8.598  15.888  67.076  1.00  0.00    -0.245 A  
HETATM   34  I   UNL     1      -5.641  15.480  68.045  1.00  0.00    -0.119 I  
HETATM   35  C   UNL     1      -7.652  14.893  67.472  1.00  0.00    -0.195 A  
BRANCH  33  36
HETATM   36  C   UNL     1      -8.356  17.346  67.325  1.00  0.00    -0.207 C  
HETATM   37  O   UNL     1      -7.792  18.033  66.480  1.00  0.00    -0.233 OA 
HETATM   38  N   UNL     1      -8.793  17.885  68.522  1.00  0.00    -0.294 N  
HETATM   39  H   UNL     1      -9.307  17.298  69.180  1.00  0.00     0.000 HD 
BRANCH  38  40
HETATM   40  C   UNL     1      -8.526  19.283  68.860  1.00  0.00    -0.300 C  
BRANCH  40  41
HETATM   41  C   UNL     1      -9.815  20.099  68.935  1.00  0.00    -0.086 C  
HETATM   42  O   UNL     1     -10.007  20.817  67.717  1.00  0.00    -0.323 OA 
HETATM   43  H   UNL     1     -10.809  21.324  67.764  1.00  0.00     0.000 HD 
ENDBRANCH  40  41
ENDBRANCH  38  40
ENDBRANCH  33  36
ENDBRANCH  21  24
ENDBRANCH  19  20
ENDBRANCH  16  19
ENDBRANCH   9  15
BRANCH  13  44
HETATM   44  N   UNL     1      -7.760   5.510  66.501  1.00  0.00    -0.099 N  
HETATM   45  C   UNL     1      -7.729   4.112  66.361  1.00  0.00    -0.090 C  
HETATM   46  O   UNL     1      -7.450   3.595  65.265  1.00  0.00    -0.074 OA 
HETATM   47  C   UNL     1      -7.302   6.183  65.276  1.00  0.00    -0.073 C  
HETATM   48  C   UNL     1      -7.952   3.172  67.495  1.00  0.00    -0.076 C  
ENDBRANCH  13  44
ENDBRANCH   4   6
TORSDOF 9
ENDMDL
MODEL       36
REMARK 921   NORMALIZED FREE ENERGY PREDICTED BY IDOCK:    1.05 KCAL/MOL
REMARK 922        TOTAL FREE ENERGY PREDICTED BY IDOCK:    0.48 KCAL/MOL
REMARK 923 INTER-LIGAND FREE ENERGY PREDICTED BY IDOCK:   -0.80 KCAL/MOL
REMARK 924 INTRA-LIGAND FREE ENERGY PREDICTED BY IDOCK:    1.28 KCAL/MOL
REMARK 927      BINDING AFFINITY PREDICTED BY RF-SCORE:    0.00 PKD
ROOT
HETATM    1  C   UNL     1      -7.995   1.815  63.246  1.00  0.00    -0.057 C  
HETATM    2  N   UNL     1      -7.997   2.781  64.330  1.00  0.00    -0.081 N  
HETATM    3  H   UNL     1      -8.887   3.162  64.651  1.00  0.00     0.000 HD 
HETATM    4  C   UNL     1      -6.826   3.199  64.939  1.00  0.00    -0.041 C  
HETATM    5  O   UNL     1      -5.735   2.742  64.663  1.00  0.00    -0.013 OA 
ENDROOT
BRANCH   4   6
HETATM    6  C   UNL     1      -6.973   4.269  65.991  1.00  0.00    -0.066 A  
HETATM    7  C   UNL     1      -6.789   5.635  65.683  1.00  0.00    -0.056 A  
HETATM    8  I   UNL     1      -6.217   6.202  63.678  1.00  0.00    -0.030 I  
HETATM    9  C   UNL     1      -7.047   6.621  66.676  1.00  0.00    -0.068 A  
HETATM   10  I   UNL     1      -6.483   1.959  67.964  1.00  0.00    -0.029 I  
HETATM   11  C   UNL     1      -7.731   6.204  67.863  1.00  0.00    -0.102 A  
HETATM   12  I   UNL     1      -9.303   7.617  68.470  1.00  0.00    -0.153 I  
HETATM   13  C   UNL     1      -7.816   4.836  68.279  1.00  0.00    -0.081 A  
HETATM   14  C   UNL     1      -7.305   3.903  67.321  1.00  0.00    -0.068 A  
BRANCH   9  15
HETATM   15  C   UNL     1      -6.622   8.068  66.481  1.00  0.00    -0.055 C  
HETATM   16  N   UNL     1      -6.071   8.740  67.557  1.00  0.00    -0.051 N  
HETATM   17  O   UNL     1      -6.719   8.651  65.411  1.00  0.00    -0.066 OA 
HETATM   18  H   UNL     1      -6.106   8.329  68.490  1.00  0.00     0.000 HD 
BRANCH  16  19
HETATM   19  C   UNL     1      -5.436  10.046  67.350  1.00  0.00    -0.042 C  
BRANCH  19  20
HETATM   20  C   UNL     1      -6.409  11.159  66.898  1.00  0.00    -0.114 C  
HETATM   21  N   UNL     1      -7.540  11.274  67.700  1.00  0.00    -0.102 N  
HETATM   22  O   UNL     1      -6.143  11.910  65.964  1.00  0.00     0.154 OA 
HETATM   23  H   UNL     1      -7.674  10.611  68.464  1.00  0.00     0.000 HD 
BRANCH  21  24
HETATM   24  C   UNL     1      -8.519  12.296  67.484  1.00  0.00    -0.172 A  
HETATM   25  C   UNL     1      -9.449  12.140  66.430  1.00  0.00    -0.233 A  
HETATM   26  C   UNL     1     -10.448  13.112  66.192  1.00  0.00    -0.287 A  
HETATM   27  I   UNL     1      -9.414  10.326  65.279  1.00  0.00    -0.378 I  
HETATM   28  C   UNL     1     -11.285  12.978  64.955  1.00  0.00    -0.302 C  
HETATM   29  C   UNL     1     -10.560  14.229  67.052  1.00  0.00    -0.280 A  
HETATM   30  I   UNL     1     -12.248  15.572  66.803  1.00  0.00     1.860 I  
HETATM   31  O   UNL     1     -10.785  12.873  63.853  1.00  0.00    -0.406 OA 
HETATM   32  O   UNL     1     -12.609  12.885  65.175  1.00  0.00    -0.501 OA 
HETATM   33  C   UNL     1      -9.604  14.447  68.085  1.00  0.00    -0.218 A  
HETATM   34  I   UNL     1      -6.767  14.030  69.361  1.00  0.00     0.021 I  
HETATM   35  C   UNL     1      -8.554  13.492  68.249  1.00  0.00    -0.168 A  
BRANCH  33  36
HETATM   36  C   UNL     1      -9.659  15.703  68.900  1.00  0.00    -0.224 C  
HETATM   37  O   UNL     1      -8.765  16.538  68.810  1.00  0.00    -0.238 OA 
HETATM   38  N   UNL     1     -10.742  15.889  69.740  1.00  0.00    -0.296 N  
HETATM   39  H   UNL     1     -11.495  15.201  69.749  1.00  0.00     0.000 HD 
BRANCH  38  40
HETATM   40  C   UNL     1     -10.823  17.058  70.615  1.00  0.00     0.707 C  
BRANCH  40  41
HETATM   41  C   UNL     1     -11.277  16.677  72.023  1.00  0.00     0.623 C  
HETATM   42  O   UNL     1     -10.845  15.351  72.330  1.00  0.00    -0.172 OA 
HETATM   43  H   UNL     1     -11.127  15.114  73.205  1.00  0.00     0.000 HD 
ENDBRANCH  40  41
ENDBRANCH  38  40
ENDBRANCH  33  36
ENDBRANCH  21  24
ENDBRANCH  19  20
ENDBRANCH  16  19
ENDBRANCH   9  15
BRANCH  13  44
HETATM   44  N   UNL     1      -8.475   4.380  69.508  1.00  0.00    -0.075 N  
HETATM   45  C   UNL     1      -9.502   3.437  69.687  1.00  0.00    -0.153 C  
HETATM   46  O   UNL     1      -9.858   3.103  70.830  1.00  0.00    -0.148 OA 
HETATM   47  C   UNL     1      -8.045   4.956  70.792  1.00  0.00    -0.087 C  
HETATM   48  C   UNL     1     -10.264   2.835  68.558  1.00  0.00     1.451 C  
ENDBRANCH  13  44
ENDBRANCH   4   6
TORSDOF 9
ENDMDL
MODEL       37
REMARK 921   NORMALIZED FREE ENERGY PREDICTED BY IDOCK:    1.36 KCAL/MOL
REMARK 922        TOTAL FREE ENERGY PREDICTED BY IDOCK:    0.95 KCAL/MOL
REMARK 923 INTER-LIGAND FREE ENERGY PREDICTED BY IDOCK:   -4.90 KCAL/MOL
REMARK 924 INTRA-LIGAND FREE ENERGY PREDICTED BY IDOCK:    5.85 KCAL/MOL
REMARK 927      BINDING AFFINITY PREDICTED BY RF-SCORE:    0.00 PKD
ROOT
HETATM    1  C   UNL     1      -6.187   4.054  64.643  1.00  0.00    -0.023 C  
HETATM    2  N   UNL     1      -6.597   5.099  65.563  1.00  0.00    -0.040 N  
HETATM    3  H   UNL     1      -6.662   4.885  66.559  1.00  0.00     0.000 HD 
HETATM    4  C   UNL     1      -6.902   6.378  65.130  1.00  0.00    -0.047 C  
HETATM    5  O   UNL     1      -6.782   6.732  63.973  1.00  0.00    -0.043 OA 
ENDROOT
BRANCH   4   6
HETATM    6  C   UNL     1      -7.396   7.335  66.184  1.00  0.00    -0.075 A  
HETATM    7  C   UNL     1      -6.879   8.645  66.291  1.00  0.00    -0.070 A  
HETATM    8  I   UNL     1      -5.296   9.271  64.959  1.00  0.00    -0.048 I  
HETATM    9  C   UNL     1      -7.450   9.553  67.225  1.00  0.00    -0.091 A  
HETATM   10  I   UNL     1      -8.321   4.779  67.627  1.00  0.00    -0.105 I  
HETATM   11  C   UNL     1      -8.693   9.184  67.833  1.00  0.00    -0.128 A  
HETATM   12  I   UNL     1     -10.123  10.853  67.906  1.00  0.00    -0.237 I  
HETATM   13  C   UNL     1      -9.180   7.838  67.866  1.00  0.00    -0.137 A  
HETATM   14  C   UNL     1      -8.403   6.918  67.092  1.00  0.00    -0.121 A  
BRANCH   9  15
HETATM   15  C   UNL     1      -6.772  10.873  67.558  1.00  0.00    -0.074 C  
HETATM   16  N   UNL     1      -6.215  11.024  68.815  1.00  0.00    -0.043 N  
HETATM   17  O   UNL     1      -6.674  11.790  66.758  1.00  0.00    -0.125 OA 
HETATM   18  H   UNL     1      -6.403  10.336  69.544  1.00  0.00     0.000 HD 
BRANCH  16  19
HETATM   19  C   UNL     1      -5.354  12.179  69.094  1.00  0.00    -0.059 C  
BRANCH  19  20
HETATM   20  C   UNL     1      -6.119  13.509  69.279  1.00  0.00    -0.097 C  
HETATM   21  N   UNL     1      -6.794  13.929  68.138  1.00  0.00    -0.106 N  
HETATM   22  O   UNL     1      -6.177  14.076  70.366  1.00  0.00    -0.166 OA 
HETATM   23  H   UNL     1      -6.698  13.388  67.278  1.00  0.00     0.000 HD 
BRANCH  21  24
HETATM   24  C   UNL     1      -7.620  15.100  68.136  1.00  0.00    -0.112 A  
HETATM   25  C   UNL     1      -9.014  14.952  68.316  1.00  0.00    -0.177 A  
HETATM   26  C   UNL     1      -9.867  16.080  68.344  1.00  0.00    -0.213 A  
HETATM   27  I   UNL     1      -9.807  12.992  68.695  1.00  0.00     0.197 I  
HETATM   28  C   UNL     1     -11.348  15.846  68.357  1.00  0.00    -0.361 C  
HETATM   29  C   UNL     1      -9.317  17.379  68.247  1.00  0.00    -0.278 A  
HETATM   30  I   UNL     1     -10.625  19.089  68.531  1.00  0.00     0.504 I  
HETATM   31  O   UNL     1     -11.894  15.153  67.523  1.00  0.00    -0.283 OA 
HETATM   32  O   UNL     1     -11.995  16.378  69.410  1.00  0.00    -0.053 OA 
HETATM   33  C   UNL     1      -7.926  17.560  68.005  1.00  0.00    -0.234 A  
HETATM   34  I   UNL     1      -5.145  16.546  66.962  1.00  0.00     0.247 I  
HETATM   35  C   UNL     1      -7.099  16.400  67.897  1.00  0.00    -0.135 A  
BRANCH  33  36
HETATM   36  C   UNL     1      -7.382  18.937  67.772  1.00  0.00    -0.234 C  
HETATM   37  O   UNL     1      -7.688  19.561  66.761  1.00  0.00    -0.241 OA 
HETATM   38  N   UNL     1      -6.538  19.476  68.727  1.00  0.00    -0.281 N  
HETATM   39  H   UNL     1      -6.348  18.953  69.582  1.00  0.00     0.000 HD 
BRANCH  38  40
HETATM   40  C   UNL     1      -5.916  20.784  68.529  1.00  0.00    -0.353 C  
BRANCH  40  41
HETATM   41  C   UNL     1      -5.293  20.906  67.140  1.00  0.00    -0.203 C  
HETATM   42  O   UNL     1      -6.268  21.374  66.209  1.00  0.00    -0.380 OA 
HETATM   43  H   UNL     1      -5.880  21.450  65.345  1.00  0.00     0.000 HD 
ENDBRANCH  40  41
ENDBRANCH  38  40
ENDBRANCH  33  36
ENDBRANCH  21  24
ENDBRANCH  19  20
ENDBRANCH  16  19
ENDBRANCH   9  15
BRANCH  13  44
HETATM   44  N   UNL     1     -10.429   7.421  68.514  1.00  0.00    -0.197 N  
HETATM   45  C   UNL     1     -10.779   7.402  69.875  1.00  0.00    -0.243 C  
HETATM   46  O   UNL     1     -11.937   7.113  70.224  1.00  0.00    -0.198 OA 
HETATM   47  C   UNL     1     -11.532   6.937  67.669  1.00  0.00     0.348 C  
HETATM   48  C   UNL     1      -9.805   7.653  70.973  1.00  0.00    -0.181 C  
ENDBRANCH  13  44
ENDBRANCH   4   6
TORSDOF 9
ENDMDL
MODEL       38
REMARK 921   NORMALIZED FREE ENERGY PREDICTED BY IDOCK:    2.19 KCAL/MOL
REMARK 922        TOTAL FREE ENERGY PREDICTED BY IDOCK:    2.23 KCAL/MOL
REMARK 923 INTER-LIGAND FREE ENERGY PREDICTED BY IDOCK:    1.11 KCAL/MOL
REMARK 924 INTRA-LIGAND FREE ENERGY PREDICTED BY IDOCK:    1.12 KCAL/MOL
REMARK 927      BINDING AFFINITY PREDICTED BY RF-SCORE:    0.00 PKD
ROOT
HETATM    1  C   UNL     1     -12.267   6.009  71.308  1.00  0.00     0.448 C  
HETATM    2  N   UNL     1     -11.335   6.409  70.269  1.00  0.00    -0.378 N  
HETATM    3  H   UNL     1     -11.675   6.974  69.490  1.00  0.00     0.000 HD 
HETATM    4  C   UNL     1      -9.999   6.046  70.304  1.00  0.00    -0.187 C  
HETATM    5  O   UNL     1      -9.502   5.436  71.230  1.00  0.00    -0.145 OA 
ENDROOT
BRANCH   4   6
HETATM    6  C   UNL     1      -9.169   6.459  69.116  1.00  0.00    -0.133 A  
HETATM    7  C   UNL     1      -8.427   7.660  69.117  1.00  0.00    -0.138 A  
HETATM    8  I   UNL     1      -8.536   8.972  70.831  1.00  0.00    -0.158 I  
HETATM    9  C   UNL     1      -7.567   7.958  68.022  1.00  0.00    -0.113 A  
HETATM   10  I   UNL     1     -11.001   4.535  67.563  1.00  0.00     3.996 I  
HETATM   11  C   UNL     1      -7.294   6.906  67.090  1.00  0.00    -0.090 A  
HETATM   12  I   UNL     1      -5.168   6.803  66.537  1.00  0.00    -0.019 I  
HETATM   13  C   UNL     1      -8.111   5.736  66.966  1.00  0.00    -0.102 A  
HETATM   14  C   UNL     1      -9.126   5.626  67.969  1.00  0.00    -0.107 A  
BRANCH   9  15
HETATM   15  C   UNL     1      -6.953   9.338  67.854  1.00  0.00    -0.077 C  
HETATM   16  N   UNL     1      -6.961   9.909  66.594  1.00  0.00    -0.084 N  
HETATM   17  O   UNL     1      -6.481   9.974  68.784  1.00  0.00    -0.045 OA 
HETATM   18  H   UNL     1      -7.219   9.351  65.780  1.00  0.00     0.000 HD 
BRANCH  16  19
HETATM   19  C   UNL     1      -6.597  11.322  66.434  1.00  0.00    -0.069 C  
BRANCH  19  20
HETATM   20  C   UNL     1      -7.294  12.272  67.434  1.00  0.00    -0.151 C  
HETATM   21  N   UNL     1      -8.631  12.513  67.139  1.00  0.00    -0.195 N  
HETATM   22  O   UNL     1      -6.718  12.694  68.434  1.00  0.00    -0.069 OA 
HETATM   23  H   UNL     1      -9.031  12.112  66.290  1.00  0.00     0.000 HD 
BRANCH  21  24
HETATM   24  C   UNL     1      -9.463  13.308  67.993  1.00  0.00    -0.219 A  
HETATM   25  C   UNL     1     -10.524  12.683  68.687  1.00  0.00    -0.205 A  
HETATM   26  C   UNL     1     -11.358  13.421  69.558  1.00  0.00    -0.248 A  
HETATM   27  I   UNL     1     -10.764  10.555  68.511  1.00  0.00    -0.343 I  
HETATM   28  C   UNL     1     -12.571  12.742  70.120  1.00  0.00     0.079 C  
HETATM   29  C   UNL     1     -11.096  14.792  69.785  1.00  0.00    -0.258 A  
HETATM   30  I   UNL     1     -12.246  15.835  71.304  1.00  0.00    -0.391 I  
HETATM   31  O   UNL     1     -13.390  12.200  69.407  1.00  0.00     1.739 OA 
HETATM   32  O   UNL     1     -12.622  12.699  71.464  1.00  0.00    -0.270 OA 
HETATM   33  C   UNL     1     -10.074  15.465  69.058  1.00  0.00    -0.234 A  
HETATM   34  I   UNL     1      -8.167  15.741  66.581  1.00  0.00    -0.054 I  
HETATM   35  C   UNL     1      -9.302  14.713  68.121  1.00  0.00    -0.197 A  
BRANCH  33  36
HETATM   36  C   UNL     1      -9.899  16.945  69.212  1.00  0.00    -0.152 C  
HETATM   37  O   UNL     1      -9.111  17.393  70.039  1.00  0.00     1.239 OA 
HETATM   38  N   UNL     1     -10.642  17.779  68.395  1.00  0.00    -0.334 N  
HETATM   39  H   UNL     1     -11.247  17.374  67.681  1.00  0.00     0.000 HD 
BRANCH  38  40
HETATM   40  C   UNL     1     -10.573  19.233  68.542  1.00  0.00     0.009 C  
BRANCH  40  41
HETATM   41  C   UNL     1     -10.337  19.923  67.200  1.00  0.00    -0.446 C  
HETATM   42  O   UNL     1     -10.854  19.117  66.142  1.00  0.00    -0.366 OA 
HETATM   43  H   UNL     1     -10.708  19.546  65.308  1.00  0.00     0.000 HD 
ENDBRANCH  40  41
ENDBRANCH  38  40
ENDBRANCH  33  36
ENDBRANCH  21  24
ENDBRANCH  19  20
ENDBRANCH  16  19
ENDBRANCH   9  15
BRANCH  13  44
HETATM   44  N   UNL     1      -7.880   4.660  65.995  1.00  0.00    -0.095 N  
HETATM   45  C   UNL     1      -7.656   4.725  64.609  1.00  0.00    -0.076 C  
HETATM   46  O   UNL     1      -7.371   3.698  63.969  1.00  0.00    -0.057 OA 
HETATM   47  C   UNL     1      -7.866   3.270  66.477  1.00  0.00    -0.081 C  
HETATM   48  C   UNL     1      -7.805   5.976  63.815  1.00  0.00    -0.112 C  
ENDBRANCH  13  44
ENDBRANCH   4   6
TORSDOF 9
ENDMDL
MODEL       39
REMARK 921   NORMALIZED FREE ENERGY PREDICTED BY IDOCK:    2.23 KCAL/MOL
REMARK 922        TOTAL FREE ENERGY PREDICTED BY IDOCK:    2.29 KCAL/MOL
REMARK 923 INTER-LIGAND FREE ENERGY PREDICTED BY IDOCK:   -3.74 KCAL/MOL
REMARK 924 INTRA-LIGAND FREE ENERGY PREDICTED BY IDOCK:    6.03 KCAL/MOL
REMARK 927      BINDING AFFINITY PREDICTED BY RF-SCORE:    0.00 PKD
ROOT
HETATM    1  C   UNL     1      -6.979  20.399  67.612  1.00  0.00    -0.304 C  
HETATM    2  N   UNL     1      -7.286  18.994  67.421  1.00  0.00    -0.227 N  
HETATM    3  H   UNL     1      -7.471  18.650  66.478  1.00  0.00     0.000 HD 
HETATM    4  C   UNL     1      -7.335  18.105  68.482  1.00  0.00    -0.278 C  
HETATM    5  O   UNL     1      -7.060  18.419  69.623  1.00  0.00    -0.028 OA 
ENDROOT
BRANCH   4   6
HETATM    6  C   UNL     1      -7.750  16.696  68.147  1.00  0.00    -0.173 A  
HETATM    7  C   UNL     1      -6.991  15.583  68.570  1.00  0.00    -0.114 A  
HETATM    8  I   UNL     1      -5.156  15.907  69.664  1.00  0.00    -0.124 I  
HETATM    9  C   UNL     1      -7.476  14.267  68.331  1.00  0.00    -0.122 A  
HETATM   10  I   UNL     1      -9.363  18.038  65.895  1.00  0.00     0.704 I  
HETATM   11  C   UNL     1      -8.836  14.129  67.903  1.00  0.00    -0.182 A  
HETATM   12  I   UNL     1      -9.886  12.503  68.945  1.00  0.00     0.512 I  
HETATM   13  C   UNL     1      -9.592  15.206  67.337  1.00  0.00    -0.208 A  
HETATM   14  C   UNL     1      -8.930  16.474  67.390  1.00  0.00    -0.199 A  
BRANCH   9  15
HETATM   15  C   UNL     1      -6.588  13.050  68.532  1.00  0.00    -0.088 C  
HETATM   16  N   UNL     1      -5.897  12.933  69.725  1.00  0.00    -0.111 N  
HETATM   17  O   UNL     1      -6.481  12.160  67.702  1.00  0.00    -0.082 OA 
HETATM   18  H   UNL     1      -5.857  13.720  70.372  1.00  0.00     0.000 HD 
BRANCH  16  19
HETATM   19  C   UNL     1      -5.222  11.672  70.053  1.00  0.00    -0.079 C  
BRANCH  19  20
HETATM   20  C   UNL     1      -6.131  10.426  69.968  1.00  0.00    -0.083 C  
HETATM   21  N   UNL     1      -5.818   9.576  68.913  1.00  0.00    -0.039 N  
HETATM   22  O   UNL     1      -6.988  10.192  70.815  1.00  0.00    -0.329 OA 
HETATM   23  H   UNL     1      -5.080   9.846  68.261  1.00  0.00     0.000 HD 
BRANCH  21  24
HETATM   24  C   UNL     1      -6.500   8.332  68.715  1.00  0.00    -0.053 A  
HETATM   25  C   UNL     1      -7.215   8.129  67.512  1.00  0.00    -0.091 A  
HETATM   26  C   UNL     1      -7.885   6.909  67.262  1.00  0.00    -0.110 A  
HETATM   27  I   UNL     1      -7.147   9.651  65.998  1.00  0.00    -0.110 I  
HETATM   28  C   UNL     1      -8.771   6.824  66.054  1.00  0.00    -0.146 C  
HETATM   29  C   UNL     1      -7.796   5.854  68.199  1.00  0.00    -0.105 A  
HETATM   30  I   UNL     1      -8.636   3.921  67.677  1.00  0.00    -0.143 I  
HETATM   31  O   UNL     1      -9.655   7.630  65.852  1.00  0.00     0.007 OA 
HETATM   32  O   UNL     1      -8.443   5.854  65.181  1.00  0.00    -0.151 OA 
HETATM   33  C   UNL     1      -7.135   6.046  69.446  1.00  0.00    -0.066 A  
HETATM   34  I   UNL     1      -6.052   7.885  71.747  1.00  0.00    -0.043 I  
HETATM   35  C   UNL     1      -6.539   7.318  69.708  1.00  0.00    -0.040 A  
BRANCH  33  36
HETATM   36  C   UNL     1      -7.166   4.964  70.482  1.00  0.00    -0.053 C  
HETATM   37  O   UNL     1      -6.353   4.963  71.400  1.00  0.00    -0.024 OA 
HETATM   38  N   UNL     1      -8.135   3.982  70.371  1.00  0.00    -0.054 N  
HETATM   39  H   UNL     1      -8.829   4.043  69.627  1.00  0.00     0.000 HD 
BRANCH  38  40
HETATM   40  C   UNL     1      -8.176   2.858  71.306  1.00  0.00    -0.062 C  
BRANCH  40  41
HETATM   41  C   UNL     1      -9.469   2.851  72.119  1.00  0.00    -0.128 C  
HETATM   42  O   UNL     1      -9.168   2.948  73.511  1.00  0.00    -0.084 OA 
HETATM   43  H   UNL     1      -9.972   2.944  74.017  1.00  0.00     0.000 HD 
ENDBRANCH  40  41
ENDBRANCH  38  40
ENDBRANCH  33  36
ENDBRANCH  21  24
ENDBRANCH  19  20
ENDBRANCH  16  19
ENDBRANCH   9  15
BRANCH  13  44
HETATM   44  N   UNL     1     -10.973  15.088  66.854  1.00  0.00    -0.320 N  
HETATM   45  C   UNL     1     -11.525  14.221  65.895  1.00  0.00    -0.335 C  
HETATM   46  O   UNL     1     -12.752  14.200  65.697  1.00  0.00    -0.514 OA 
HETATM   47  C   UNL     1     -11.993  15.985  67.417  1.00  0.00     0.780 C  
HETATM   48  C   UNL     1     -10.702  13.338  65.022  1.00  0.00    -0.346 C  
ENDBRANCH  13  44
ENDBRANCH   4   6
TORSDOF 9
ENDMDL
MODEL       40
REMARK 921   NORMALIZED FREE ENERGY PREDICTED BY IDOCK:    2.89 KCAL/MOL
REMARK 922        TOTAL FREE ENERGY PREDICTED BY IDOCK:    3.30 KCAL/MOL
REMARK 923 INTER-LIGAND FREE ENERGY PREDICTED BY IDOCK:   -4.28 KCAL/MOL
REMARK 924 INTRA-LIGAND FREE ENERGY PREDICTED BY IDOCK:    7.58 KCAL/MOL
REMARK 927      BINDING AFFINITY PREDICTED BY RF-SCORE:    0.00 PKD
ROOT
HETATM    1  C   UNL     1     -10.811  15.195  72.411  1.00  0.00     0.856 C  
HETATM    2  N   UNL     1     -10.513  15.009  71.003  1.00  0.00    -0.353 N  
HETATM    3  H   UNL     1      -9.603  15.302  70.646  1.00  0.00     0.000 HD 
HETATM    4  C   UNL     1     -11.428  14.446  70.129  1.00  0.00    -0.220 C  
HETATM    5  O   UNL     1     -12.504  14.008  70.487  1.00  0.00    -0.331 OA 
ENDROOT
BRANCH   4   6
HETATM    6  C   UNL     1     -11.016  14.395  68.680  1.00  0.00    -0.264 A  
HETATM    7  C   UNL     1     -11.084  13.196  67.936  1.00  0.00    -0.262 A  
HETATM    8  I   UNL     1     -11.727  11.379  68.913  1.00  0.00    -0.352 I  
HETATM    9  C   UNL     1     -10.794  13.214  66.543  1.00  0.00    -0.291 A  
HETATM   10  I   UNL     1      -9.435  16.945  69.363  1.00  0.00     0.542 I  
HETATM   11  C   UNL     1     -10.699  14.492  65.903  1.00  0.00    -0.305 A  
HETATM   12  I   UNL     1     -11.734  14.540  63.964  1.00  0.00     0.468 I  
HETATM   13  C   UNL     1     -10.488  15.714  66.619  1.00  0.00    -0.301 A  
HETATM   14  C   UNL     1     -10.550  15.573  68.042  1.00  0.00    -0.270 A  
BRANCH   9  15
HETATM   15  C   UNL     1     -10.602  11.925  65.761  1.00  0.00    -0.267 C  
HETATM   16  N   UNL     1      -9.312  11.536  65.446  1.00  0.00    -0.329 N  
HETATM   17  O   UNL     1     -11.531  11.207  65.425  1.00  0.00     0.074 OA 
HETATM   18  H   UNL     1      -8.534  12.179  65.589  1.00  0.00     0.000 HD 
BRANCH  16  19
HETATM   19  C   UNL     1      -9.071  10.194  64.904  1.00  0.00    -0.215 C  
BRANCH  19  20
HETATM   20  C   UNL     1      -9.085   9.071  65.966  1.00  0.00    -0.208 C  
HETATM   21  N   UNL     1      -7.850   8.854  66.568  1.00  0.00    -0.099 N  
HETATM   22  O   UNL     1     -10.123   8.497  66.287  1.00  0.00    -0.258 OA 
HETATM   23  H   UNL     1      -7.042   9.385  66.245  1.00  0.00     0.000 HD 
BRANCH  21  24
HETATM   24  C   UNL     1      -7.682   7.906  67.629  1.00  0.00    -0.117 A  
HETATM   25  C   UNL     1      -7.806   6.528  67.340  1.00  0.00    -0.112 A  
HETATM   26  C   UNL     1      -7.627   5.554  68.349  1.00  0.00    -0.084 A  
HETATM   27  I   UNL     1      -8.131   5.923  65.304  1.00  0.00    -0.132 I  
HETATM   28  C   UNL     1      -7.949   4.127  68.020  1.00  0.00    -0.085 C  
HETATM   29  C   UNL     1      -7.262   5.956  69.655  1.00  0.00    -0.070 A  
HETATM   30  I   UNL     1      -6.764   4.427  71.115  1.00  0.00    -0.033 I  
HETATM   31  O   UNL     1      -9.026   3.803  67.563  1.00  0.00    -0.114 OA 
HETATM   32  O   UNL     1      -6.927   3.266  68.178  1.00  0.00    -0.048 OA 
HETATM   33  C   UNL     1      -7.187   7.336  69.994  1.00  0.00    -0.078 A  
HETATM   34  I   UNL     1      -7.944  10.345  69.521  1.00  0.00     0.033 I  
HETATM   35  C   UNL     1      -7.457   8.300  68.975  1.00  0.00    -0.091 A  
BRANCH  33  36
HETATM   36  C   UNL     1      -6.931   7.744  71.413  1.00  0.00    -0.053 C  
HETATM   37  O   UNL     1      -6.485   8.858  71.667  1.00  0.00    -0.078 OA 
HETATM   38  N   UNL     1      -7.219   6.834  72.416  1.00  0.00    -0.085 N  
HETATM   39  H   UNL     1      -7.641   5.937  72.174  1.00  0.00     0.000 HD 
BRANCH  38  40
HETATM   40  C   UNL     1      -6.927   7.140  73.816  1.00  0.00    -0.076 C  
BRANCH  40  41
HETATM   41  C   UNL     1      -7.419   8.534  74.201  1.00  0.00    -0.101 C  
HETATM   42  O   UNL     1      -6.309   9.363  74.543  1.00  0.00    -0.357 OA 
HETATM   43  H   UNL     1      -6.615  10.230  74.782  1.00  0.00     0.000 HD 
ENDBRANCH  40  41
ENDBRANCH  38  40
ENDBRANCH  33  36
ENDBRANCH  21  24
ENDBRANCH  19  20
ENDBRANCH  16  19
ENDBRANCH   9  15
BRANCH  13  44
HETATM   44  N   UNL     1     -10.347  17.032  65.990  1.00  0.00    -0.344 N  
HETATM   45  C   UNL     1      -9.424  18.061  66.243  1.00  0.00    -0.220 C  
HETATM   46  O   UNL     1      -9.398  19.075  65.524  1.00  0.00    -0.147 OA 
HETATM   47  C   UNL     1     -11.285  17.403  64.919  1.00  0.00     0.735 C  
HETATM   48  C   UNL     1      -8.482  18.048  67.396  1.00  0.00    -0.240 C  
ENDBRANCH  13  44
ENDBRANCH   4   6
TORSDOF 9
ENDMDL
MODEL       41
REMARK 921   NORMALIZED FREE ENERGY PREDICTED BY IDOCK:    3.19 KCAL/MOL
REMARK 922        TOTAL FREE ENERGY PREDICTED BY IDOCK:    3.74 KCAL/MOL
REMARK 923 INTER-LIGAND FREE ENERGY PREDICTED BY IDOCK:    1.30 KCAL/MOL
REMARK 924 INTRA-LIGAND FREE ENERGY PREDICTED BY IDOCK:    2.45 KCAL/MOL
REMARK 927      BINDING AFFINITY PREDICTED BY RF-SCORE:    0.00 PKD
ROOT
HETATM    1  C   UNL     1     -12.103  11.539  64.949  1.00  0.00     0.446 C  
HETATM    2  N   UNL     1     -10.819  11.459  65.621  1.00  0.00    -0.251 N  
HETATM    3  H   UNL     1     -10.232  12.293  65.668  1.00  0.00     0.000 HD 
HETATM    4  C   UNL     1     -10.368  10.286  66.201  1.00  0.00    -0.183 C  
HETATM    5  O   UNL     1     -11.036   9.271  66.251  1.00  0.00     0.322 OA 
ENDROOT
BRANCH   4   6
HETATM    6  C   UNL     1      -8.981  10.328  66.788  1.00  0.00    -0.147 A  
HETATM    7  C   UNL     1      -8.422  11.530  67.276  1.00  0.00    -0.152 A  
HETATM    8  I   UNL     1      -9.553  13.365  67.115  1.00  0.00    -0.263 I  
HETATM    9  C   UNL     1      -7.156  11.505  67.925  1.00  0.00    -0.076 A  
HETATM   10  I   UNL     1      -8.567   7.726  65.198  1.00  0.00     0.248 I  
HETATM   11  C   UNL     1      -6.621  10.227  68.288  1.00  0.00    -0.057 A  
HETATM   12  I   UNL     1      -5.763  10.217  70.311  1.00  0.00    -0.098 I  
HETATM   13  C   UNL     1      -7.069   8.997  67.707  1.00  0.00    -0.079 A  
HETATM   14  C   UNL     1      -8.214   9.136  66.858  1.00  0.00    -0.116 A  
BRANCH   9  15
HETATM   15  C   UNL     1      -6.403  12.790  68.233  1.00  0.00    -0.078 C  
HETATM   16  N   UNL     1      -6.134  13.090  69.556  1.00  0.00    -0.108 N  
HETATM   17  O   UNL     1      -6.002  13.550  67.365  1.00  0.00    -0.341 OA 
HETATM   18  H   UNL     1      -6.574  12.552  70.303  1.00  0.00     0.000 HD 
BRANCH  16  19
HETATM   19  C   UNL     1      -5.213  14.186  69.880  1.00  0.00    -0.093 C  
BRANCH  19  20
HETATM   20  C   UNL     1      -5.795  15.596  69.630  1.00  0.00    -0.128 C  
HETATM   21  N   UNL     1      -6.661  15.659  68.544  1.00  0.00    -0.111 N  
HETATM   22  O   UNL     1      -5.562  16.535  70.386  1.00  0.00    -0.194 OA 
HETATM   23  H   UNL     1      -6.805  14.824  67.975  1.00  0.00     0.000 HD 
BRANCH  21  24
HETATM   24  C   UNL     1      -7.357  16.864  68.201  1.00  0.00    -0.179 A  
HETATM   25  C   UNL     1      -8.672  17.054  68.684  1.00  0.00    -0.261 A  
HETATM   26  C   UNL     1      -9.391  18.236  68.391  1.00  0.00    -0.328 A  
HETATM   27  I   UNL     1      -9.515  15.577  69.998  1.00  0.00     0.888 I  
HETATM   28  C   UNL     1     -10.838  18.297  68.779  1.00  0.00     0.505 C  
HETATM   29  C   UNL     1      -8.770  19.270  67.653  1.00  0.00    -0.296 A  
HETATM   30  I   UNL     1      -9.814  21.160  67.425  1.00  0.00     1.524 I  
HETATM   31  O   UNL     1     -11.630  17.444  68.434  1.00  0.00     0.380 OA 
HETATM   32  O   UNL     1     -11.158  19.307  69.608  1.00  0.00     1.816 OA 
HETATM   33  C   UNL     1      -7.470  19.086  67.101  1.00  0.00    -0.240 A  
HETATM   34  I   UNL     1      -5.130  17.260  66.085  1.00  0.00     0.400 I  
HETATM   35  C   UNL     1      -6.800  17.848  67.342  1.00  0.00    -0.181 A  
BRANCH  33  36
HETATM   36  C   UNL     1      -6.882  20.138  66.210  1.00  0.00    -0.239 C  
HETATM   37  O   UNL     1      -5.974  20.856  66.615  1.00  0.00    -0.206 OA 
HETATM   38  N   UNL     1      -7.389  20.264  64.929  1.00  0.00    -0.181 N  
HETATM   39  H   UNL     1      -8.106  19.615  64.605  1.00  0.00     0.000 HD 
BRANCH  38  40
HETATM   40  C   UNL     1      -6.910  21.316  64.032  1.00  0.00     0.249 C  
BRANCH  40  41
HETATM   41  C   UNL     1      -5.705  20.854  63.215  1.00  0.00    -0.255 C  
HETATM   42  O   UNL     1      -5.781  19.446  62.991  1.00  0.00    -0.360 OA 
HETATM   43  H   UNL     1      -5.032  19.159  62.483  1.00  0.00     0.000 HD 
ENDBRANCH  40  41
ENDBRANCH  38  40
ENDBRANCH  33  36
ENDBRANCH  21  24
ENDBRANCH  19  20
ENDBRANCH  16  19
ENDBRANCH   9  15
BRANCH  13  44
HETATM   44  N   UNL     1      -6.516   7.676  68.027  1.00  0.00    -0.052 N  
HETATM   45  C   UNL     1      -6.894   6.754  69.018  1.00  0.00    -0.069 C  
HETATM   46  O   UNL     1      -6.367   5.629  69.064  1.00  0.00    -0.034 OA 
HETATM   47  C   UNL     1      -5.388   7.174  67.227  1.00  0.00    -0.017 C  
HETATM   48  C   UNL     1      -7.872   7.068  70.096  1.00  0.00    -0.109 C  
ENDBRANCH  13  44
ENDBRANCH   4   6
TORSDOF 9
ENDMDL
MODEL       42
REMARK 921   NORMALIZED FREE ENERGY PREDICTED BY IDOCK:    3.21 KCAL/MOL
REMARK 922        TOTAL FREE ENERGY PREDICTED BY IDOCK:    3.78 KCAL/MOL
REMARK 923 INTER-LIGAND FREE ENERGY PREDICTED BY IDOCK:    0.76 KCAL/MOL
REMARK 924 INTRA-LIGAND FREE ENERGY PREDICTED BY IDOCK:    3.02 KCAL/MOL
REMARK 927      BINDING AFFINITY PREDICTED BY RF-SCORE:    0.00 PKD
ROOT
HETATM    1  C   UNL     1     -10.497  15.340  72.862  1.00  0.00     3.014 C  
HETATM    2  N   UNL     1     -10.251  15.310  71.432  1.00  0.00     0.233 N  
HETATM    3  H   UNL     1      -9.337  15.599  71.081  1.00  0.00     0.000 HD 
HETATM    4  C   UNL     1     -11.218  14.900  70.530  1.00  0.00    -0.202 C  
HETATM    5  O   UNL     1     -12.305  14.474  70.872  1.00  0.00    -0.299 OA 
ENDROOT
BRANCH   4   6
HETATM    6  C   UNL     1     -10.852  15.002  69.072  1.00  0.00    -0.242 A  
HETATM    7  C   UNL     1     -11.030  13.914  68.189  1.00  0.00    -0.249 A  
HETATM    8  I   UNL     1     -11.780  12.038  68.957  1.00  0.00    -0.334 I  
HETATM    9  C   UNL     1     -10.778  14.087  66.799  1.00  0.00    -0.285 A  
HETATM   10  I   UNL     1      -9.066  17.328  70.006  1.00  0.00     2.998 I  
HETATM   11  C   UNL     1     -10.606  15.425  66.318  1.00  0.00    -0.308 A  
HETATM   12  I   UNL     1     -11.688  15.790  64.440  1.00  0.00     0.527 I  
HETATM   13  C   UNL     1     -10.284  16.529  67.172  1.00  0.00    -0.284 A  
HETATM   14  C   UNL     1     -10.317  16.215  68.568  1.00  0.00    -0.254 A  
BRANCH   9  15
HETATM   15  C   UNL     1     -10.705  12.897  65.857  1.00  0.00    -0.271 C  
HETATM   16  N   UNL     1      -9.478  12.569  65.310  1.00  0.00    -0.449 N  
HETATM   17  O   UNL     1     -11.674  12.203  65.585  1.00  0.00    -0.375 OA 
HETATM   18  H   UNL     1      -8.688  13.206  65.405  1.00  0.00     0.000 HD 
BRANCH  16  19
HETATM   19  C   UNL     1      -9.319  11.299  64.590  1.00  0.00    -0.135 C  
BRANCH  19  20
HETATM   20  C   UNL     1      -9.218  10.060  65.508  1.00  0.00    -0.198 C  
HETATM   21  N   UNL     1      -7.921   9.770  65.917  1.00  0.00    -0.109 N  
HETATM   22  O   UNL     1     -10.217   9.457  65.891  1.00  0.00    -0.259 OA 
HETATM   23  H   UNL     1      -7.151  10.333  65.556  1.00  0.00     0.000 HD 
BRANCH  21  24
HETATM   24  C   UNL     1      -7.637   8.704  66.831  1.00  0.00    -0.084 A  
HETATM   25  C   UNL     1      -7.386   9.016  68.187  1.00  0.00    -0.083 A  
HETATM   26  C   UNL     1      -7.123   7.996  69.131  1.00  0.00    -0.068 A  
HETATM   27  I   UNL     1      -7.553  11.060  68.827  1.00  0.00    -0.116 I  
HETATM   28  C   UNL     1      -6.688   8.402  70.507  1.00  0.00    -0.037 C  
HETATM   29  C   UNL     1      -7.166   6.641  68.730  1.00  0.00    -0.085 A  
HETATM   30  I   UNL     1      -6.993   5.099  70.249  1.00  0.00    -0.056 I  
HETATM   31  O   UNL     1      -5.744   9.145  70.687  1.00  0.00    -0.031 OA 
HETATM   32  O   UNL     1      -7.478   7.961  71.503  1.00  0.00    -0.066 OA 
HETATM   33  C   UNL     1      -7.357   6.296  67.362  1.00  0.00    -0.084 A  
HETATM   34  I   UNL     1      -7.241   6.966  64.298  1.00  0.00    -0.087 I  
HETATM   35  C   UNL     1      -7.536   7.350  66.415  1.00  0.00    -0.088 A  
BRANCH  33  36
HETATM   36  C   UNL     1      -7.267   4.862  66.934  1.00  0.00    -0.077 C  
HETATM   37  O   UNL     1      -7.689   4.516  65.836  1.00  0.00    -0.092 OA 
HETATM   38  N   UNL     1      -6.691   3.956  67.807  1.00  0.00    -0.046 N  
HETATM   39  H   UNL     1      -6.300   4.287  68.689  1.00  0.00     0.000 HD 
BRANCH  38  40
HETATM   40  C   UNL     1      -6.635   2.531  67.483  1.00  0.00    -0.036 C  
BRANCH  40  41
HETATM   41  C   UNL     1      -6.221   2.300  66.031  1.00  0.00    -0.024 C  
HETATM   42  O   UNL     1      -7.292   1.688  65.312  1.00  0.00    -0.051 OA 
HETATM   43  H   UNL     1      -7.034   1.545  64.409  1.00  0.00     0.000 HD 
ENDBRANCH  40  41
ENDBRANCH  38  40
ENDBRANCH  33  36
ENDBRANCH  21  24
ENDBRANCH  19  20
ENDBRANCH  16  19
ENDBRANCH   9  15
BRANCH  13  44
HETATM   44  N   UNL     1     -10.063  17.903  66.706  1.00  0.00    -0.332 N  
HETATM   45  C   UNL     1      -8.989  18.452  65.984  1.00  0.00     0.045 C  
HETATM   46  O   UNL     1      -9.034  19.629  65.585  1.00  0.00    -0.325 OA 
HETATM   47  C   UNL     1     -11.085  18.919  67.003  1.00  0.00     0.032 C  
HETATM   48  C   UNL     1      -7.726  17.712  65.711  1.00  0.00     0.035 C  
ENDBRANCH  13  44
ENDBRANCH   4   6
TORSDOF 9
ENDMDL
MODEL       43
REMARK 921   NORMALIZED FREE ENERGY PREDICTED BY IDOCK:    3.88 KCAL/MOL
REMARK 922        TOTAL FREE ENERGY PREDICTED BY IDOCK:    4.81 KCAL/MOL
REMARK 923 INTER-LIGAND FREE ENERGY PREDICTED BY IDOCK:    1.00 KCAL/MOL
REMARK 924 INTRA-LIGAND FREE ENERGY PREDICTED BY IDOCK:    3.80 KCAL/MOL
REMARK 927      BINDING AFFINITY PREDICTED BY RF-SCORE:    0.00 PKD
ROOT
HETATM    1  C   UNL     1     -12.267   6.009  71.308  1.00  0.00     0.448 C  
HETATM    2  N   UNL     1     -11.326   6.414  70.279  1.00  0.00    -0.378 N  
HETATM    3  H   UNL     1     -11.660   6.979  69.498  1.00  0.00     0.000 HD 
HETATM    4  C   UNL     1      -9.990   6.055  70.326  1.00  0.00    -0.187 C  
HETATM    5  O   UNL     1      -9.500   5.445  71.256  1.00  0.00    -0.145 OA 
ENDROOT
BRANCH   4   6
HETATM    6  C   UNL     1      -9.150   6.473  69.147  1.00  0.00    -0.136 A  
HETATM    7  C   UNL     1      -8.411   7.676  69.157  1.00  0.00    -0.131 A  
HETATM    8  I   UNL     1      -8.541   8.984  70.872  1.00  0.00    -0.158 I  
HETATM    9  C   UNL     1      -7.542   7.978  68.072  1.00  0.00    -0.112 A  
HETATM   10  I   UNL     1     -10.960   4.546  67.572  1.00  0.00     3.996 I  
HETATM   11  C   UNL     1      -7.256   6.929  67.140  1.00  0.00    -0.085 A  
HETATM   12  I   UNL     1      -5.125   6.834  66.607  1.00  0.00    -0.018 I  
HETATM   13  C   UNL     1      -8.068   5.757  67.006  1.00  0.00    -0.102 A  
HETATM   14  C   UNL     1      -9.093   5.642  67.998  1.00  0.00    -0.107 A  
BRANCH   9  15
HETATM   15  C   UNL     1      -6.930   9.361  67.912  1.00  0.00    -0.080 C  
HETATM   16  N   UNL     1      -6.928   9.934  66.653  1.00  0.00    -0.084 N  
HETATM   17  O   UNL     1      -6.469   9.996  68.848  1.00  0.00    -0.048 OA 
HETATM   18  H   UNL     1      -7.176   9.377  65.836  1.00  0.00     0.000 HD 
BRANCH  16  19
HETATM   19  C   UNL     1      -6.567  11.348  66.500  1.00  0.00    -0.071 C  
BRANCH  19  20
HETATM   20  C   UNL     1      -7.276  12.295  67.495  1.00  0.00    -0.139 C  
HETATM   21  N   UNL     1      -8.611  12.532  67.187  1.00  0.00    -0.195 N  
HETATM   22  O   UNL     1      -6.711  12.716  68.501  1.00  0.00    -0.076 OA 
HETATM   23  H   UNL     1      -9.001  12.131  66.333  1.00  0.00     0.000 HD 
BRANCH  21  24
HETATM   24  C   UNL     1      -9.453  13.323  68.034  1.00  0.00    -0.219 A  
HETATM   25  C   UNL     1      -9.186  14.705  68.165  1.00  0.00    -0.192 A  
HETATM   26  C   UNL     1     -10.003  15.530  68.972  1.00  0.00    -0.233 A  
HETATM   27  I   UNL     1      -7.598  15.567  67.002  1.00  0.00     0.093 I  
HETATM   28  C   UNL     1      -9.562  16.943  69.212  1.00  0.00    -0.079 C  
HETATM   29  C   UNL     1     -11.138  14.982  69.612  1.00  0.00    -0.273 A  
HETATM   30  I   UNL     1     -12.500  16.321  70.645  1.00  0.00     2.049 I  
HETATM   31  O   UNL     1      -8.457  17.203  69.644  1.00  0.00     0.416 OA 
HETATM   32  O   UNL     1     -10.441  17.884  68.823  1.00  0.00    -0.335 OA 
HETATM   33  C   UNL     1     -11.402  13.585  69.549  1.00  0.00    -0.265 A  
HETATM   34  I   UNL     1     -10.484  10.613  69.125  1.00  0.00    -0.256 I  
HETATM   35  C   UNL     1     -10.511  12.760  68.796  1.00  0.00    -0.156 A  
BRANCH  33  36
HETATM   36  C   UNL     1     -12.531  13.001  70.343  1.00  0.00    -0.194 C  
HETATM   37  O   UNL     1     -13.628  13.551  70.356  1.00  0.00     0.524 OA 
HETATM   38  N   UNL     1     -12.299  11.832  71.045  1.00  0.00    -0.334 N  
HETATM   39  H   UNL     1     -11.392  11.371  70.969  1.00  0.00     0.000 HD 
BRANCH  38  40
HETATM   40  C   UNL     1     -13.335  11.248  71.897  1.00  0.00    -0.307 C  
BRANCH  40  41
HETATM   41  C   UNL     1     -12.992   9.814  72.297  1.00  0.00    -0.333 C  
HETATM   42  O   UNL     1     -14.114   9.207  72.938  1.00  0.00    -0.989 OA 
HETATM   43  H   UNL     1     -13.900   8.316  73.186  1.00  0.00     0.000 HD 
ENDBRANCH  40  41
ENDBRANCH  38  40
ENDBRANCH  33  36
ENDBRANCH  21  24
ENDBRANCH  19  20
ENDBRANCH  16  19
ENDBRANCH   9  15
BRANCH  13  44
HETATM   44  N   UNL     1      -7.825   4.684  66.035  1.00  0.00    -0.095 N  
HETATM   45  C   UNL     1      -8.024   4.659  64.644  1.00  0.00    -0.097 C  
HETATM   46  O   UNL     1      -7.653   3.681  63.972  1.00  0.00    -0.072 OA 
HETATM   47  C   UNL     1      -7.286   3.404  66.524  1.00  0.00    -0.075 C  
HETATM   48  C   UNL     1      -8.734   5.737  63.902  1.00  0.00     0.234 C  
ENDBRANCH  13  44
ENDBRANCH   4   6
TORSDOF 9
ENDMDL
MODEL       44
REMARK 921   NORMALIZED FREE ENERGY PREDICTED BY IDOCK:    4.60 KCAL/MOL
REMARK 922        TOTAL FREE ENERGY PREDICTED BY IDOCK:    5.90 KCAL/MOL
REMARK 923 INTER-LIGAND FREE ENERGY PREDICTED BY IDOCK:    1.90 KCAL/MOL
REMARK 924 INTRA-LIGAND FREE ENERGY PREDICTED BY IDOCK:    4.01 KCAL/MOL
REMARK 927      BINDING AFFINITY PREDICTED BY RF-SCORE:    0.00 PKD
ROOT
HETATM    1  C   UNL     1      -6.601  12.537  66.911  1.00  0.00     0.254 C  
HETATM    2  N   UNL     1      -7.580  11.794  67.684  1.00  0.00    -0.123 N  
HETATM    3  H   UNL     1      -7.509  10.777  67.726  1.00  0.00     0.000 HD 
HETATM    4  C   UNL     1      -8.607  12.425  68.366  1.00  0.00    -0.129 C  
HETATM    5  O   UNL     1      -8.719  13.634  68.423  1.00  0.00    -0.176 OA 
ENDROOT
BRANCH   4   6
HETATM    6  C   UNL     1      -9.598  11.522  69.054  1.00  0.00     0.045 A  
HETATM    7  C   UNL     1      -9.237  10.229  69.493  1.00  0.00    -0.170 A  
HETATM    8  I   UNL     1      -7.240   9.499  69.107  1.00  0.00    -0.079 I  
HETATM    9  C   UNL     1     -10.168   9.453  70.238  1.00  0.00    -0.295 A  
HETATM   10  I   UNL     1     -11.699  13.316  67.700  1.00  0.00    -0.357 I  
HETATM   11  C   UNL     1     -11.336  10.117  70.735  1.00  0.00    -0.354 A  
HETATM   12  I   UNL     1     -11.794   9.569  72.815  1.00  0.00     3.157 I  
HETATM   13  C   UNL     1     -11.810  11.363  70.215  1.00  0.00    -0.350 A  
HETATM   14  C   UNL     1     -10.924  11.976  69.272  1.00  0.00    -0.131 A  
BRANCH   9  15
HETATM   15  C   UNL     1      -9.927   7.976  70.507  1.00  0.00    -0.190 C  
HETATM   16  N   UNL     1     -10.365   7.060  69.567  1.00  0.00    -0.205 N  
HETATM   17  O   UNL     1      -9.341   7.567  71.497  1.00  0.00    -0.140 OA 
HETATM   18  H   UNL     1     -10.975   7.358  68.806  1.00  0.00     0.000 HD 
BRANCH  16  19
HETATM   19  C   UNL     1      -9.948   5.657  69.672  1.00  0.00    -0.203 C  
BRANCH  19  20
HETATM   20  C   UNL     1      -8.840   5.250  68.675  1.00  0.00    -0.096 C  
HETATM   21  N   UNL     1      -9.207   5.391  67.341  1.00  0.00    -0.111 N  
HETATM   22  O   UNL     1      -7.720   4.917  69.054  1.00  0.00    -0.071 OA 
HETATM   23  H   UNL     1     -10.159   5.685  67.118  1.00  0.00     0.000 HD 
BRANCH  21  24
HETATM   24  C   UNL     1      -8.288   5.135  66.272  1.00  0.00    -0.113 A  
HETATM   25  C   UNL     1      -7.875   3.805  66.030  1.00  0.00    -0.090 A  
HETATM   26  C   UNL     1      -6.987   3.501  64.973  1.00  0.00    -0.057 A  
HETATM   27  I   UNL     1      -8.732   2.225  67.206  1.00  0.00    -0.170 I  
HETATM   28  C   UNL     1      -6.448   2.104  64.882  1.00  0.00    -0.023 C  
HETATM   29  C   UNL     1      -6.548   4.529  64.107  1.00  0.00    -0.043 A  
HETATM   30  I   UNL     1      -5.379   3.991  62.358  1.00  0.00    -0.005 I  
HETATM   31  O   UNL     1      -5.894   1.570  65.821  1.00  0.00    -0.013 OA 
HETATM   32  O   UNL     1      -6.712   1.470  63.725  1.00  0.00    -0.024 OA 
HETATM   33  C   UNL     1      -6.897   5.886  64.358  1.00  0.00    -0.050 A  
HETATM   34  I   UNL     1      -7.815   8.197  66.273  1.00  0.00    -0.105 I  
HETATM   35  C   UNL     1      -7.727   6.175  65.484  1.00  0.00    -0.094 A  
BRANCH  33  36
HETATM   36  C   UNL     1      -6.315   6.976  63.510  1.00  0.00    -0.044 C  
HETATM   37  O   UNL     1      -5.164   6.889  63.095  1.00  0.00    -0.030 OA 
HETATM   38  N   UNL     1      -7.113   8.066  63.210  1.00  0.00    -0.084 N  
HETATM   39  H   UNL     1      -8.083   8.081  63.526  1.00  0.00     0.000 HD 
BRANCH  38  40
HETATM   40  C   UNL     1      -6.585   9.198  62.449  1.00  0.00    -0.093 C  
BRANCH  40  41
HETATM   41  C   UNL     1      -6.396  10.430  63.331  1.00  0.00    -0.083 C  
HETATM   42  O   UNL     1      -7.648  11.087  63.521  1.00  0.00    -0.278 OA 
HETATM   43  H   UNL     1      -7.531  11.854  64.070  1.00  0.00     0.000 HD 
ENDBRANCH  40  41
ENDBRANCH  38  40
ENDBRANCH  33  36
ENDBRANCH  21  24
ENDBRANCH  19  20
ENDBRANCH  16  19
ENDBRANCH   9  15
BRANCH  13  44
HETATM   44  N   UNL     1     -13.023  12.049  70.675  1.00  0.00     0.074 N  
HETATM   45  C   UNL     1     -13.228  13.400  71.006  1.00  0.00    -0.032 C  
HETATM   46  O   UNL     1     -14.369  13.815  71.276  1.00  0.00     0.125 OA 
HETATM   47  C   UNL     1     -14.256  11.263  70.838  1.00  0.00     3.261 C  
HETATM   48  C   UNL     1     -12.122  14.389  71.122  1.00  0.00    -0.410 C  
ENDBRANCH  13  44
ENDBRANCH   4   6
TORSDOF 9
ENDMDL
MODEL       45
REMARK 921   NORMALIZED FREE ENERGY PREDICTED BY IDOCK:    4.65 KCAL/MOL
REMARK 922        TOTAL FREE ENERGY PREDICTED BY IDOCK:    5.97 KCAL/MOL
REMARK 923 INTER-LIGAND FREE ENERGY PREDICTED BY IDOCK:    1.58 KCAL/MOL
REMARK 924 INTRA-LIGAND FREE ENERGY PREDICTED BY IDOCK:    4.39 KCAL/MOL
REMARK 927      BINDING AFFINITY PREDICTED BY RF-SCORE:    0.00 PKD
ROOT
HETATM    1  C   UNL     1      -6.891  18.671  66.175  1.00  0.00    -0.244 C  
HETATM    2  N   UNL     1      -7.880  17.767  66.733  1.00  0.00    -0.220 N  
HETATM    3  H   UNL     1      -7.892  16.795  66.425  1.00  0.00     0.000 HD 
HETATM    4  C   UNL     1      -8.809  18.187  67.671  1.00  0.00    -0.252 C  
HETATM    5  O   UNL     1      -8.816  19.308  68.140  1.00  0.00    -0.308 OA 
ENDROOT
BRANCH   4   6
HETATM    6  C   UNL     1      -9.829  17.164  68.097  1.00  0.00    -0.281 A  
HETATM    7  C   UNL     1     -10.093  16.016  67.317  1.00  0.00    -0.266 A  
HETATM    8  I   UNL     1      -9.064  15.755  65.435  1.00  0.00     2.169 I  
HETATM    9  C   UNL     1     -10.980  15.019  67.810  1.00  0.00    -0.298 A  
HETATM   10  I   UNL     1     -10.954  19.457  69.812  1.00  0.00     3.911 I  
HETATM   11  C   UNL     1     -11.364  15.095  69.188  1.00  0.00    -0.298 A  
HETATM   12  I   UNL     1     -11.315  13.137  70.185  1.00  0.00     0.800 I  
HETATM   13  C   UNL     1     -11.241  16.288  69.970  1.00  0.00    -0.319 A  
HETATM   14  C   UNL     1     -10.542  17.349  69.310  1.00  0.00    -0.084 A  
BRANCH   9  15
HETATM   15  C   UNL     1     -11.493  13.905  66.911  1.00  0.00    -0.351 C  
HETATM   16  N   UNL     1     -10.574  13.018  66.378  1.00  0.00    -0.281 N  
HETATM   17  O   UNL     1     -12.678  13.743  66.663  1.00  0.00    -0.233 OA 
HETATM   18  H   UNL     1      -9.575  13.209  66.453  1.00  0.00     0.000 HD 
BRANCH  16  19
HETATM   19  C   UNL     1     -11.045  11.802  65.705  1.00  0.00    -0.297 C  
BRANCH  19  20
HETATM   20  C   UNL     1     -10.303  10.515  66.131  1.00  0.00    -0.210 C  
HETATM   21  N   UNL     1     -10.030  10.451  67.493  1.00  0.00    -0.175 N  
HETATM   22  O   UNL     1     -10.063   9.613  65.332  1.00  0.00    -0.272 OA 
HETATM   23  H   UNL     1     -10.275  11.245  68.085  1.00  0.00     0.000 HD 
BRANCH  21  24
HETATM   24  C   UNL     1      -9.416   9.301  68.088  1.00  0.00    -0.138 A  
HETATM   25  C   UNL     1      -9.958   8.780  69.284  1.00  0.00    -0.194 A  
HETATM   26  C   UNL     1      -9.400   7.634  69.897  1.00  0.00    -0.150 A  
HETATM   27  I   UNL     1     -11.740   9.670  70.087  1.00  0.00     0.069 I  
HETATM   28  C   UNL     1      -9.905   7.240  71.253  1.00  0.00    -0.180 C  
HETATM   29  C   UNL     1      -8.320   6.963  69.277  1.00  0.00    -0.129 A  
HETATM   30  I   UNL     1      -7.644   5.078  70.117  1.00  0.00    -0.061 I  
HETATM   31  O   UNL     1      -9.923   8.022  72.181  1.00  0.00    -0.189 OA 
HETATM   32  O   UNL     1     -10.418   5.998  71.326  1.00  0.00    -0.214 OA 
HETATM   33  C   UNL     1      -7.713   7.495  68.105  1.00  0.00    -0.120 A  
HETATM   34  I   UNL     1      -7.051   9.876  66.170  1.00  0.00    -0.120 I  
HETATM   35  C   UNL     1      -8.244   8.702  67.555  1.00  0.00    -0.110 A  
BRANCH  33  36
HETATM   36  C   UNL     1      -6.486   6.846  67.539  1.00  0.00    -0.050 C  
HETATM   37  O   UNL     1      -5.373   7.179  67.930  1.00  0.00    -0.021 OA 
HETATM   38  N   UNL     1      -6.652   5.866  66.577  1.00  0.00    -0.054 N  
HETATM   39  H   UNL     1      -7.594   5.574  66.313  1.00  0.00     0.000 HD 
BRANCH  38  40
HETATM   40  C   UNL     1      -5.497   5.242  65.931  1.00  0.00    -0.013 C  
BRANCH  40  41
HETATM   41  C   UNL     1      -5.192   3.870  66.528  1.00  0.00    -0.009 C  
HETATM   42  O   UNL     1      -6.166   2.923  66.091  1.00  0.00    -0.023 OA 
HETATM   43  H   UNL     1      -5.976   2.069  66.462  1.00  0.00     0.000 HD 
ENDBRANCH  40  41
ENDBRANCH  38  40
ENDBRANCH  33  36
ENDBRANCH  21  24
ENDBRANCH  19  20
ENDBRANCH  16  19
ENDBRANCH   9  15
BRANCH  13  44
HETATM   44  N   UNL     1     -11.660  16.410  71.371  1.00  0.00    -0.361 N  
HETATM   45  C   UNL     1     -12.810  15.923  72.017  1.00  0.00    -0.403 C  
HETATM   46  O   UNL     1     -12.937  16.039  73.248  1.00  0.00    -0.495 OA 
HETATM   47  C   UNL     1     -10.790  17.144  72.304  1.00  0.00     2.605 C  
HETATM   48  C   UNL     1     -13.958  15.312  71.291  1.00  0.00    -0.548 C  
ENDBRANCH  13  44
ENDBRANCH   4   6
TORSDOF 9
ENDMDL
MODEL       46
REMARK 921   NORMALIZED FREE ENERGY PREDICTED BY IDOCK:    4.66 KCAL/MOL
REMARK 922        TOTAL FREE ENERGY PREDICTED BY IDOCK:    6.00 KCAL/MOL
REMARK 923 INTER-LIGAND FREE ENERGY PREDICTED BY IDOCK:   -3.57 KCAL/MOL
REMARK 924 INTRA-LIGAND FREE ENERGY PREDICTED BY IDOCK:    9.57 KCAL/MOL
REMARK 927      BINDING AFFINITY PREDICTED BY RF-SCORE:    0.00 PKD
ROOT
HETATM    1  C   UNL     1      -9.526   4.964  71.449  1.00  0.00    -0.155 C  
HETATM    2  N   UNL     1      -9.578   5.940  70.375  1.00  0.00    -0.165 N  
HETATM    3  H   UNL     1      -8.706   6.348  70.035  1.00  0.00     0.000 HD 
HETATM    4  C   UNL     1     -10.774   6.333  69.800  1.00  0.00    -0.297 C  
HETATM    5  O   UNL     1     -11.846   5.844  70.099  1.00  0.00     0.096 OA 
ENDROOT
BRANCH   4   6
HETATM    6  C   UNL     1     -10.683   7.416  68.757  1.00  0.00    -0.145 A  
HETATM    7  C   UNL     1     -11.243   8.695  68.970  1.00  0.00     0.378 A  
HETATM    8  I   UNL     1     -12.314   9.088  70.806  1.00  0.00     0.244 I  
HETATM    9  C   UNL     1     -11.038   9.723  68.009  1.00  0.00    -0.168 A  
HETATM   10  I   UNL     1     -10.215   5.075  66.815  1.00  0.00    -0.224 I  
HETATM   11  C   UNL     1     -10.055   9.494  66.992  1.00  0.00    -0.234 A  
HETATM   12  I   UNL     1      -8.777  11.249  66.645  1.00  0.00    -0.180 I  
HETATM   13  C   UNL     1      -9.569   8.190  66.653  1.00  0.00    -0.229 A  
HETATM   14  C   UNL     1     -10.020   7.153  67.530  1.00  0.00    -0.167 A  
BRANCH   9  15
HETATM   15  C   UNL     1     -11.824  11.023  68.064  1.00  0.00    -0.072 C  
HETATM   16  N   UNL     1     -12.316  11.440  69.288  1.00  0.00    -0.188 N  
HETATM   17  O   UNL     1     -12.015  11.727  67.084  1.00  0.00    -0.617 OA 
HETATM   18  H   UNL     1     -12.293  10.810  70.090  1.00  0.00     0.000 HD 
BRANCH  16  19
HETATM   19  C   UNL     1     -12.870  12.791  69.427  1.00  0.00     1.063 C  
BRANCH  19  20
HETATM   20  C   UNL     1     -11.888  13.921  69.043  1.00  0.00    -0.358 C  
HETATM   21  N   UNL     1     -10.550  13.576  69.198  1.00  0.00    -0.432 N  
HETATM   22  O   UNL     1     -12.279  14.984  68.569  1.00  0.00    -0.189 OA 
HETATM   23  H   UNL     1     -10.316  12.663  69.591  1.00  0.00     0.000 HD 
BRANCH  21  24
HETATM   24  C   UNL     1      -9.491  14.464  68.823  1.00  0.00    -0.161 A  
HETATM   25  C   UNL     1      -8.196  13.935  68.617  1.00  0.00    -0.088 A  
HETATM   26  C   UNL     1      -7.124  14.769  68.224  1.00  0.00    -0.113 A  
HETATM   27  I   UNL     1      -7.909  11.812  68.771  1.00  0.00     0.126 I  
HETATM   28  C   UNL     1      -5.744  14.182  68.198  1.00  0.00    -0.128 C  
HETATM   29  C   UNL     1      -7.356  16.142  67.976  1.00  0.00    -0.129 A  
HETATM   30  I   UNL     1      -5.746  17.339  67.147  1.00  0.00    -0.230 I  
HETATM   31  O   UNL     1      -5.269  13.622  69.165  1.00  0.00    -0.073 OA 
HETATM   32  O   UNL     1      -5.127  14.241  67.005  1.00  0.00     0.159 OA 
HETATM   33  C   UNL     1      -8.633  16.717  68.231  1.00  0.00    -0.226 A  
HETATM   34  I   UNL     1     -11.424  16.733  69.667  1.00  0.00     1.174 I  
HETATM   35  C   UNL     1      -9.677  15.868  68.709  1.00  0.00    -0.216 A  
BRANCH  33  36
HETATM   36  C   UNL     1      -8.827  18.197  68.091  1.00  0.00    -0.280 C  
HETATM   37  O   UNL     1      -8.899  18.909  69.088  1.00  0.00    -0.186 OA 
HETATM   38  N   UNL     1      -8.912  18.726  66.815  1.00  0.00    -0.298 N  
HETATM   39  H   UNL     1      -8.793  18.114  66.008  1.00  0.00     0.000 HD 
BRANCH  38  40
HETATM   40  C   UNL     1      -9.172  20.151  66.608  1.00  0.00    -0.351 C  
BRANCH  40  41
HETATM   41  C   UNL     1      -8.027  21.014  67.137  1.00  0.00     0.012 C  
HETATM   42  O   UNL     1      -7.123  21.324  66.077  1.00  0.00    -0.436 OA 
HETATM   43  H   UNL     1      -6.412  21.861  66.405  1.00  0.00     0.000 HD 
ENDBRANCH  40  41
ENDBRANCH  38  40
ENDBRANCH  33  36
ENDBRANCH  21  24
ENDBRANCH  19  20
ENDBRANCH  16  19
ENDBRANCH   9  15
BRANCH  13  44
HETATM   44  N   UNL     1      -8.593   7.918  65.592  1.00  0.00    -0.150 N  
HETATM   45  C   UNL     1      -7.418   7.146  65.620  1.00  0.00    -0.082 C  
HETATM   46  O   UNL     1      -6.772   6.945  64.577  1.00  0.00    -0.041 OA 
HETATM   47  C   UNL     1      -8.814   8.511  64.264  1.00  0.00     0.258 C  
HETATM   48  C   UNL     1      -6.839   6.584  66.872  1.00  0.00    -0.066 C  
ENDBRANCH  13  44
ENDBRANCH   4   6
TORSDOF 9
ENDMDL
MODEL       47
REMARK 921   NORMALIZED FREE ENERGY PREDICTED BY IDOCK:    8.94 KCAL/MOL
REMARK 922        TOTAL FREE ENERGY PREDICTED BY IDOCK:   12.52 KCAL/MOL
REMARK 923 INTER-LIGAND FREE ENERGY PREDICTED BY IDOCK:    7.29 KCAL/MOL
REMARK 924 INTRA-LIGAND FREE ENERGY PREDICTED BY IDOCK:    5.23 KCAL/MOL
REMARK 927      BINDING AFFINITY PREDICTED BY RF-SCORE:    0.00 PKD
ROOT
HETATM    1  C   UNL     1     -10.159   5.294  65.698  1.00  0.00     0.090 C  
HETATM    2  N   UNL     1      -9.977   6.115  66.881  1.00  0.00    -0.156 N  
HETATM    3  H   UNL     1     -10.305   7.081  66.869  1.00  0.00     0.000 HD 
HETATM    4  C   UNL     1      -9.372   5.625  68.026  1.00  0.00    -0.108 C  
HETATM    5  O   UNL     1      -9.019   4.468  68.146  1.00  0.00    -0.107 OA 
ENDROOT
BRANCH   4   6
HETATM    6  C   UNL     1      -9.173   6.613  69.146  1.00  0.00    -0.136 A  
HETATM    7  C   UNL     1     -10.029   7.725  69.309  1.00  0.00    -0.182 A  
HETATM    8  I   UNL     1     -11.619   8.055  67.883  1.00  0.00     3.190 I  
HETATM    9  C   UNL     1      -9.876   8.571  70.443  1.00  0.00    -0.198 A  
HETATM   10  I   UNL     1      -6.297   5.520  69.181  1.00  0.00    -0.038 I  
HETATM   11  C   UNL     1      -9.031   8.111  71.504  1.00  0.00    -0.158 A  
HETATM   12  I   UNL     1      -9.914   8.448  73.489  1.00  0.00     2.167 I  
HETATM   13  C   UNL     1      -8.052   7.080  71.335  1.00  0.00    -0.108 A  
HETATM   14  C   UNL     1      -8.104   6.430  70.061  1.00  0.00    -0.121 A  
BRANCH   9  15
HETATM   15  C   UNL     1     -10.592   9.909  70.531  1.00  0.00    -0.293 C  
HETATM   16  N   UNL     1     -11.953   9.909  70.779  1.00  0.00    -0.307 N  
HETATM   17  O   UNL     1     -10.015  10.980  70.421  1.00  0.00     0.999 OA 
HETATM   18  H   UNL     1     -12.481   9.037  70.737  1.00  0.00     0.000 HD 
BRANCH  16  19
HETATM   19  C   UNL     1     -12.632  11.168  71.104  1.00  0.00    -0.409 C  
BRANCH  19  20
HETATM   20  C   UNL     1     -12.551  12.237  69.990  1.00  0.00     0.169 C  
HETATM   21  N   UNL     1     -11.372  12.973  70.006  1.00  0.00    -0.504 N  
HETATM   22  O   UNL     1     -13.425  12.346  69.134  1.00  0.00     2.632 OA 
HETATM   23  H   UNL     1     -10.695  12.808  70.751  1.00  0.00     0.000 HD 
BRANCH  21  24
HETATM   24  C   UNL     1     -11.081  13.958  69.006  1.00  0.00    -0.268 A  
HETATM   25  C   UNL     1     -10.861  13.535  67.675  1.00  0.00    -0.260 A  
HETATM   26  C   UNL     1     -10.593  14.471  66.650  1.00  0.00    -0.283 A  
HETATM   27  I   UNL     1     -11.083  11.451  67.201  1.00  0.00    -0.266 I  
HETATM   28  C   UNL     1     -10.192  13.949  65.303  1.00  0.00    -0.344 C  
HETATM   29  C   UNL     1     -10.601  15.854  66.943  1.00  0.00    -0.309 A  
HETATM   30  I   UNL     1     -10.422  17.269  65.305  1.00  0.00     0.944 I  
HETATM   31  O   UNL     1      -9.268  13.173  65.167  1.00  0.00     0.450 OA 
HETATM   32  O   UNL     1     -10.990  14.328  64.289  1.00  0.00    -0.253 OA 
HETATM   33  C   UNL     1     -10.760  16.310  68.283  1.00  0.00    -0.322 A  
HETATM   34  I   UNL     1     -10.603  15.880  71.388  1.00  0.00     1.815 I  
HETATM   35  C   UNL     1     -10.944  15.338  69.313  1.00  0.00    -0.261 A  
BRANCH  33  36
HETATM   36  C   UNL     1     -10.631  17.770  68.595  1.00  0.00    -0.195 C  
HETATM   37  O   UNL     1     -11.634  18.464  68.734  1.00  0.00     1.832 OA 
HETATM   38  N   UNL     1      -9.360  18.300  68.726  1.00  0.00    -0.290 N  
HETATM   39  H   UNL     1      -8.549  17.684  68.658  1.00  0.00     0.000 HD 
BRANCH  38  40
HETATM   40  C   UNL     1      -9.161  19.730  68.959  1.00  0.00    -0.113 C  
BRANCH  40  41
HETATM   41  C   UNL     1      -9.637  20.565  67.771  1.00  0.00    -0.279 C  
HETATM   42  O   UNL     1     -10.638  19.851  67.046  1.00  0.00    -0.449 OA 
HETATM   43  H   UNL     1     -10.934  20.371  66.307  1.00  0.00     0.000 HD 
ENDBRANCH  40  41
ENDBRANCH  38  40
ENDBRANCH  33  36
ENDBRANCH  21  24
ENDBRANCH  19  20
ENDBRANCH  16  19
ENDBRANCH   9  15
BRANCH  13  44
HETATM   44  N   UNL     1      -7.145   6.614  72.390  1.00  0.00    -0.072 N  
HETATM   45  C   UNL     1      -5.884   7.098  72.779  1.00  0.00    -0.041 C  
HETATM   46  O   UNL     1      -5.311   6.631  73.779  1.00  0.00    -0.041 OA 
HETATM   47  C   UNL     1      -7.555   5.464  73.211  1.00  0.00    -0.096 C  
HETATM   48  C   UNL     1      -5.131   8.126  72.009  1.00  0.00    -0.035 C  
ENDBRANCH  13  44
ENDBRANCH   4   6
TORSDOF 9
ENDMDL
MODEL       48
REMARK 921   NORMALIZED FREE ENERGY PREDICTED BY IDOCK:    9.15 KCAL/MOL
REMARK 922        TOTAL FREE ENERGY PREDICTED BY IDOCK:   12.85 KCAL/MOL
REMARK 923 INTER-LIGAND FREE ENERGY PREDICTED BY IDOCK:    7.36 KCAL/MOL
REMARK 924 INTRA-LIGAND FREE ENERGY PREDICTED BY IDOCK:    5.50 KCAL/MOL
REMARK 927      BINDING AFFINITY PREDICTED BY RF-SCORE:    0.00 PKD
ROOT
HETATM    1  C   UNL     1     -12.984  19.968  66.564  1.00  0.00     6.472 C  
HETATM    2  N   UNL     1     -11.749  19.280  66.891  1.00  0.00     1.042 N  
HETATM    3  H   UNL     1     -11.570  18.361  66.483  1.00  0.00     0.000 HD 
HETATM    4  C   UNL     1     -10.805  19.833  67.739  1.00  0.00    -0.168 C  
HETATM    5  O   UNL     1     -10.909  20.950  68.208  1.00  0.00     0.561 OA 
ENDROOT
BRANCH   4   6
HETATM    6  C   UNL     1      -9.612  18.970  68.057  1.00  0.00    -0.383 A  
HETATM    7  C   UNL     1      -9.407  17.730  67.413  1.00  0.00    -0.252 A  
HETATM    8  I   UNL     1     -10.871  17.019  65.992  1.00  0.00     0.457 I  
HETATM    9  C   UNL     1      -8.211  16.998  67.657  1.00  0.00    -0.193 A  
HETATM   10  I   UNL     1      -9.531  20.585  70.674  1.00  0.00     3.308 I  
HETATM   11  C   UNL     1      -7.150  17.673  68.344  1.00  0.00    -0.236 A  
HETATM   12  I   UNL     1      -5.185  17.298  67.432  1.00  0.00    -0.188 I  
HETATM   13  C   UNL     1      -7.349  18.857  69.124  1.00  0.00    -0.229 A  
HETATM   14  C   UNL     1      -8.667  19.407  69.021  1.00  0.00    -0.211 A  
BRANCH   9  15
HETATM   15  C   UNL     1      -8.059  15.557  67.198  1.00  0.00    -0.216 C  
HETATM   16  N   UNL     1      -6.908  14.876  67.548  1.00  0.00    -0.182 N  
HETATM   17  O   UNL     1      -8.919  14.969  66.561  1.00  0.00    -0.269 OA 
HETATM   18  H   UNL     1      -6.119  15.378  67.955  1.00  0.00     0.000 HD 
BRANCH  16  19
HETATM   19  C   UNL     1      -6.826  13.427  67.331  1.00  0.00    -0.066 C  
BRANCH  19  20
HETATM   20  C   UNL     1      -7.539  12.583  68.412  1.00  0.00    -0.129 C  
HETATM   21  N   UNL     1      -8.484  11.701  67.901  1.00  0.00    -0.141 N  
HETATM   22  O   UNL     1      -7.220  12.647  69.597  1.00  0.00     0.252 OA 
HETATM   23  H   UNL     1      -8.678  11.708  66.899  1.00  0.00     0.000 HD 
BRANCH  21  24
HETATM   24  C   UNL     1      -9.194  10.782  68.741  1.00  0.00    -0.189 A  
HETATM   25  C   UNL     1     -10.459  11.158  69.248  1.00  0.00    -0.151 A  
HETATM   26  C   UNL     1     -11.207  10.276  70.062  1.00  0.00    -0.376 A  
HETATM   27  I   UNL     1     -11.299  13.040  68.643  1.00  0.00    -0.399 I  
HETATM   28  C   UNL     1     -12.452  10.800  70.713  1.00  0.00    -0.387 C  
HETATM   29  C   UNL     1     -10.713   8.978  70.329  1.00  0.00    -0.230 A  
HETATM   30  I   UNL     1     -11.990   7.573  71.382  1.00  0.00    -0.381 I  
HETATM   31  O   UNL     1     -12.444  11.805  71.393  1.00  0.00    -0.282 OA 
HETATM   32  O   UNL     1     -13.576  10.128  70.404  1.00  0.00    -0.014 OA 
HETATM   33  C   UNL     1      -9.417   8.590  69.884  1.00  0.00    -0.163 A  
HETATM   34  I   UNL     1      -6.501   9.263  68.938  1.00  0.00    -0.047 I  
HETATM   35  C   UNL     1      -8.647   9.532  69.135  1.00  0.00    -0.140 A  
BRANCH  33  36
HETATM   36  C   UNL     1      -8.855   7.262  70.290  1.00  0.00    -0.147 C  
HETATM   37  O   UNL     1      -8.327   7.122  71.389  1.00  0.00    -0.111 OA 
HETATM   38  N   UNL     1      -8.958   6.210  69.397  1.00  0.00    -0.128 N  
HETATM   39  H   UNL     1      -9.452   6.345  68.515  1.00  0.00     0.000 HD 
BRANCH  38  40
HETATM   40  C   UNL     1      -8.368   4.906  69.700  1.00  0.00    -0.083 C  
BRANCH  40  41
HETATM   41  C   UNL     1      -9.437   3.872  70.050  1.00  0.00    -0.192 C  
HETATM   42  O   UNL     1      -9.265   3.432  71.396  1.00  0.00    -0.103 OA 
HETATM   43  H   UNL     1      -9.930   2.790  71.614  1.00  0.00     0.000 HD 
ENDBRANCH  40  41
ENDBRANCH  38  40
ENDBRANCH  33  36
ENDBRANCH  21  24
ENDBRANCH  19  20
ENDBRANCH  16  19
ENDBRANCH   9  15
BRANCH  13  44
HETATM   44  N   UNL     1      -6.292  19.550  69.869  1.00  0.00    -0.309 N  
HETATM   45  C   UNL     1      -6.188  19.827  71.244  1.00  0.00     0.002 C  
HETATM   46  O   UNL     1      -5.152  20.336  71.706  1.00  0.00    -0.332 OA 
HETATM   47  C   UNL     1      -5.128  20.060  69.128  1.00  0.00    -0.187 C  
HETATM   48  C   UNL     1      -7.299  19.602  72.209  1.00  0.00     2.480 C  
ENDBRANCH  13  44
ENDBRANCH   4   6
TORSDOF 9
ENDMDL
MODEL       49
REMARK 921   NORMALIZED FREE ENERGY PREDICTED BY IDOCK:   12.35 KCAL/MOL
REMARK 922        TOTAL FREE ENERGY PREDICTED BY IDOCK:   17.73 KCAL/MOL
REMARK 923 INTER-LIGAND FREE ENERGY PREDICTED BY IDOCK:    9.12 KCAL/MOL
REMARK 924 INTRA-LIGAND FREE ENERGY PREDICTED BY IDOCK:    8.61 KCAL/MOL
REMARK 927      BINDING AFFINITY PREDICTED BY RF-SCORE:    0.00 PKD
ROOT
HETATM    1  C   UNL     1      -7.908  19.435  65.997  1.00  0.00    -0.281 C  
HETATM    2  N   UNL     1      -8.570  18.184  66.319  1.00  0.00    -0.225 N  
HETATM    3  H   UNL     1      -8.470  17.393  65.682  1.00  0.00     0.000 HD 
HETATM    4  C   UNL     1      -9.333  18.033  67.464  1.00  0.00    -0.257 C  
HETATM    5  O   UNL     1      -9.443  18.902  68.307  1.00  0.00    -0.316 OA 
ENDROOT
BRANCH   4   6
HETATM    6  C   UNL     1     -10.032  16.708  67.625  1.00  0.00    -0.264 A  
HETATM    7  C   UNL     1     -10.024  15.740  66.596  1.00  0.00    -0.257 A  
HETATM    8  I   UNL     1      -9.049  16.196  64.722  1.00  0.00     6.322 I  
HETATM    9  C   UNL     1     -10.598  14.459  66.829  1.00  0.00    -0.282 A  
HETATM   10  I   UNL     1     -11.635  18.171  69.806  1.00  0.00     6.887 I  
HETATM   11  C   UNL     1     -10.926  14.116  68.180  1.00  0.00    -0.249 A  
HETATM   12  I   UNL     1     -10.324  12.066  68.697  1.00  0.00    -0.077 I  
HETATM   13  C   UNL     1     -11.081  15.088  69.220  1.00  0.00    -0.272 A  
HETATM   14  C   UNL     1     -10.713  16.417  68.835  1.00  0.00    -0.319 A  
BRANCH   9  15
HETATM   15  C   UNL     1     -10.844  13.486  65.687  1.00  0.00    -0.287 C  
HETATM   16  N   UNL     1      -9.797  13.205  64.828  1.00  0.00    -0.578 N  
HETATM   17  O   UNL     1     -11.913  12.921  65.514  1.00  0.00    -0.385 OA 
HETATM   18  H   UNL     1      -8.943  13.762  64.863  1.00  0.00     0.000 HD 
BRANCH  16  19
HETATM   19  C   UNL     1      -9.921  12.104  63.867  1.00  0.00    -0.303 C  
BRANCH  19  20
HETATM   20  C   UNL     1      -9.768  10.698  64.490  1.00  0.00    -0.309 C  
HETATM   21  N   UNL     1      -8.451  10.349  64.766  1.00  0.00    -0.175 N  
HETATM   22  O   UNL     1     -10.743  10.011  64.782  1.00  0.00     0.414 OA 
HETATM   23  H   UNL     1      -7.702  10.989  64.499  1.00  0.00     0.000 HD 
BRANCH  21  24
HETATM   24  C   UNL     1      -8.115   9.116  65.415  1.00  0.00    -0.124 A  
HETATM   25  C   UNL     1      -7.533   9.159  66.703  1.00  0.00    -0.086 A  
HETATM   26  C   UNL     1      -7.205   7.969  67.393  1.00  0.00    -0.088 A  
HETATM   27  I   UNL     1      -7.284  11.064  67.664  1.00  0.00    -0.108 I  
HETATM   28  C   UNL     1      -6.428   8.083  68.670  1.00  0.00    -0.053 C  
HETATM   29  C   UNL     1      -7.514   6.715  66.815  1.00  0.00    -0.079 A  
HETATM   30  I   UNL     1      -7.216   4.920  68.000  1.00  0.00    -0.067 I  
HETATM   31  O   UNL     1      -5.379   8.690  68.728  1.00  0.00    -0.032 OA 
HETATM   32  O   UNL     1      -7.031   7.549  69.748  1.00  0.00    -0.053 OA 
HETATM   33  C   UNL     1      -8.046   6.636  65.497  1.00  0.00    -0.124 A  
HETATM   34  I   UNL     1      -8.519   7.823  62.630  1.00  0.00     0.427 I  
HETATM   35  C   UNL     1      -8.288   7.853  64.789  1.00  0.00    -0.058 A  
BRANCH  33  36
HETATM   36  C   UNL     1      -8.242   5.299  64.850  1.00  0.00    -0.136 C  
HETATM   37  O   UNL     1      -7.768   5.072  63.741  1.00  0.00    -0.070 OA 
HETATM   38  N   UNL     1      -8.960   4.339  65.541  1.00  0.00    -0.126 N  
HETATM   39  H   UNL     1      -9.293   4.542  66.483  1.00  0.00     0.000 HD 
BRANCH  38  40
HETATM   40  C   UNL     1      -9.249   3.038  64.938  1.00  0.00    -0.148 C  
BRANCH  40  41
HETATM   41  C   UNL     1     -10.750   2.760  64.895  1.00  0.00     1.128 C  
HETATM   42  O   UNL     1     -11.471   3.911  65.335  1.00  0.00    -0.087 OA 
HETATM   43  H   UNL     1     -12.404   3.738  65.307  1.00  0.00     0.000 HD 
ENDBRANCH  40  41
ENDBRANCH  38  40
ENDBRANCH  33  36
ENDBRANCH  21  24
ENDBRANCH  19  20
ENDBRANCH  16  19
ENDBRANCH   9  15
BRANCH  13  44
HETATM   44  N   UNL     1     -11.454  14.773  70.604  1.00  0.00    -0.259 N  
HETATM   45  C   UNL     1     -11.836  13.550  71.181  1.00  0.00     0.332 C  
HETATM   46  O   UNL     1     -12.012  13.461  72.409  1.00  0.00     0.920 OA 
HETATM   47  C   UNL     1     -11.449  15.858  71.597  1.00  0.00    -0.392 C  
HETATM   48  C   UNL     1     -12.116  12.323  70.385  1.00  0.00    -0.385 C  
ENDBRANCH  13  44
ENDBRANCH   4   6
TORSDOF 9
ENDMDL
MODEL       50
REMARK 921   NORMALIZED FREE ENERGY PREDICTED BY IDOCK:   12.46 KCAL/MOL
REMARK 922        TOTAL FREE ENERGY PREDICTED BY IDOCK:   17.89 KCAL/MOL
REMARK 923 INTER-LIGAND FREE ENERGY PREDICTED BY IDOCK:    5.43 KCAL/MOL
REMARK 924 INTRA-LIGAND FREE ENERGY PREDICTED BY IDOCK:   12.46 KCAL/MOL
REMARK 927      BINDING AFFINITY PREDICTED BY RF-SCORE:    0.00 PKD
ROOT
HETATM    1  C   UNL     1      -8.146  20.115  71.258  1.00  0.00     1.967 C  
HETATM    2  N   UNL     1      -8.097  18.858  70.534  1.00  0.00     2.344 N  
HETATM    3  H   UNL     1      -7.484  18.116  70.870  1.00  0.00     0.000 HD 
HETATM    4  C   UNL     1      -8.858  18.638  69.398  1.00  0.00     0.367 C  
HETATM    5  O   UNL     1      -9.664  19.443  68.973  1.00  0.00    -0.417 OA 
ENDROOT
BRANCH   4   6
HETATM    6  C   UNL     1      -8.641  17.321  68.700  1.00  0.00    -0.265 A  
HETATM    7  C   UNL     1      -7.820  16.317  69.258  1.00  0.00    -0.179 A  
HETATM    8  I   UNL     1      -6.793  16.703  71.121  1.00  0.00     4.819 I  
HETATM    9  C   UNL     1      -7.731  15.046  68.625  1.00  0.00    -0.128 A  
HETATM   10  I   UNL     1      -9.517  18.863  66.186  1.00  0.00     0.123 I  
HETATM   11  C   UNL     1      -8.680  14.752  67.593  1.00  0.00    -0.178 A  
HETATM   12  I   UNL     1      -9.505  12.721  67.763  1.00  0.00    -0.225 I  
HETATM   13  C   UNL     1      -9.429  15.761  66.907  1.00  0.00    -0.228 A  
HETATM   14  C   UNL     1      -9.275  17.075  67.455  1.00  0.00    -0.234 A  
BRANCH   9  15
HETATM   15  C   UNL     1      -6.675  14.032  69.034  1.00  0.00    -0.109 C  
HETATM   16  N   UNL     1      -6.227  14.046  70.343  1.00  0.00    -0.313 N  
HETATM   17  O   UNL     1      -6.229  13.191  68.269  1.00  0.00    -0.075 OA 
HETATM   18  H   UNL     1      -6.475  14.818  70.961  1.00  0.00     0.000 HD 
BRANCH  16  19
HETATM   19  C   UNL     1      -5.392  12.945  70.837  1.00  0.00    -0.176 C  
BRANCH  19  20
HETATM   20  C   UNL     1      -5.997  11.541  70.611  1.00  0.00    -0.023 C  
HETATM   21  N   UNL     1      -5.733  11.014  69.351  1.00  0.00    -0.042 N  
HETATM   22  O   UNL     1      -6.579  10.936  71.507  1.00  0.00     0.663 OA 
HETATM   23  H   UNL     1      -5.230  11.585  68.671  1.00  0.00     0.000 HD 
BRANCH  21  24
HETATM   24  C   UNL     1      -6.146   9.693  68.982  1.00  0.00    -0.041 A  
HETATM   25  C   UNL     1      -6.083   8.662  69.948  1.00  0.00    -0.034 A  
HETATM   26  C   UNL     1      -6.501   7.348  69.637  1.00  0.00    -0.036 A  
HETATM   27  I   UNL     1      -5.476   9.155  71.949  1.00  0.00    -0.044 I  
HETATM   28  C   UNL     1      -6.241   6.267  70.643  1.00  0.00    -0.039 C  
HETATM   29  C   UNL     1      -7.044   7.067  68.362  1.00  0.00    -0.082 A  
HETATM   30  I   UNL     1      -7.893   5.101  68.000  1.00  0.00    -0.086 I  
HETATM   31  O   UNL     1      -5.132   6.065  71.093  1.00  0.00    -0.012 OA 
HETATM   32  O   UNL     1      -7.338   5.616  71.070  1.00  0.00    -0.079 OA 
HETATM   33  C   UNL     1      -7.067   8.066  67.348  1.00  0.00    -0.083 A  
HETATM   34  I   UNL     1      -6.012  10.730  66.066  1.00  0.00    -0.058 I  
HETATM   35  C   UNL     1      -6.559   9.364  67.663  1.00  0.00    -0.063 A  
BRANCH  33  36
HETATM   36  C   UNL     1      -7.521   7.715  65.964  1.00  0.00    -0.082 C  
HETATM   37  O   UNL     1      -8.508   8.258  65.479  1.00  0.00    -0.147 OA 
HETATM   38  N   UNL     1      -6.792   6.775  65.257  1.00  0.00    -0.050 N  
HETATM   39  H   UNL     1      -5.945   6.383  65.668  1.00  0.00     0.000 HD 
BRANCH  38  40
HETATM   40  C   UNL     1      -7.221   6.334  63.930  1.00  0.00    -0.062 C  
BRANCH  40  41
HETATM   41  C   UNL     1      -8.297   5.253  64.016  1.00  0.00    -0.125 C  
HETATM   42  O   UNL     1      -9.337   5.674  64.899  1.00  0.00    -0.352 OA 
HETATM   43  H   UNL     1     -10.007   5.002  64.953  1.00  0.00     0.000 HD 
ENDBRANCH  40  41
ENDBRANCH  38  40
ENDBRANCH  33  36
ENDBRANCH  21  24
ENDBRANCH  19  20
ENDBRANCH  16  19
ENDBRANCH   9  15
BRANCH  13  44
HETATM   44  N   UNL     1     -10.380  15.497  65.821  1.00  0.00    -0.336 N  
HETATM   45  C   UNL     1     -11.419  14.554  65.738  1.00  0.00    -0.342 C  
HETATM   46  O   UNL     1     -12.194  14.555  64.765  1.00  0.00    -0.428 OA 
HETATM   47  C   UNL     1     -10.291  16.308  64.596  1.00  0.00     0.710 C  
HETATM   48  C   UNL     1     -11.624  13.473  66.742  1.00  0.00    -0.397 C  
ENDBRANCH  13  44
ENDBRANCH   4   6
TORSDOF 9
ENDMDL
MODEL       51
REMARK 921   NORMALIZED FREE ENERGY PREDICTED BY IDOCK:   17.93 KCAL/MOL
REMARK 922        TOTAL FREE ENERGY PREDICTED BY IDOCK:   26.25 KCAL/MOL
REMARK 923 INTER-LIGAND FREE ENERGY PREDICTED BY IDOCK:   23.27 KCAL/MOL
REMARK 924 INTRA-LIGAND FREE ENERGY PREDICTED BY IDOCK:    2.98 KCAL/MOL
REMARK 927      BINDING AFFINITY PREDICTED BY RF-SCORE:    0.00 PKD
ROOT
HETATM    1  C   UNL     1     -13.953  20.615  67.881  1.00  0.00     6.189 C  
HETATM    2  N   UNL     1     -12.717  19.875  67.705  1.00  0.00     3.350 N  
HETATM    3  H   UNL     1     -12.564  19.368  66.833  1.00  0.00     0.000 HD 
HETATM    4  C   UNL     1     -11.740  19.836  68.685  1.00  0.00     3.274 C  
HETATM    5  O   UNL     1     -11.815  20.469  69.721  1.00  0.00     3.421 OA 
ENDROOT
BRANCH   4   6
HETATM    6  C   UNL     1     -10.549  18.959  68.400  1.00  0.00    -0.128 A  
HETATM    7  C   UNL     1     -10.623  17.892  67.477  1.00  0.00    -0.376 A  
HETATM    8  I   UNL     1     -12.504  17.464  66.502  1.00  0.00     7.882 I  
HETATM    9  C   UNL     1      -9.447  17.159  67.152  1.00  0.00    -0.249 A  
HETATM   10  I   UNL     1      -9.542  19.973  71.125  1.00  0.00     3.733 I  
HETATM   11  C   UNL     1      -8.191  17.700  67.576  1.00  0.00    -0.216 A  
HETATM   12  I   UNL     1      -6.653  17.585  66.009  1.00  0.00     0.129 I  
HETATM   13  C   UNL     1      -8.070  18.682  68.611  1.00  0.00    -0.322 A  
HETATM   14  C   UNL     1      -9.322  19.204  69.069  1.00  0.00    -0.277 A  
BRANCH   9  15
HETATM   15  C   UNL     1      -9.521  15.856  66.373  1.00  0.00    -0.295 C  
HETATM   16  N   UNL     1      -8.367  15.103  66.247  1.00  0.00    -0.324 N  
HETATM   17  O   UNL     1     -10.555  15.433  65.880  1.00  0.00    -0.308 OA 
HETATM   18  H   UNL     1      -7.467  15.494  66.524  1.00  0.00     0.000 HD 
BRANCH  16  19
HETATM   19  C   UNL     1      -8.445  13.738  65.713  1.00  0.00     1.858 C  
BRANCH  19  20
HETATM   20  C   UNL     1      -8.737  12.657  66.778  1.00  0.00    -0.134 C  
HETATM   21  N   UNL     1      -7.990  11.495  66.616  1.00  0.00    -0.237 N  
HETATM   22  O   UNL     1      -9.501  12.864  67.717  1.00  0.00    -0.188 OA 
HETATM   23  H   UNL     1      -7.370  11.414  65.810  1.00  0.00     0.000 HD 
BRANCH  21  24
HETATM   24  C   UNL     1      -8.066  10.410  67.548  1.00  0.00    -0.107 A  
HETATM   25  C   UNL     1      -7.311  10.480  68.741  1.00  0.00    -0.092 A  
HETATM   26  C   UNL     1      -7.371   9.444  69.702  1.00  0.00    -0.077 A  
HETATM   27  I   UNL     1      -6.175  12.259  69.144  1.00  0.00    -0.106 I  
HETATM   28  C   UNL     1      -6.413   9.492  70.854  1.00  0.00    -0.094 C  
HETATM   29  C   UNL     1      -8.241   8.348  69.498  1.00  0.00    -0.118 A  
HETATM   30  I   UNL     1      -8.485   6.899  71.097  1.00  0.00    -0.122 I  
HETATM   31  O   UNL     1      -5.215   9.595  70.687  1.00  0.00    -0.034 OA 
HETATM   32  O   UNL     1      -6.992   9.512  72.069  1.00  0.00    -0.210 OA 
HETATM   33  C   UNL     1      -8.969   8.217  68.282  1.00  0.00    -0.136 A  
HETATM   34  I   UNL     1      -9.401   8.839  65.236  1.00  0.00     0.500 I  
HETATM   35  C   UNL     1      -8.824   9.237  67.291  1.00  0.00    -0.124 A  
BRANCH  33  36
HETATM   36  C   UNL     1      -9.781   6.984  68.026  1.00  0.00    -0.129 C  
HETATM   37  O   UNL     1     -11.004   7.016  68.121  1.00  0.00    -0.178 OA 
HETATM   38  N   UNL     1      -9.113   5.824  67.677  1.00  0.00    -0.107 N  
HETATM   39  H   UNL     1      -8.100   5.845  67.553  1.00  0.00     0.000 HD 
BRANCH  38  40
HETATM   40  C   UNL     1      -9.837   4.568  67.484  1.00  0.00    -0.140 C  
BRANCH  40  41
HETATM   41  C   UNL     1     -10.017   4.245  66.002  1.00  0.00    -0.219 C  
HETATM   42  O   UNL     1     -11.190   4.888  65.504  1.00  0.00    -0.850 OA 
HETATM   43  H   UNL     1     -11.302   4.687  64.582  1.00  0.00     0.000 HD 
ENDBRANCH  40  41
ENDBRANCH  38  40
ENDBRANCH  33  36
ENDBRANCH  21  24
ENDBRANCH  19  20
ENDBRANCH  16  19
ENDBRANCH   9  15
BRANCH  13  44
HETATM   44  N   UNL     1      -6.796  19.227  69.095  1.00  0.00    -0.326 N  
HETATM   45  C   UNL     1      -6.165  20.448  68.802  1.00  0.00    -0.322 C  
HETATM   46  O   UNL     1      -5.128  20.781  69.402  1.00  0.00    -0.261 OA 
HETATM   47  C   UNL     1      -6.003  18.425  70.040  1.00  0.00    -0.172 C  
HETATM   48  C   UNL     1      -6.636  21.376  67.736  1.00  0.00    -0.089 C  
ENDBRANCH  13  44
ENDBRANCH   4   6
TORSDOF 9
ENDMDL
MODEL       52
REMARK 921   NORMALIZED FREE ENERGY PREDICTED BY IDOCK:   18.47 KCAL/MOL
REMARK 922        TOTAL FREE ENERGY PREDICTED BY IDOCK:   27.07 KCAL/MOL
REMARK 923 INTER-LIGAND FREE ENERGY PREDICTED BY IDOCK:   18.88 KCAL/MOL
REMARK 924 INTRA-LIGAND FREE ENERGY PREDICTED BY IDOCK:    8.19 KCAL/MOL
REMARK 927      BINDING AFFINITY PREDICTED BY RF-SCORE:    0.00 PKD
ROOT
HETATM    1  C   UNL     1     -11.703   9.080  62.710  1.00  0.00    13.901 C  
HETATM    2  N   UNL     1     -10.768   8.644  63.731  1.00  0.00     6.897 N  
HETATM    3  H   UNL     1     -11.110   8.486  64.679  1.00  0.00     0.000 HD 
HETATM    4  C   UNL     1      -9.427   8.438  63.456  1.00  0.00     2.262 C  
HETATM    5  O   UNL     1      -8.957   8.536  62.339  1.00  0.00    -0.069 OA 
ENDROOT
BRANCH   4   6
HETATM    6  C   UNL     1      -8.558   8.071  64.631  1.00  0.00     0.085 A  
HETATM    7  C   UNL     1      -8.644   8.766  65.857  1.00  0.00    -0.154 A  
HETATM    8  I   UNL     1     -10.000  10.440  66.033  1.00  0.00    -0.285 I  
HETATM    9  C   UNL     1      -7.889   8.317  66.976  1.00  0.00    -0.096 A  
HETATM   10  I   UNL     1      -6.760   6.773  62.498  1.00  0.00    -0.046 I  
HETATM   11  C   UNL     1      -7.275   7.026  66.886  1.00  0.00    -0.077 A  
HETATM   12  I   UNL     1      -7.522   5.847  68.725  1.00  0.00    -0.088 I  
HETATM   13  C   UNL     1      -7.044   6.353  65.643  1.00  0.00    -0.065 A  
HETATM   14  C   UNL     1      -7.633   7.002  64.511  1.00  0.00    -0.107 A  
BRANCH   9  15
HETATM   15  C   UNL     1      -7.747   9.170  68.226  1.00  0.00    -0.091 C  
HETATM   16  N   UNL     1      -6.677  10.043  68.305  1.00  0.00    -0.055 N  
HETATM   17  O   UNL     1      -8.549   9.139  69.147  1.00  0.00    -0.128 OA 
HETATM   18  H   UNL     1      -5.922   9.991  67.622  1.00  0.00     0.000 HD 
BRANCH  16  19
HETATM   19  C   UNL     1      -6.634  11.045  69.377  1.00  0.00    -0.104 C  
BRANCH  19  20
HETATM   20  C   UNL     1      -6.519  12.503  68.877  1.00  0.00    -0.091 C  
HETATM   21  N   UNL     1      -7.665  13.260  69.092  1.00  0.00    -0.318 N  
HETATM   22  O   UNL     1      -5.472  12.947  68.413  1.00  0.00    -0.055 OA 
HETATM   23  H   UNL     1      -8.488  12.810  69.495  1.00  0.00     0.000 HD 
BRANCH  21  24
HETATM   24  C   UNL     1      -7.723  14.654  68.765  1.00  0.00    -0.137 A  
HETATM   25  C   UNL     1      -6.863  15.550  69.440  1.00  0.00    -0.176 A  
HETATM   26  C   UNL     1      -6.868  16.931  69.136  1.00  0.00    -0.238 A  
HETATM   27  I   UNL     1      -5.438  14.760  70.840  1.00  0.00    -0.071 I  
HETATM   28  C   UNL     1      -6.067  17.850  70.009  1.00  0.00    -0.115 C  
HETATM   29  C   UNL     1      -7.702  17.419  68.104  1.00  0.00    -0.221 A  
HETATM   30  I   UNL     1      -7.512  19.498  67.505  1.00  0.00    -0.300 I  
HETATM   31  O   UNL     1      -6.206  17.870  71.215  1.00  0.00     1.100 OA 
HETATM   32  O   UNL     1      -5.129  18.567  69.364  1.00  0.00    -0.174 OA 
HETATM   33  C   UNL     1      -8.622  16.555  67.446  1.00  0.00    -0.193 A  
HETATM   34  I   UNL     1     -10.380  13.957  67.333  1.00  0.00    -0.257 I  
HETATM   35  C   UNL     1      -8.656  15.180  67.833  1.00  0.00    -0.153 A  
BRANCH  33  36
HETATM   36  C   UNL     1      -9.592  17.115  66.450  1.00  0.00    -0.278 C  
HETATM   37  O   UNL     1     -10.044  16.404  65.558  1.00  0.00    -0.508 OA 
HETATM   38  N   UNL     1      -9.960  18.443  66.573  1.00  0.00    -0.358 N  
HETATM   39  H   UNL     1      -9.608  18.991  67.359  1.00  0.00     0.000 HD 
BRANCH  38  40
HETATM   40  C   UNL     1     -10.845  19.072  65.594  1.00  0.00    -0.090 C  
BRANCH  40  41
HETATM   41  C   UNL     1     -10.638  20.584  65.538  1.00  0.00     0.389 C  
HETATM   42  O   UNL     1      -9.655  20.976  66.497  1.00  0.00    -0.460 OA 
HETATM   43  H   UNL     1      -9.526  21.916  66.461  1.00  0.00     0.000 HD 
ENDBRANCH  40  41
ENDBRANCH  38  40
ENDBRANCH  33  36
ENDBRANCH  21  24
ENDBRANCH  19  20
ENDBRANCH  16  19
ENDBRANCH   9  15
BRANCH  13  44
HETATM   44  N   UNL     1      -6.384   5.049  65.514  1.00  0.00    -0.034 N  
HETATM   45  C   UNL     1      -6.669   3.824  66.142  1.00  0.00    -0.049 C  
HETATM   46  O   UNL     1      -6.056   2.792  65.818  1.00  0.00    -0.022 OA 
HETATM   47  C   UNL     1      -5.237   4.929  64.600  1.00  0.00    -0.012 C  
HETATM   48  C   UNL     1      -7.648   3.686  67.257  1.00  0.00    -0.078 C  
ENDBRANCH  13  44
ENDBRANCH   4   6
TORSDOF 9
ENDMDL
MODEL       53
REMARK 921   NORMALIZED FREE ENERGY PREDICTED BY IDOCK:   19.62 KCAL/MOL
REMARK 922        TOTAL FREE ENERGY PREDICTED BY IDOCK:   28.82 KCAL/MOL
REMARK 923 INTER-LIGAND FREE ENERGY PREDICTED BY IDOCK:   23.98 KCAL/MOL
REMARK 924 INTRA-LIGAND FREE ENERGY PREDICTED BY IDOCK:    4.84 KCAL/MOL
REMARK 927      BINDING AFFINITY PREDICTED BY RF-SCORE:    0.00 PKD
ROOT
HETATM    1  C   UNL     1     -14.010  20.384  66.944  1.00  0.00     6.587 C  
HETATM    2  N   UNL     1     -12.756  19.654  66.958  1.00  0.00     4.159 N  
HETATM    3  H   UNL     1     -12.552  19.004  66.198  1.00  0.00     0.000 HD 
HETATM    4  C   UNL     1     -11.827  19.814  67.972  1.00  0.00     2.411 C  
HETATM    5  O   UNL     1     -11.961  20.619  68.873  1.00  0.00     3.086 OA 
ENDROOT
BRANCH   4   6
HETATM    6  C   UNL     1     -10.609  18.929  67.901  1.00  0.00    -0.425 A  
HETATM    7  C   UNL     1     -10.582  17.777  67.085  1.00  0.00    -0.287 A  
HETATM    8  I   UNL     1     -12.347  17.230  65.965  1.00  0.00     7.411 I  
HETATM    9  C   UNL     1      -9.376  17.031  66.959  1.00  0.00    -0.249 A  
HETATM   10  I   UNL     1      -9.900  20.219  70.604  1.00  0.00     3.055 I  
HETATM   11  C   UNL     1      -8.173  17.628  67.459  1.00  0.00    -0.216 A  
HETATM   12  I   UNL     1      -6.478  17.381  66.081  1.00  0.00     0.143 I  
HETATM   13  C   UNL     1      -8.166  18.708  68.398  1.00  0.00    -0.334 A  
HETATM   14  C   UNL     1      -9.461  19.255  68.668  1.00  0.00    -0.405 A  
BRANCH   9  15
HETATM   15  C   UNL     1      -9.363  15.657  66.309  1.00  0.00    -0.323 C  
HETATM   16  N   UNL     1      -8.170  14.957  66.283  1.00  0.00    -0.172 N  
HETATM   17  O   UNL     1     -10.361  15.135  65.837  1.00  0.00    -0.288 OA 
HETATM   18  H   UNL     1      -7.298  15.420  66.541  1.00  0.00     0.000 HD 
BRANCH  16  19
HETATM   19  C   UNL     1      -8.165  13.545  65.883  1.00  0.00     2.080 C  
BRANCH  19  20
HETATM   20  C   UNL     1      -8.534  12.563  67.017  1.00  0.00    -0.161 C  
HETATM   21  N   UNL     1      -9.877  12.204  67.031  1.00  0.00    -0.201 N  
HETATM   22  O   UNL     1      -7.684  12.096  67.770  1.00  0.00    -0.119 OA 
HETATM   23  H   UNL     1     -10.512  12.635  66.359  1.00  0.00     0.000 HD 
BRANCH  21  24
HETATM   24  C   UNL     1     -10.394  11.245  67.962  1.00  0.00    -0.183 A  
HETATM   25  C   UNL     1     -10.296   9.869  67.650  1.00  0.00    -0.225 A  
HETATM   26  C   UNL     1     -10.772   8.885  68.547  1.00  0.00    -0.124 A  
HETATM   27  I   UNL     1      -9.279   9.286  65.850  1.00  0.00    -0.311 I  
HETATM   28  C   UNL     1     -10.804   7.460  68.081  1.00  0.00    -0.037 C  
HETATM   29  C   UNL     1     -11.302   9.274  69.799  1.00  0.00    -0.005 A  
HETATM   30  I   UNL     1     -11.801   7.732  71.244  1.00  0.00    -0.321 I  
HETATM   31  O   UNL     1     -11.360   7.136  67.052  1.00  0.00    -0.153 OA 
HETATM   32  O   UNL     1     -10.091   6.603  68.835  1.00  0.00    -0.155 OA 
HETATM   33  C   UNL     1     -11.469  10.651  70.119  1.00  0.00    -0.411 A  
HETATM   34  I   UNL     1     -11.801  13.661  69.295  1.00  0.00    -0.350 I  
HETATM   35  C   UNL     1     -11.058  11.625  69.158  1.00  0.00    -0.245 A  
BRANCH  33  36
HETATM   36  C   UNL     1     -12.155  11.044  71.392  1.00  0.00    -0.072 C  
HETATM   37  O   UNL     1     -11.823  10.533  72.457  1.00  0.00     1.627 OA 
HETATM   38  N   UNL     1     -13.157  11.996  71.327  1.00  0.00    -0.216 N  
HETATM   39  H   UNL     1     -13.370  12.441  70.434  1.00  0.00     0.000 HD 
BRANCH  38  40
HETATM   40  C   UNL     1     -13.915  12.373  72.519  1.00  0.00     0.319 C  
BRANCH  40  41
HETATM   41  C   UNL     1     -13.412  13.687  73.113  1.00  0.00     0.598 C  
HETATM   42  O   UNL     1     -12.524  14.326  72.197  1.00  0.00    -0.302 OA 
HETATM   43  H   UNL     1     -12.211  15.143  72.566  1.00  0.00     0.000 HD 
ENDBRANCH  40  41
ENDBRANCH  38  40
ENDBRANCH  33  36
ENDBRANCH  21  24
ENDBRANCH  19  20
ENDBRANCH  16  19
ENDBRANCH   9  15
BRANCH  13  44
HETATM   44  N   UNL     1      -6.952  19.314  68.958  1.00  0.00    -0.334 N  
HETATM   45  C   UNL     1      -6.180  20.390  68.488  1.00  0.00    -0.317 C  
HETATM   46  O   UNL     1      -5.236  20.832  69.167  1.00  0.00    -0.274 OA 
HETATM   47  C   UNL     1      -6.402  18.762  70.206  1.00  0.00     0.117 C  
HETATM   48  C   UNL     1      -6.382  21.020  67.154  1.00  0.00    -0.398 C  
ENDBRANCH  13  44
ENDBRANCH   4   6
TORSDOF 9
ENDMDL
MODEL       54
REMARK 921   NORMALIZED FREE ENERGY PREDICTED BY IDOCK:   23.22 KCAL/MOL
REMARK 922        TOTAL FREE ENERGY PREDICTED BY IDOCK:   34.32 KCAL/MOL
REMARK 923 INTER-LIGAND FREE ENERGY PREDICTED BY IDOCK:   18.44 KCAL/MOL
REMARK 924 INTRA-LIGAND FREE ENERGY PREDICTED BY IDOCK:   15.88 KCAL/MOL
REMARK 927      BINDING AFFINITY PREDICTED BY RF-SCORE:    0.00 PKD
ROOT
HETATM    1  C   UNL     1      -9.232  20.868  68.622  1.00  0.00     1.107 C  
HETATM    2  N   UNL     1      -9.527  19.452  68.511  1.00  0.00    -0.370 N  
HETATM    3  H   UNL     1      -9.773  19.068  67.598  1.00  0.00     0.000 HD 
HETATM    4  C   UNL     1      -9.484  18.606  69.606  1.00  0.00     0.550 C  
HETATM    5  O   UNL     1      -9.132  18.971  70.711  1.00  0.00     2.532 OA 
ENDROOT
BRANCH   4   6
HETATM    6  C   UNL     1      -9.897  17.179  69.358  1.00  0.00     0.004 A  
HETATM    7  C   UNL     1     -10.745  16.490  70.254  1.00  0.00    -0.081 A  
HETATM    8  I   UNL     1     -11.409  17.480  72.056  1.00  0.00     4.301 I  
HETATM    9  C   UNL     1     -11.203  15.183  69.927  1.00  0.00    -0.305 A  
HETATM   10  I   UNL     1      -7.405  17.098  67.555  1.00  0.00    -0.213 I  
HETATM   11  C   UNL     1     -10.995  14.725  68.586  1.00  0.00    -0.255 A  
HETATM   12  I   UNL     1     -12.764  13.714  67.760  1.00  0.00     2.561 I  
HETATM   13  C   UNL     1     -10.040  15.312  67.696  1.00  0.00    -0.235 A  
HETATM   14  C   UNL     1      -9.430  16.505  68.200  1.00  0.00    -0.222 A  
BRANCH   9  15
HETATM   15  C   UNL     1     -11.896  14.309  70.959  1.00  0.00    -0.237 C  
HETATM   16  N   UNL     1     -13.104  13.727  70.619  1.00  0.00    -0.113 N  
HETATM   17  O   UNL     1     -11.420  14.075  72.060  1.00  0.00     0.858 OA 
HETATM   18  H   UNL     1     -13.589  14.013  69.769  1.00  0.00     0.000 HD 
BRANCH  16  19
HETATM   19  C   UNL     1     -13.684  12.697  71.489  1.00  0.00     0.417 C  
BRANCH  19  20
HETATM   20  C   UNL     1     -12.873  11.383  71.542  1.00  0.00    -0.403 C  
HETATM   21  N   UNL     1     -12.153  11.122  70.381  1.00  0.00    -0.356 N  
HETATM   22  O   UNL     1     -12.821  10.695  72.558  1.00  0.00     0.057 OA 
HETATM   23  H   UNL     1     -12.248  11.755  69.587  1.00  0.00     0.000 HD 
BRANCH  21  24
HETATM   24  C   UNL     1     -11.283   9.990  70.269  1.00  0.00    -0.313 A  
HETATM   25  C   UNL     1     -11.187   9.091  71.356  1.00  0.00    -0.324 A  
HETATM   26  C   UNL     1     -10.358   7.948  71.284  1.00  0.00    -0.222 A  
HETATM   27  I   UNL     1     -12.436   9.410  73.075  1.00  0.00     3.332 I  
HETATM   28  C   UNL     1     -10.162   7.137  72.530  1.00  0.00    -0.194 C  
HETATM   29  C   UNL     1      -9.657   7.664  70.090  1.00  0.00    -0.168 A  
HETATM   30  I   UNL     1      -8.586   5.781  69.932  1.00  0.00    -0.137 I  
HETATM   31  O   UNL     1      -9.786   7.641  73.569  1.00  0.00    -0.281 OA 
HETATM   32  O   UNL     1     -10.527   5.846  72.428  1.00  0.00    -0.195 OA 
HETATM   33  C   UNL     1      -9.684   8.578  68.998  1.00  0.00    -0.170 A  
HETATM   34  I   UNL     1     -10.099  11.452  67.808  1.00  0.00    -0.228 I  
HETATM   35  C   UNL     1     -10.463   9.768  69.131  1.00  0.00    -0.215 A  
BRANCH  33  36
HETATM   36  C   UNL     1      -8.830   8.327  67.793  1.00  0.00    -0.137 C  
HETATM   37  O   UNL     1      -7.919   9.098  67.509  1.00  0.00    -0.099 OA 
HETATM   38  N   UNL     1      -9.096   7.207  67.026  1.00  0.00    -0.130 N  
HETATM   39  H   UNL     1      -9.825   6.557  67.321  1.00  0.00     0.000 HD 
BRANCH  38  40
HETATM   40  C   UNL     1      -8.348   6.941  65.798  1.00  0.00    -0.142 C  
BRANCH  40  41
HETATM   41  C   UNL     1      -6.900   6.553  66.094  1.00  0.00    -0.057 C  
HETATM   42  O   UNL     1      -6.093   6.770  64.937  1.00  0.00    -0.034 OA 
HETATM   43  H   UNL     1      -5.193   6.529  65.121  1.00  0.00     0.000 HD 
ENDBRANCH  40  41
ENDBRANCH  38  40
ENDBRANCH  33  36
ENDBRANCH  21  24
ENDBRANCH  19  20
ENDBRANCH  16  19
ENDBRANCH   9  15
BRANCH  13  44
HETATM   44  N   UNL     1      -9.777  14.843  66.331  1.00  0.00    -0.269 N  
HETATM   45  C   UNL     1      -8.578  14.824  65.596  1.00  0.00     1.685 C  
HETATM   46  O   UNL     1      -8.534  14.281  64.478  1.00  0.00     4.969 OA 
HETATM   47  C   UNL     1     -10.895  14.290  65.550  1.00  0.00    -0.322 C  
HETATM   48  C   UNL     1      -7.329  15.491  66.054  1.00  0.00     2.495 C  
ENDBRANCH  13  44
ENDBRANCH   4   6
TORSDOF 9
ENDMDL
MODEL       55
REMARK 921   NORMALIZED FREE ENERGY PREDICTED BY IDOCK:   26.08 KCAL/MOL
REMARK 922        TOTAL FREE ENERGY PREDICTED BY IDOCK:   38.68 KCAL/MOL
REMARK 923 INTER-LIGAND FREE ENERGY PREDICTED BY IDOCK:   26.15 KCAL/MOL
REMARK 924 INTRA-LIGAND FREE ENERGY PREDICTED BY IDOCK:   12.54 KCAL/MOL
REMARK 927      BINDING AFFINITY PREDICTED BY RF-SCORE:    0.00 PKD
ROOT
HETATM    1  C   UNL     1     -13.717   8.022  74.017  1.00  0.00     5.367 C  
HETATM    2  N   UNL     1     -12.386   7.831  73.470  1.00  0.00     1.163 N  
HETATM    3  H   UNL     1     -11.607   7.668  74.109  1.00  0.00     0.000 HD 
HETATM    4  C   UNL     1     -12.142   7.863  72.107  1.00  0.00    -0.326 C  
HETATM    5  O   UNL     1     -13.024   7.982  71.279  1.00  0.00    -0.277 OA 
ENDROOT
BRANCH   4   6
HETATM    6  C   UNL     1     -10.701   7.736  71.688  1.00  0.00    -0.257 A  
HETATM    7  C   UNL     1     -10.003   8.818  71.109  1.00  0.00    -0.248 A  
HETATM    8  I   UNL     1     -11.042  10.678  70.749  1.00  0.00     0.925 I  
HETATM    9  C   UNL     1      -8.613   8.692  70.832  1.00  0.00    -0.204 A  
HETATM   10  I   UNL     1     -11.298   4.717  71.668  1.00  0.00     1.766 I  
HETATM   11  C   UNL     1      -7.924   7.567  71.391  1.00  0.00    -0.095 A  
HETATM   12  I   UNL     1      -5.976   8.116  72.250  1.00  0.00    -0.063 I  
HETATM   13  C   UNL     1      -8.595   6.392  71.860  1.00  0.00    -0.127 A  
HETATM   14  C   UNL     1     -10.022   6.504  71.880  1.00  0.00    -0.177 A  
BRANCH   9  15
HETATM   15  C   UNL     1      -7.881   9.719  69.982  1.00  0.00    -0.178 C  
HETATM   16  N   UNL     1      -6.707  10.260  70.474  1.00  0.00    -0.113 N  
HETATM   17  O   UNL     1      -8.269  10.063  68.876  1.00  0.00    -0.106 OA 
HETATM   18  H   UNL     1      -6.436  10.098  71.444  1.00  0.00     0.000 HD 
BRANCH  16  19
HETATM   19  C   UNL     1      -5.855  11.068  69.594  1.00  0.00    -0.062 C  
BRANCH  19  20
HETATM   20  C   UNL     1      -6.627  12.082  68.721  1.00  0.00    -0.082 C  
HETATM   21  N   UNL     1      -7.890  12.397  69.213  1.00  0.00    -0.224 N  
HETATM   22  O   UNL     1      -6.116  12.609  67.736  1.00  0.00    -0.095 OA 
HETATM   23  H   UNL     1      -8.230  11.917  70.046  1.00  0.00     0.000 HD 
BRANCH  21  24
HETATM   24  C   UNL     1      -8.725  13.375  68.582  1.00  0.00     0.015 A  
HETATM   25  C   UNL     1      -8.685  13.501  67.174  1.00  0.00    -0.215 A  
HETATM   26  C   UNL     1      -9.507  14.437  66.505  1.00  0.00    -0.309 A  
HETATM   27  I   UNL     1      -7.457  12.146  66.048  1.00  0.00     2.201 I  
HETATM   28  C   UNL     1      -9.288  14.648  65.037  1.00  0.00     1.060 C  
HETATM   29  C   UNL     1     -10.425  15.219  67.243  1.00  0.00    -0.275 A  
HETATM   30  I   UNL     1     -11.834  16.470  66.164  1.00  0.00     2.718 I  
HETATM   31  O   UNL     1      -8.195  14.924  64.586  1.00  0.00     5.785 OA 
HETATM   32  O   UNL     1     -10.365  14.412  64.265  1.00  0.00    -0.066 OA 
HETATM   33  C   UNL     1     -10.449  15.159  68.666  1.00  0.00    -0.234 A  
HETATM   34  I   UNL     1      -9.100  14.534  71.430  1.00  0.00     7.494 I  
HETATM   35  C   UNL     1      -9.547  14.266  69.322  1.00  0.00     0.189 A  
BRANCH  33  36
HETATM   36  C   UNL     1     -11.332  16.091  69.438  1.00  0.00    -0.355 C  
HETATM   37  O   UNL     1     -11.286  17.300  69.234  1.00  0.00     0.220 OA 
HETATM   38  N   UNL     1     -12.196  15.547  70.372  1.00  0.00    -0.388 N  
HETATM   39  H   UNL     1     -12.249  14.534  70.478  1.00  0.00     0.000 HD 
BRANCH  38  40
HETATM   40  C   UNL     1     -13.034  16.405  71.210  1.00  0.00     1.554 C  
BRANCH  40  41
HETATM   41  C   UNL     1     -12.241  17.005  72.370  1.00  0.00     1.158 C  
HETATM   42  O   UNL     1     -12.304  16.137  73.502  1.00  0.00    -0.479 OA 
HETATM   43  H   UNL     1     -11.811  16.510  74.223  1.00  0.00     0.000 HD 
ENDBRANCH  40  41
ENDBRANCH  38  40
ENDBRANCH  33  36
ENDBRANCH  21  24
ENDBRANCH  19  20
ENDBRANCH  16  19
ENDBRANCH   9  15
BRANCH  13  44
HETATM   44  N   UNL     1      -7.917   5.209  72.403  1.00  0.00    -0.101 N  
HETATM   45  C   UNL     1      -8.430   3.940  72.721  1.00  0.00    -0.099 C  
HETATM   46  O   UNL     1      -7.668   3.023  73.073  1.00  0.00    -0.053 OA 
HETATM   47  C   UNL     1      -6.475   5.291  72.681  1.00  0.00    -0.055 C  
HETATM   48  C   UNL     1      -9.886   3.624  72.726  1.00  0.00    -0.204 C  
ENDBRANCH  13  44
ENDBRANCH   4   6
TORSDOF 9
ENDMDL
MODEL       56
REMARK 921   NORMALIZED FREE ENERGY PREDICTED BY IDOCK:   32.21 KCAL/MOL
REMARK 922        TOTAL FREE ENERGY PREDICTED BY IDOCK:   48.03 KCAL/MOL
REMARK 923 INTER-LIGAND FREE ENERGY PREDICTED BY IDOCK:   20.65 KCAL/MOL
REMARK 924 INTRA-LIGAND FREE ENERGY PREDICTED BY IDOCK:   27.38 KCAL/MOL
REMARK 927      BINDING AFFINITY PREDICTED BY RF-SCORE:    0.00 PKD
ROOT
HETATM    1  C   UNL     1      -9.059   5.474  70.948  1.00  0.00    -0.143 C  
HETATM    2  N   UNL     1      -9.436   6.585  70.094  1.00  0.00    -0.158 N  
HETATM    3  H   UNL     1      -8.703   7.152  69.668  1.00  0.00     0.000 HD 
HETATM    4  C   UNL     1     -10.761   6.897  69.841  1.00  0.00    -0.246 C  
HETATM    5  O   UNL     1     -11.690   6.230  70.252  1.00  0.00    -0.384 OA 
ENDROOT
BRANCH   4   6
HETATM    6  C   UNL     1     -11.003   8.128  69.006  1.00  0.00     0.093 A  
HETATM    7  C   UNL     1     -11.518   9.315  69.574  1.00  0.00     0.216 A  
HETATM    8  I   UNL     1     -12.035   9.346  71.672  1.00  0.00    -0.389 I  
HETATM    9  C   UNL     1     -11.625  10.488  68.777  1.00  0.00    -0.252 A  
HETATM   10  I   UNL     1     -11.034   6.147  66.652  1.00  0.00     0.542 I  
HETATM   11  C   UNL     1     -10.966  10.489  67.506  1.00  0.00    -0.303 A  
HETATM   12  I   UNL     1      -9.894  12.368  67.115  1.00  0.00    -0.229 I  
HETATM   13  C   UNL     1     -10.557   9.292  66.835  1.00  0.00    -0.169 A  
HETATM   14  C   UNL     1     -10.708   8.103  67.619  1.00  0.00    -0.133 A  
BRANCH   9  15
HETATM   15  C   UNL     1     -12.403  11.702  69.260  1.00  0.00    -0.025 C  
HETATM   16  N   UNL     1     -12.636  11.832  70.618  1.00  0.00    -0.247 N  
HETATM   17  O   UNL     1     -12.805  12.577  68.509  1.00  0.00     0.831 OA 
HETATM   18  H   UNL     1     -12.437  11.055  71.248  1.00  0.00     0.000 HD 
BRANCH  16  19
HETATM   19  C   UNL     1     -13.170  13.093  71.146  1.00  0.00    -0.032 C  
BRANCH  19  20
HETATM   20  C   UNL     1     -12.344  14.341  70.760  1.00  0.00    -0.357 C  
HETATM   21  N   UNL     1     -10.991  14.081  70.570  1.00  0.00    -0.159 N  
HETATM   22  O   UNL     1     -12.874  15.432  70.564  1.00  0.00    -0.417 OA 
HETATM   23  H   UNL     1     -10.639  13.140  70.746  1.00  0.00     0.000 HD 
BRANCH  21  24
HETATM   24  C   UNL     1     -10.079  15.096  70.136  1.00  0.00    -0.018 A  
HETATM   25  C   UNL     1     -10.201  16.399  70.671  1.00  0.00     1.016 A  
HETATM   26  C   UNL     1      -9.311  17.429  70.290  1.00  0.00     2.470 A  
HETATM   27  I   UNL     1     -11.677  16.759  72.191  1.00  0.00     1.548 I  
HETATM   28  C   UNL     1      -9.603  18.825  70.753  1.00  0.00     3.063 C  
HETATM   29  C   UNL     1      -8.246  17.143  69.404  1.00  0.00     0.311 A  
HETATM   30  I   UNL     1      -6.762  18.683  69.026  1.00  0.00    -0.234 I  
HETATM   31  O   UNL     1     -10.679  19.352  70.554  1.00  0.00     1.297 OA 
HETATM   32  O   UNL     1      -8.626  19.395  71.480  1.00  0.00     3.603 OA 
HETATM   33  C   UNL     1      -8.130  15.859  68.801  1.00  0.00    -0.190 A  
HETATM   34  I   UNL     1      -9.350  13.124  67.861  1.00  0.00    -0.228 I  
HETATM   35  C   UNL     1      -9.095  14.861  69.140  1.00  0.00    -0.140 A  
BRANCH  33  36
HETATM   36  C   UNL     1      -7.077  15.613  67.763  1.00  0.00    -0.153 C  
HETATM   37  O   UNL     1      -6.937  14.497  67.275  1.00  0.00    -0.214 OA 
HETATM   38  N   UNL     1      -6.283  16.678  67.375  1.00  0.00    -0.145 N  
HETATM   39  H   UNL     1      -6.462  17.605  67.761  1.00  0.00     0.000 HD 
BRANCH  38  40
HETATM   40  C   UNL     1      -5.190  16.492  66.421  1.00  0.00     0.608 C  
BRANCH  40  41
HETATM   41  C   UNL     1      -5.137  15.058  65.898  1.00  0.00     6.207 C  
HETATM   42  O   UNL     1      -5.429  14.145  66.956  1.00  0.00     0.117 OA 
HETATM   43  H   UNL     1      -5.396  13.253  66.631  1.00  0.00     0.000 HD 
ENDBRANCH  40  41
ENDBRANCH  38  40
ENDBRANCH  33  36
ENDBRANCH  21  24
ENDBRANCH  19  20
ENDBRANCH  16  19
ENDBRANCH   9  15
BRANCH  13  44
HETATM   44  N   UNL     1      -9.914   9.256  65.516  1.00  0.00    -0.117 N  
HETATM   45  C   UNL     1      -9.588   8.160  64.698  1.00  0.00     1.896 C  
HETATM   46  O   UNL     1      -9.139   8.341  63.553  1.00  0.00     0.620 OA 
HETATM   47  C   UNL     1      -9.524  10.529  64.890  1.00  0.00    -0.252 C  
HETATM   48  C   UNL     1      -9.689   6.745  65.150  1.00  0.00     1.550 C  
ENDBRANCH  13  44
ENDBRANCH   4   6
TORSDOF 9
ENDMDL
MODEL       57
REMARK 921   NORMALIZED FREE ENERGY PREDICTED BY IDOCK:   33.58 KCAL/MOL
REMARK 922        TOTAL FREE ENERGY PREDICTED BY IDOCK:   50.13 KCAL/MOL
REMARK 923 INTER-LIGAND FREE ENERGY PREDICTED BY IDOCK:   37.11 KCAL/MOL
REMARK 924 INTRA-LIGAND FREE ENERGY PREDICTED BY IDOCK:   13.02 KCAL/MOL
REMARK 927      BINDING AFFINITY PREDICTED BY RF-SCORE:    0.00 PKD
ROOT
HETATM    1  C   UNL     1     -13.185   9.450  64.686  1.00  0.00    18.422 C  
HETATM    2  N   UNL     1     -11.812   9.421  65.153  1.00  0.00     6.320 N  
HETATM    3  H   UNL     1     -11.281  10.292  65.185  1.00  0.00     0.000 HD 
HETATM    4  C   UNL     1     -11.200   8.247  65.557  1.00  0.00     6.119 C  
HETATM    5  O   UNL     1     -11.783   7.182  65.615  1.00  0.00     4.825 OA 
ENDROOT
BRANCH   4   6
HETATM    6  C   UNL     1      -9.745   8.353  65.935  1.00  0.00    -0.042 A  
HETATM    7  C   UNL     1      -9.203   9.551  66.449  1.00  0.00    -0.166 A  
HETATM    8  I   UNL     1     -10.468  11.294  66.632  1.00  0.00    -0.310 I  
HETATM    9  C   UNL     1      -7.853   9.577  66.900  1.00  0.00    -0.101 A  
HETATM   10  I   UNL     1      -9.402   5.938  64.060  1.00  0.00     2.037 I  
HETATM   11  C   UNL     1      -7.182   8.321  67.055  1.00  0.00    -0.083 A  
HETATM   12  I   UNL     1      -6.024   8.212  68.921  1.00  0.00    -0.041 I  
HETATM   13  C   UNL     1      -7.628   7.112  66.431  1.00  0.00    -0.092 A  
HETATM   14  C   UNL     1      -8.896   7.227  65.777  1.00  0.00    -0.066 A  
BRANCH   9  15
HETATM   15  C   UNL     1      -7.152  10.889  67.216  1.00  0.00    -0.097 C  
HETATM   16  N   UNL     1      -5.966  10.842  67.926  1.00  0.00    -0.046 N  
HETATM   17  O   UNL     1      -7.574  11.974  66.846  1.00  0.00    -0.134 OA 
HETATM   18  H   UNL     1      -5.665   9.972  68.364  1.00  0.00     0.000 HD 
BRANCH  16  19
HETATM   19  C   UNL     1      -5.143  12.052  68.045  1.00  0.00    -0.053 C  
BRANCH  19  20
HETATM   20  C   UNL     1      -5.921  13.303  68.512  1.00  0.00    -0.083 C  
HETATM   21  N   UNL     1      -7.154  13.460  67.889  1.00  0.00    -0.119 N  
HETATM   22  O   UNL     1      -5.501  14.027  69.411  1.00  0.00    -0.082 OA 
HETATM   23  H   UNL     1      -7.427  12.802  67.158  1.00  0.00     0.000 HD 
BRANCH  21  24
HETATM   24  C   UNL     1      -8.052  14.518  68.245  1.00  0.00    -0.140 A  
HETATM   25  C   UNL     1      -9.386  14.196  68.586  1.00  0.00    -0.152 A  
HETATM   26  C   UNL     1     -10.303  15.204  68.965  1.00  0.00    -0.244 A  
HETATM   27  I   UNL     1      -9.965  12.129  68.661  1.00  0.00     0.086 I  
HETATM   28  C   UNL     1     -11.742  14.821  69.139  1.00  0.00    -0.313 C  
HETATM   29  C   UNL     1      -9.869  16.547  69.062  1.00  0.00    -0.266 A  
HETATM   30  I   UNL     1     -11.235  18.027  69.874  1.00  0.00     4.444 I  
HETATM   31  O   UNL     1     -12.362  14.250  68.265  1.00  0.00    -0.224 OA 
HETATM   32  O   UNL     1     -12.250  15.072  70.359  1.00  0.00    -0.298 OA 
HETATM   33  C   UNL     1      -8.551  16.913  68.668  1.00  0.00    -0.267 A  
HETATM   34  I   UNL     1      -5.906  16.409  67.057  1.00  0.00     0.311 I  
HETATM   35  C   UNL     1      -7.671  15.886  68.208  1.00  0.00    -0.137 A  
BRANCH  33  36
HETATM   36  C   UNL     1      -8.151  18.357  68.649  1.00  0.00    -0.297 C  
HETATM   37  O   UNL     1      -8.825  19.178  68.035  1.00  0.00    -0.295 OA 
HETATM   38  N   UNL     1      -7.015  18.729  69.346  1.00  0.00    -0.209 N  
HETATM   39  H   UNL     1      -6.509  18.031  69.892  1.00  0.00     0.000 HD 
BRANCH  38  40
HETATM   40  C   UNL     1      -6.529  20.108  69.311  1.00  0.00    -0.300 C  
BRANCH  40  41
HETATM   41  C   UNL     1      -5.344  20.311  70.253  1.00  0.00    -0.280 C  
HETATM   42  O   UNL     1      -5.402  19.361  71.317  1.00  0.00    -0.260 OA 
HETATM   43  H   UNL     1      -4.665  19.487  71.903  1.00  0.00     0.000 HD 
ENDBRANCH  40  41
ENDBRANCH  38  40
ENDBRANCH  33  36
ENDBRANCH  21  24
ENDBRANCH  19  20
ENDBRANCH  16  19
ENDBRANCH   9  15
BRANCH  13  44
HETATM   44  N   UNL     1      -6.942   5.819  66.539  1.00  0.00    -0.063 N  
HETATM   45  C   UNL     1      -6.906   4.901  67.602  1.00  0.00    -0.060 C  
HETATM   46  O   UNL     1      -6.351   3.797  67.462  1.00  0.00    -0.035 OA 
HETATM   47  C   UNL     1      -6.151   5.346  65.393  1.00  0.00    -0.026 C  
HETATM   48  C   UNL     1      -7.453   5.196  68.956  1.00  0.00    -0.069 C  
ENDBRANCH  13  44
ENDBRANCH   4   6
TORSDOF 9
ENDMDL
MODEL       58
REMARK 921   NORMALIZED FREE ENERGY PREDICTED BY IDOCK:   36.18 KCAL/MOL
REMARK 922        TOTAL FREE ENERGY PREDICTED BY IDOCK:   54.10 KCAL/MOL
REMARK 923 INTER-LIGAND FREE ENERGY PREDICTED BY IDOCK:   49.87 KCAL/MOL
REMARK 924 INTRA-LIGAND FREE ENERGY PREDICTED BY IDOCK:    4.23 KCAL/MOL
REMARK 927      BINDING AFFINITY PREDICTED BY RF-SCORE:    0.00 PKD
ROOT
HETATM    1  C   UNL     1      -8.252  13.442  65.289  1.00  0.00     4.097 C  
HETATM    2  N   UNL     1      -8.726  13.050  66.604  1.00  0.00    -0.421 N  
HETATM    3  H   UNL     1      -8.563  12.096  66.925  1.00  0.00     0.000 HD 
HETATM    4  C   UNL     1      -9.392  13.935  67.436  1.00  0.00    -0.228 C  
HETATM    5  O   UNL     1      -9.563  15.105  67.158  1.00  0.00    -0.213 OA 
ENDROOT
BRANCH   4   6
HETATM    6  C   UNL     1      -9.901  13.366  68.735  1.00  0.00    -0.030 A  
HETATM    7  C   UNL     1      -9.209  12.337  69.411  1.00  0.00     1.168 A  
HETATM    8  I   UNL     1      -7.418  11.508  68.530  1.00  0.00    -0.112 I  
HETATM    9  C   UNL     1      -9.661  11.907  70.690  1.00  0.00     5.612 A  
HETATM   10  I   UNL     1     -12.604  14.515  67.818  1.00  0.00     1.931 I  
HETATM   11  C   UNL     1     -10.642  12.714  71.352  1.00  0.00     7.038 A  
HETATM   12  I   UNL     1     -10.194  13.002  73.485  1.00  0.00    22.293 I  
HETATM   13  C   UNL     1     -11.461  13.670  70.670  1.00  0.00     0.325 A  
HETATM   14  C   UNL     1     -11.100  13.873  69.299  1.00  0.00    -0.218 A  
BRANCH   9  15
HETATM   15  C   UNL     1      -9.116  10.644  71.336  1.00  0.00     5.500 C  
HETATM   16  N   UNL     1      -9.610   9.424  70.909  1.00  0.00    -0.262 N  
HETATM   17  O   UNL     1      -8.243  10.657  72.191  1.00  0.00     5.849 OA 
HETATM   18  H   UNL     1     -10.430   9.388  70.304  1.00  0.00     0.000 HD 
BRANCH  16  19
HETATM   19  C   UNL     1      -8.949   8.184  71.332  1.00  0.00    -0.150 C  
BRANCH  19  20
HETATM   20  C   UNL     1      -8.092   7.517  70.232  1.00  0.00    -0.112 C  
HETATM   21  N   UNL     1      -8.776   7.304  69.041  1.00  0.00    -0.133 N  
HETATM   22  O   UNL     1      -6.897   7.284  70.397  1.00  0.00    -0.051 OA 
HETATM   23  H   UNL     1      -9.768   7.539  68.991  1.00  0.00     0.000 HD 
BRANCH  21  24
HETATM   24  C   UNL     1      -8.129   6.766  67.882  1.00  0.00    -0.114 A  
HETATM   25  C   UNL     1      -7.970   5.365  67.777  1.00  0.00    -0.100 A  
HETATM   26  C   UNL     1      -7.357   4.786  66.642  1.00  0.00    -0.082 A  
HETATM   27  I   UNL     1      -8.808   4.111  69.307  1.00  0.00    -0.194 I  
HETATM   28  C   UNL     1      -7.058   3.317  66.672  1.00  0.00    -0.055 C  
HETATM   29  C   UNL     1      -6.947   5.610  65.568  1.00  0.00    -0.065 A  
HETATM   30  I   UNL     1      -6.230   4.670  63.747  1.00  0.00    -0.023 I  
HETATM   31  O   UNL     1      -6.418   2.813  67.573  1.00  0.00    -0.034 OA 
HETATM   32  O   UNL     1      -7.631   2.603  65.687  1.00  0.00    -0.074 OA 
HETATM   33  C   UNL     1      -7.037   7.027  65.668  1.00  0.00    -0.068 A  
HETATM   34  I   UNL     1      -7.218   9.677  67.340  1.00  0.00    -0.086 I  
HETATM   35  C   UNL     1      -7.583   7.590  66.862  1.00  0.00    -0.102 A  
BRANCH  33  36
HETATM   36  C   UNL     1      -6.475   7.889  64.578  1.00  0.00    -0.056 C  
HETATM   37  O   UNL     1      -5.308   8.266  64.627  1.00  0.00    -0.036 OA 
HETATM   38  N   UNL     1      -7.305   8.235  63.526  1.00  0.00    -0.103 N  
HETATM   39  H   UNL     1      -8.252   7.860  63.489  1.00  0.00     0.000 HD 
BRANCH  38  40
HETATM   40  C   UNL     1      -6.842   9.132  62.467  1.00  0.00    -0.092 C  
BRANCH  40  41
HETATM   41  C   UNL     1      -7.253  10.578  62.735  1.00  0.00    -0.078 C  
HETATM   42  O   UNL     1      -8.140  10.632  63.852  1.00  0.00    -0.332 OA 
HETATM   43  H   UNL     1      -8.395  11.532  64.019  1.00  0.00     0.000 HD 
ENDBRANCH  40  41
ENDBRANCH  38  40
ENDBRANCH  33  36
ENDBRANCH  21  24
ENDBRANCH  19  20
ENDBRANCH  16  19
ENDBRANCH   9  15
BRANCH  13  44
HETATM   44  N   UNL     1     -12.500  14.483  71.311  1.00  0.00    -0.324 N  
HETATM   45  C   UNL     1     -12.456  15.813  71.766  1.00  0.00    -0.459 C  
HETATM   46  O   UNL     1     -13.485  16.367  72.190  1.00  0.00     0.221 OA 
HETATM   47  C   UNL     1     -13.821  13.879  71.546  1.00  0.00    -0.218 C  
HETATM   48  C   UNL     1     -11.201  16.610  71.837  1.00  0.00     0.463 C  
ENDBRANCH  13  44
ENDBRANCH   4   6
TORSDOF 9
ENDMDL
MODEL       59
REMARK 921   NORMALIZED FREE ENERGY PREDICTED BY IDOCK:   40.95 KCAL/MOL
REMARK 922        TOTAL FREE ENERGY PREDICTED BY IDOCK:   61.38 KCAL/MOL
REMARK 923 INTER-LIGAND FREE ENERGY PREDICTED BY IDOCK:   55.02 KCAL/MOL
REMARK 924 INTRA-LIGAND FREE ENERGY PREDICTED BY IDOCK:    6.36 KCAL/MOL
REMARK 927      BINDING AFFINITY PREDICTED BY RF-SCORE:    0.00 PKD
ROOT
HETATM    1  C   UNL     1     -11.767   8.825  63.092  1.00  0.00    16.892 C  
HETATM    2  N   UNL     1     -11.151   8.598  64.386  1.00  0.00     7.986 N  
HETATM    3  H   UNL     1     -11.743   8.564  65.217  1.00  0.00     0.000 HD 
HETATM    4  C   UNL     1      -9.785   8.426  64.527  1.00  0.00     2.147 C  
HETATM    5  O   UNL     1      -9.021   8.382  63.582  1.00  0.00     0.311 OA 
ENDROOT
BRANCH   4   6
HETATM    6  C   UNL     1      -9.276   8.285  65.938  1.00  0.00    -0.185 A  
HETATM    7  C   UNL     1      -9.767   9.099  66.983  1.00  0.00    -0.188 A  
HETATM    8  I   UNL     1     -11.228  10.627  66.538  1.00  0.00     0.856 I  
HETATM    9  C   UNL     1      -9.344   8.859  68.321  1.00  0.00    -0.149 A  
HETATM   10  I   UNL     1      -6.844   6.960  64.599  1.00  0.00    -0.052 I  
HETATM   11  C   UNL     1      -8.642   7.639  68.585  1.00  0.00    -0.129 A  
HETATM   12  I   UNL     1      -9.335   6.650  70.422  1.00  0.00    -0.168 I  
HETATM   13  C   UNL     1      -8.010   6.861  67.562  1.00  0.00    -0.112 A  
HETATM   14  C   UNL     1      -8.284   7.315  66.232  1.00  0.00    -0.123 A  
BRANCH   9  15
HETATM   15  C   UNL     1      -9.636   9.855  69.431  1.00  0.00    -0.215 C  
HETATM   16  N   UNL     1      -8.679  10.811  69.722  1.00  0.00    -0.297 N  
HETATM   17  O   UNL     1     -10.686   9.867  70.055  1.00  0.00    -0.249 OA 
HETATM   18  H   UNL     1      -7.745  10.740  69.318  1.00  0.00     0.000 HD 
BRANCH  16  19
HETATM   19  C   UNL     1      -9.014  11.926  70.615  1.00  0.00     6.777 C  
BRANCH  19  20
HETATM   20  C   UNL     1      -8.134  13.182  70.417  1.00  0.00     4.169 C  
HETATM   21  N   UNL     1      -8.717  14.151  69.608  1.00  0.00     0.097 N  
HETATM   22  O   UNL     1      -7.062  13.318  71.000  1.00  0.00     1.641 OA 
HETATM   23  H   UNL     1      -9.619  13.956  69.172  1.00  0.00     0.000 HD 
BRANCH  21  24
HETATM   24  C   UNL     1      -8.087  15.416  69.370  1.00  0.00    -0.249 A  
HETATM   25  C   UNL     1      -7.520  16.113  70.461  1.00  0.00     1.903 A  
HETATM   26  C   UNL     1      -6.868  17.353  70.272  1.00  0.00     1.171 A  
HETATM   27  I   UNL     1      -7.535  15.188  72.400  1.00  0.00     8.394 I  
HETATM   28  C   UNL     1      -6.449  18.124  71.488  1.00  0.00     2.735 C  
HETATM   29  C   UNL     1      -6.728  17.881  68.968  1.00  0.00    -0.248 A  
HETATM   30  I   UNL     1      -5.519  19.663  68.688  1.00  0.00    -0.241 I  
HETATM   31  O   UNL     1      -7.234  18.398  72.374  1.00  0.00     5.552 OA 
HETATM   32  O   UNL     1      -5.134  18.396  71.560  1.00  0.00    -0.498 OA 
HETATM   33  C   UNL     1      -7.339  17.235  67.856  1.00  0.00    -0.189 A  
HETATM   34  I   UNL     1      -9.488  15.317  66.609  1.00  0.00    -0.352 I  
HETATM   35  C   UNL     1      -8.065  16.027  68.088  1.00  0.00    -0.147 A  
BRANCH  33  36
HETATM   36  C   UNL     1      -7.295  17.878  66.503  1.00  0.00    -0.244 C  
HETATM   37  O   UNL     1      -8.176  17.650  65.680  1.00  0.00    -0.501 OA 
HETATM   38  N   UNL     1      -6.245  18.733  66.220  1.00  0.00    -0.176 N  
HETATM   39  H   UNL     1      -5.559  18.944  66.945  1.00  0.00     0.000 HD 
BRANCH  38  40
HETATM   40  C   UNL     1      -6.102  19.337  64.896  1.00  0.00    -0.278 C  
BRANCH  40  41
HETATM   41  C   UNL     1      -6.143  20.863  64.967  1.00  0.00    -0.256 C  
HETATM   42  O   UNL     1      -7.404  21.292  65.481  1.00  0.00    -0.029 OA 
HETATM   43  H   UNL     1      -7.429  22.240  65.525  1.00  0.00     0.000 HD 
ENDBRANCH  40  41
ENDBRANCH  38  40
ENDBRANCH  33  36
ENDBRANCH  21  24
ENDBRANCH  19  20
ENDBRANCH  16  19
ENDBRANCH   9  15
BRANCH  13  44
HETATM   44  N   UNL     1      -7.251   5.629  67.804  1.00  0.00    -0.071 N  
HETATM   45  C   UNL     1      -7.530   4.305  67.422  1.00  0.00    -0.073 C  
HETATM   46  O   UNL     1      -6.701   3.402  67.631  1.00  0.00    -0.041 OA 
HETATM   47  C   UNL     1      -5.990   5.716  68.557  1.00  0.00    -0.017 C  
HETATM   48  C   UNL     1      -8.825   3.884  66.819  1.00  0.00    -0.130 C  
ENDBRANCH  13  44
ENDBRANCH   4   6
TORSDOF 9
ENDMDL
MODEL       60
REMARK 921   NORMALIZED FREE ENERGY PREDICTED BY IDOCK:   46.66 KCAL/MOL
REMARK 922        TOTAL FREE ENERGY PREDICTED BY IDOCK:   70.09 KCAL/MOL
REMARK 923 INTER-LIGAND FREE ENERGY PREDICTED BY IDOCK:   56.73 KCAL/MOL
REMARK 924 INTRA-LIGAND FREE ENERGY PREDICTED BY IDOCK:   13.36 KCAL/MOL
REMARK 927      BINDING AFFINITY PREDICTED BY RF-SCORE:    0.00 PKD
ROOT
HETATM    1  C   UNL     1      -8.213  21.100  68.489  1.00  0.00     1.512 C  
HETATM    2  N   UNL     1      -8.647  19.738  68.241  1.00  0.00    -0.306 N  
HETATM    3  H   UNL     1      -8.871  19.455  67.287  1.00  0.00     0.000 HD 
HETATM    4  C   UNL     1      -8.766  18.810  69.262  1.00  0.00     0.166 C  
HETATM    5  O   UNL     1      -8.452  19.046  70.412  1.00  0.00     1.677 OA 
ENDROOT
BRANCH   4   6
HETATM    6  C   UNL     1      -9.310  17.460  68.871  1.00  0.00    -0.183 A  
HETATM    7  C   UNL     1     -10.415  16.888  69.539  1.00  0.00    -0.228 A  
HETATM    8  I   UNL     1     -11.303  17.937  71.207  1.00  0.00     5.907 I  
HETATM    9  C   UNL     1     -10.968  15.665  69.067  1.00  0.00    -0.263 A  
HETATM   10  I   UNL     1      -6.528  17.048  67.622  1.00  0.00    -0.210 I  
HETATM   11  C   UNL     1     -10.547  15.201  67.779  1.00  0.00    -0.264 A  
HETATM   12  I   UNL     1     -12.223  14.468  66.560  1.00  0.00     0.254 I  
HETATM   13  C   UNL     1      -9.353  15.658  67.133  1.00  0.00    -0.218 A  
HETATM   14  C   UNL     1      -8.706  16.743  67.806  1.00  0.00    -0.210 A  
BRANCH   9  15
HETATM   15  C   UNL     1     -11.978  14.885  69.893  1.00  0.00    -0.330 C  
HETATM   16  N   UNL     1     -13.128  14.436  69.269  1.00  0.00     0.366 N  
HETATM   17  O   UNL     1     -11.805  14.613  71.071  1.00  0.00    -0.315 OA 
HETATM   18  H   UNL     1     -13.363  14.764  68.332  1.00  0.00     0.000 HD 
BRANCH  16  19
HETATM   19  C   UNL     1     -14.007  13.486  69.961  1.00  0.00     3.393 C  
BRANCH  19  20
HETATM   20  C   UNL     1     -13.305  12.184  70.408  1.00  0.00     1.224 C  
HETATM   21  N   UNL     1     -12.508  11.611  69.423  1.00  0.00    -0.037 N  
HETATM   22  O   UNL     1     -13.395  11.763  71.558  1.00  0.00    -0.268 OA 
HETATM   23  H   UNL     1     -12.484  12.036  68.496  1.00  0.00     0.000 HD 
BRANCH  21  24
HETATM   24  C   UNL     1     -11.718  10.442  69.674  1.00  0.00    -0.212 A  
HETATM   25  C   UNL     1     -11.583   9.477  68.650  1.00  0.00     0.591 A  
HETATM   26  C   UNL     1     -10.796   8.318  68.842  1.00  0.00     0.002 A  
HETATM   27  I   UNL     1     -12.477   9.867  66.735  1.00  0.00    12.147 I  
HETATM   28  C   UNL     1     -10.840   7.251  67.789  1.00  0.00    -0.144 C  
HETATM   29  C   UNL     1     -10.087   8.145  70.053  1.00  0.00    -0.196 A  
HETATM   30  I   UNL     1      -8.705   6.478  70.222  1.00  0.00    -0.152 I  
HETATM   31  O   UNL     1     -11.887   6.769  67.409  1.00  0.00     0.630 OA 
HETATM   32  O   UNL     1      -9.649   6.949  67.241  1.00  0.00    -0.133 OA 
HETATM   33  C   UNL     1     -10.248   9.067  71.126  1.00  0.00    -0.363 A  
HETATM   34  I   UNL     1     -11.872  11.276  72.653  1.00  0.00     8.372 I  
HETATM   35  C   UNL     1     -11.116  10.185  70.934  1.00  0.00    -0.253 A  
BRANCH  33  36
HETATM   36  C   UNL     1      -9.595   8.796  72.447  1.00  0.00    -0.126 C  
HETATM   37  O   UNL     1     -10.278   8.591  73.445  1.00  0.00     0.354 OA 
HETATM   38  N   UNL     1      -8.212   8.779  72.500  1.00  0.00     0.038 N  
HETATM   39  H   UNL     1      -7.675   8.899  71.641  1.00  0.00     0.000 HD 
BRANCH  38  40
HETATM   40  C   UNL     1      -7.510   8.593  73.769  1.00  0.00     0.072 C  
BRANCH  40  41
HETATM   41  C   UNL     1      -7.786   7.214  74.367  1.00  0.00    -0.125 C  
HETATM   42  O   UNL     1      -9.193   7.007  74.482  1.00  0.00    -0.294 OA 
HETATM   43  H   UNL     1      -9.365   6.150  74.853  1.00  0.00     0.000 HD 
ENDBRANCH  40  41
ENDBRANCH  38  40
ENDBRANCH  33  36
ENDBRANCH  21  24
ENDBRANCH  19  20
ENDBRANCH  16  19
ENDBRANCH   9  15
BRANCH  13  44
HETATM   44  N   UNL     1      -8.874  15.175  65.833  1.00  0.00     0.052 N  
HETATM   45  C   UNL     1      -7.564  15.055  65.340  1.00  0.00     6.748 C  
HETATM   46  O   UNL     1      -7.352  14.517  64.239  1.00  0.00    14.085 OA 
HETATM   47  C   UNL     1      -9.865  14.729  64.840  1.00  0.00     0.115 C  
HETATM   48  C   UNL     1      -6.372  15.605  66.043  1.00  0.00     3.857 C  
ENDBRANCH  13  44
ENDBRANCH   4   6
TORSDOF 9
ENDMDL
MODEL       61
REMARK 921   NORMALIZED FREE ENERGY PREDICTED BY IDOCK:   58.63 KCAL/MOL
REMARK 922        TOTAL FREE ENERGY PREDICTED BY IDOCK:   88.37 KCAL/MOL
REMARK 923 INTER-LIGAND FREE ENERGY PREDICTED BY IDOCK:   72.91 KCAL/MOL
REMARK 924 INTRA-LIGAND FREE ENERGY PREDICTED BY IDOCK:   15.45 KCAL/MOL
REMARK 927      BINDING AFFINITY PREDICTED BY RF-SCORE:    0.00 PKD
ROOT
HETATM    1  C   UNL     1     -13.987   9.780  64.946  1.00  0.00    17.606 C  
HETATM    2  N   UNL     1     -12.572  10.081  65.059  1.00  0.00     8.192 N  
HETATM    3  H   UNL     1     -12.242  11.013  64.803  1.00  0.00     0.000 HD 
HETATM    4  C   UNL     1     -11.656   9.143  65.503  1.00  0.00     6.495 C  
HETATM    5  O   UNL     1     -11.977   8.037  65.892  1.00  0.00     6.415 OA 
ENDROOT
BRANCH   4   6
HETATM    6  C   UNL     1     -10.211   9.568  65.487  1.00  0.00     0.103 A  
HETATM    7  C   UNL     1      -9.813  10.847  65.934  1.00  0.00    -0.236 A  
HETATM    8  I   UNL     1     -11.317  12.253  66.592  1.00  0.00    -0.404 I  
HETATM    9  C   UNL     1      -8.429  11.168  66.009  1.00  0.00    -0.138 A  
HETATM   10  I   UNL     1      -9.901   7.333  63.394  1.00  0.00     7.456 I  
HETATM   11  C   UNL     1      -7.491  10.094  65.876  1.00  0.00    -0.125 A  
HETATM   12  I   UNL     1      -5.863  10.210  67.349  1.00  0.00    -0.054 I  
HETATM   13  C   UNL     1      -7.826   8.829  65.295  1.00  0.00    -0.109 A  
HETATM   14  C   UNL     1      -9.221   8.667  65.015  1.00  0.00     0.201 A  
BRANCH   9  15
HETATM   15  C   UNL     1      -7.962  12.597  66.234  1.00  0.00     0.858 C  
HETATM   16  N   UNL     1      -6.608  12.825  66.400  1.00  0.00     0.964 N  
HETATM   17  O   UNL     1      -8.724  13.552  66.244  1.00  0.00     0.119 OA 
HETATM   18  H   UNL     1      -5.969  12.041  66.535  1.00  0.00     0.000 HD 
BRANCH  16  19
HETATM   19  C   UNL     1      -6.095  14.200  66.383  1.00  0.00     4.134 C  
BRANCH  19  20
HETATM   20  C   UNL     1      -6.696  15.114  67.474  1.00  0.00    -0.160 C  
HETATM   21  N   UNL     1      -8.084  15.200  67.430  1.00  0.00    -0.171 N  
HETATM   22  O   UNL     1      -5.997  15.637  68.338  1.00  0.00    -0.096 OA 
HETATM   23  H   UNL     1      -8.586  14.722  66.681  1.00  0.00     0.000 HD 
BRANCH  21  24
HETATM   24  C   UNL     1      -8.828  15.939  68.406  1.00  0.00    -0.184 A  
HETATM   25  C   UNL     1     -10.025  15.386  68.914  1.00  0.00    -0.219 A  
HETATM   26  C   UNL     1     -10.782  16.067  69.895  1.00  0.00    -0.334 A  
HETATM   27  I   UNL     1     -10.609  13.418  68.278  1.00  0.00    -0.283 I  
HETATM   28  C   UNL     1     -12.128  15.517  70.259  1.00  0.00    -0.386 C  
HETATM   29  C   UNL     1     -10.309  17.292  70.421  1.00  0.00     1.092 A  
HETATM   30  I   UNL     1     -11.369  18.190  72.089  1.00  0.00     6.354 I  
HETATM   31  O   UNL     1     -12.975  15.289  69.419  1.00  0.00     0.262 OA 
HETATM   32  O   UNL     1     -12.280  15.208  71.560  1.00  0.00    -0.293 OA 
HETATM   33  C   UNL     1      -9.139  17.905  69.889  1.00  0.00     1.542 A  
HETATM   34  I   UNL     1      -7.042  18.336  67.594  1.00  0.00    -0.223 I  
HETATM   35  C   UNL     1      -8.440  17.235  68.838  1.00  0.00    -0.175 A  
BRANCH  33  36
HETATM   36  C   UNL     1      -8.727  19.266  70.363  1.00  0.00     1.939 C  
HETATM   37  O   UNL     1      -7.654  19.746  70.012  1.00  0.00     0.115 OA 
HETATM   38  N   UNL     1      -9.592  19.956  71.195  1.00  0.00     1.193 N  
HETATM   39  H   UNL     1     -10.500  19.551  71.423  1.00  0.00     0.000 HD 
BRANCH  38  40
HETATM   40  C   UNL     1      -9.222  21.257  71.751  1.00  0.00     3.566 C  
BRANCH  40  41
HETATM   41  C   UNL     1      -8.285  21.110  72.949  1.00  0.00     5.890 C  
HETATM   42  O   UNL     1      -8.486  19.841  73.570  1.00  0.00     2.195 OA 
HETATM   43  H   UNL     1      -7.903  19.749  74.314  1.00  0.00     0.000 HD 
ENDBRANCH  40  41
ENDBRANCH  38  40
ENDBRANCH  33  36
ENDBRANCH  21  24
ENDBRANCH  19  20
ENDBRANCH  16  19
ENDBRANCH   9  15
BRANCH  13  44
HETATM   44  N   UNL     1      -6.880   7.723  65.109  1.00  0.00    -0.050 N  
HETATM   45  C   UNL     1      -6.165   6.974  66.060  1.00  0.00    -0.036 C  
HETATM   46  O   UNL     1      -5.485   5.994  65.708  1.00  0.00    -0.012 OA 
HETATM   47  C   UNL     1      -6.587   7.272  63.739  1.00  0.00    -0.048 C  
HETATM   48  C   UNL     1      -6.112   7.327  67.506  1.00  0.00    -0.042 C  
ENDBRANCH  13  44
ENDBRANCH   4   6
TORSDOF 9
ENDMDL
