MODEL        1
REMARK 921   NORMALIZED FREE ENERGY PREDICTED BY IDOCK:   -5.61 KCAL/MOL
REMARK 922        TOTAL FREE ENERGY PREDICTED BY IDOCK:   -8.10 KCAL/MOL
REMARK 923 INTER-LIGAND FREE ENERGY PREDICTED BY IDOCK:   -7.58 KCAL/MOL
REMARK 924 INTRA-LIGAND FREE ENERGY PREDICTED BY IDOCK:   -0.52 KCAL/MOL
REMARK 927      BINDING AFFINITY PREDICTED BY RF-SCORE:    0.00 PKD
ROOT
HETATM    1  C   UNL     1     -10.425  15.312  69.273  1.00  0.00    -0.258 C  
HETATM    2  C   UNL     1     -11.829  14.981  69.672  1.00  0.00    -0.324 C  
HETATM    3  H   UNL     1     -13.209  15.527  70.922  1.00  0.00     0.000 HD 
HETATM    4  O   UNL     1     -12.317  15.738  70.669  1.00  0.00    -0.408 OA 
ENDROOT
BRANCH   2   5
HETATM    5  N   UNL     1     -12.505  14.048  69.082  1.00  0.00    -0.450 NA 
HETATM    6  H   UNL     1     -13.473  14.216  68.810  1.00  0.00     0.000 HD 
BRANCH   5   7
HETATM    7  C   UNL     1     -11.906  12.792  68.812  1.00  0.00    -0.307 A  
HETATM    8  C   UNL     1     -11.893  11.775  69.810  1.00  0.00    -0.349 A  
HETATM    9  C   UNL     1     -11.273  10.517  69.585  1.00  0.00    -0.342 A  
HETATM   10  I   UNL     1     -12.950  12.201  71.636  1.00  0.00     0.061 I  
HETATM   11  C   UNL     1     -10.592  10.316  68.356  1.00  0.00    -0.216 A  
HETATM   12  O   UNL     1     -10.269  10.092  65.310  1.00  0.00    -0.304 OA 
HETATM   13  O   UNL     1      -9.060  11.958  65.727  1.00  0.00    -0.163 OA 
HETATM   14  I   UNL     1     -11.944  13.706  65.842  1.00  0.00    -0.521 I  
HETATM   15  C   UNL     1     -10.668  11.283  67.327  1.00  0.00    -0.295 A  
HETATM   16  I   UNL     1      -9.319   8.598  68.058  1.00  0.00    -0.166 I  
HETATM   17  C   UNL     1     -11.389  12.473  67.538  1.00  0.00    -0.312 A  
HETATM   18  C   UNL     1      -9.902  11.148  66.064  1.00  0.00    -0.228 C  
BRANCH   9  19
HETATM   19  C   UNL     1     -11.363   9.388  70.566  1.00  0.00    -0.274 C  
HETATM   20  H   UNL     1     -10.488   8.663  72.158  1.00  0.00     0.000 HD 
HETATM   21  O   UNL     1     -10.431   9.378  71.536  1.00  0.00    -0.337 OA 
BRANCH  19  22
HETATM   22  N   UNL     1     -12.240   8.448  70.466  1.00  0.00    -0.468 NA 
HETATM   23  H   UNL     1     -12.599   8.139  69.563  1.00  0.00     0.000 HD 
BRANCH  22  24
HETATM   24  C   UNL     1     -12.694   7.846  71.738  1.00  0.00    -0.329 C  
BRANCH  24  25
HETATM   25  C   UNL     1     -14.146   8.264  71.996  1.00  0.00    -0.395 C  
HETATM   26  O   UNL     1     -14.255   8.909  73.264  1.00  0.00    -1.197 OA 
HETATM   27  H   UNL     1     -15.155   9.168  73.424  1.00  0.00     0.000 HD 
ENDBRANCH  24  25
ENDBRANCH  22  24
ENDBRANCH  19  22
ENDBRANCH   9  19
ENDBRANCH   5   7
ENDBRANCH   2   5
TORSDOF 6
ENDMDL
MODEL        2
REMARK 921   NORMALIZED FREE ENERGY PREDICTED BY IDOCK:   -5.54 KCAL/MOL
REMARK 922        TOTAL FREE ENERGY PREDICTED BY IDOCK:   -8.01 KCAL/MOL
REMARK 923 INTER-LIGAND FREE ENERGY PREDICTED BY IDOCK:   -7.82 KCAL/MOL
REMARK 924 INTRA-LIGAND FREE ENERGY PREDICTED BY IDOCK:   -0.19 KCAL/MOL
REMARK 927      BINDING AFFINITY PREDICTED BY RF-SCORE:    0.00 PKD
ROOT
HETATM    1  C   UNL     1      -7.127   7.589  64.222  1.00  0.00    -0.063 C  
HETATM    2  C   UNL     1      -7.898   8.493  65.133  1.00  0.00    -0.116 C  
HETATM    3  H   UNL     1      -7.628   9.774  66.564  1.00  0.00     0.000 HD 
HETATM    4  O   UNL     1      -7.139   9.201  65.986  1.00  0.00    -0.087 OA 
ENDROOT
BRANCH   2   5
HETATM    5  N   UNL     1      -9.188   8.580  65.077  1.00  0.00    -0.395 NA 
HETATM    6  H   UNL     1      -9.722   7.888  64.551  1.00  0.00     0.000 HD 
BRANCH   5   7
HETATM    7  C   UNL     1      -9.863   9.633  65.743  1.00  0.00    -0.302 A  
HETATM    8  C   UNL     1     -10.148  10.848  65.056  1.00  0.00    -0.300 A  
HETATM    9  C   UNL     1     -10.794  11.937  65.702  1.00  0.00    -0.333 A  
HETATM   10  I   UNL     1      -9.647  10.916  62.964  1.00  0.00    -0.336 I  
HETATM   11  C   UNL     1     -11.088  11.816  67.085  1.00  0.00    -0.296 A  
HETATM   12  O   UNL     1     -12.380  10.626  69.604  1.00  0.00    -0.277 OA 
HETATM   13  O   UNL     1     -10.202  10.142  69.978  1.00  0.00    -0.254 OA 
HETATM   14  I   UNL     1     -10.515   7.499  67.905  1.00  0.00    -0.178 I  
HETATM   15  C   UNL     1     -10.887  10.588  67.757  1.00  0.00    -0.347 A  
HETATM   16  I   UNL     1     -11.728  13.524  68.239  1.00  0.00    -0.360 I  
HETATM   17  C   UNL     1     -10.352   9.489  67.059  1.00  0.00    -0.250 A  
HETATM   18  C   UNL     1     -11.101  10.448  69.217  1.00  0.00    -0.253 C  
BRANCH   9  19
HETATM   19  C   UNL     1     -11.223  13.169  64.966  1.00  0.00    -0.298 C  
HETATM   20  H   UNL     1     -12.818  14.076  64.287  1.00  0.00     0.000 HD 
HETATM   21  O   UNL     1     -12.546  13.295  64.753  1.00  0.00    -0.577 OA 
BRANCH  19  22
HETATM   22  N   UNL     1     -10.384  14.036  64.512  1.00  0.00    -0.643 NA 
HETATM   23  H   UNL     1      -9.951  13.938  63.594  1.00  0.00     0.000 HD 
BRANCH  22  24
HETATM   24  C   UNL     1     -10.086  15.180  65.400  1.00  0.00    -0.350 C  
BRANCH  24  25
HETATM   25  C   UNL     1     -11.160  16.256  65.201  1.00  0.00    -0.212 C  
HETATM   26  O   UNL     1     -11.500  16.364  63.820  1.00  0.00    -1.590 OA 
HETATM   27  H   UNL     1     -12.165  17.030  63.696  1.00  0.00     0.000 HD 
ENDBRANCH  24  25
ENDBRANCH  22  24
ENDBRANCH  19  22
ENDBRANCH   9  19
ENDBRANCH   5   7
ENDBRANCH   2   5
TORSDOF 6
ENDMDL
MODEL        3
REMARK 921   NORMALIZED FREE ENERGY PREDICTED BY IDOCK:   -5.54 KCAL/MOL
REMARK 922        TOTAL FREE ENERGY PREDICTED BY IDOCK:   -8.01 KCAL/MOL
REMARK 923 INTER-LIGAND FREE ENERGY PREDICTED BY IDOCK:   -7.70 KCAL/MOL
REMARK 924 INTRA-LIGAND FREE ENERGY PREDICTED BY IDOCK:   -0.31 KCAL/MOL
REMARK 927      BINDING AFFINITY PREDICTED BY RF-SCORE:    0.00 PKD
ROOT
HETATM    1  C   UNL     1     -12.018   8.805  71.891  1.00  0.00    -0.435 C  
HETATM    2  C   UNL     1     -12.223  10.025  71.048  1.00  0.00    -0.365 C  
HETATM    3  H   UNL     1     -13.639  11.076  70.239  1.00  0.00     0.000 HD 
HETATM    4  O   UNL     1     -13.509  10.302  70.774  1.00  0.00    -0.278 OA 
ENDROOT
BRANCH   2   5
HETATM    5  N   UNL     1     -11.230  10.748  70.639  1.00  0.00    -0.404 NA 
HETATM    6  H   UNL     1     -10.618  11.200  71.318  1.00  0.00     0.000 HD 
BRANCH   5   7
HETATM    7  C   UNL     1     -10.990  10.914  69.253  1.00  0.00    -0.244 A  
HETATM    8  C   UNL     1     -11.366  12.124  68.600  1.00  0.00    -0.280 A  
HETATM    9  C   UNL     1     -11.169  12.312  67.206  1.00  0.00    -0.358 A  
HETATM   10  I   UNL     1     -12.152  13.691  69.849  1.00  0.00    -0.257 I  
HETATM   11  C   UNL     1     -10.651  11.228  66.450  1.00  0.00    -0.266 A  
HETATM   12  O   UNL     1      -8.613   9.089  65.613  1.00  0.00    -0.146 OA 
HETATM   13  O   UNL     1     -10.281   7.790  66.416  1.00  0.00    -0.176 OA 
HETATM   14  I   UNL     1      -9.161   8.417  69.536  1.00  0.00    -0.154 I  
HETATM   15  C   UNL     1     -10.196  10.055  67.097  1.00  0.00    -0.284 A  
HETATM   16  I   UNL     1     -10.653  11.275  64.292  1.00  0.00    -0.303 I  
HETATM   17  C   UNL     1     -10.297   9.945  68.496  1.00  0.00    -0.196 A  
HETATM   18  C   UNL     1      -9.728   8.871  66.337  1.00  0.00    -0.262 C  
BRANCH   9  19
HETATM   19  C   UNL     1     -11.433  13.619  66.525  1.00  0.00    -0.335 C  
HETATM   20  H   UNL     1     -12.806  14.574  65.509  1.00  0.00     0.000 HD 
HETATM   21  O   UNL     1     -12.639  13.744  65.940  1.00  0.00    -0.472 OA 
BRANCH  19  22
HETATM   22  N   UNL     1     -10.549  14.555  66.448  1.00  0.00    -0.296 NA 
HETATM   23  H   UNL     1     -10.047  14.892  67.270  1.00  0.00     0.000 HD 
BRANCH  22  24
HETATM   24  C   UNL     1     -10.304  15.108  65.099  1.00  0.00    -0.385 C  
BRANCH  24  25
HETATM   25  C   UNL     1     -11.026  16.455  64.976  1.00  0.00    -0.252 C  
HETATM   26  O   UNL     1     -11.739  16.522  63.743  1.00  0.00    -1.548 OA 
HETATM   27  H   UNL     1     -12.186  17.356  63.666  1.00  0.00     0.000 HD 
ENDBRANCH  24  25
ENDBRANCH  22  24
ENDBRANCH  19  22
ENDBRANCH   9  19
ENDBRANCH   5   7
ENDBRANCH   2   5
TORSDOF 6
ENDMDL
MODEL        4
REMARK 921   NORMALIZED FREE ENERGY PREDICTED BY IDOCK:   -5.41 KCAL/MOL
REMARK 922        TOTAL FREE ENERGY PREDICTED BY IDOCK:   -7.83 KCAL/MOL
REMARK 923 INTER-LIGAND FREE ENERGY PREDICTED BY IDOCK:   -7.18 KCAL/MOL
REMARK 924 INTRA-LIGAND FREE ENERGY PREDICTED BY IDOCK:   -0.65 KCAL/MOL
REMARK 927      BINDING AFFINITY PREDICTED BY RF-SCORE:    0.00 PKD
ROOT
HETATM    1  C   UNL     1     -12.261  12.731  65.359  1.00  0.00    -0.532 C  
HETATM    2  C   UNL     1     -10.774  12.875  65.449  1.00  0.00    -0.285 C  
HETATM    3  H   UNL     1      -9.254  13.490  64.411  1.00  0.00     0.000 HD 
HETATM    4  O   UNL     1     -10.199  13.399  64.354  1.00  0.00    -0.401 OA 
ENDROOT
BRANCH   2   5
HETATM    5  N   UNL     1     -10.117  12.531  66.510  1.00  0.00    -0.234 NA 
HETATM    6  H   UNL     1      -9.171  12.159  66.423  1.00  0.00     0.000 HD 
BRANCH   5   7
HETATM    7  C   UNL     1     -10.706  12.667  67.792  1.00  0.00    -0.220 A  
HETATM    8  C   UNL     1     -11.108  11.512  68.522  1.00  0.00    -0.236 A  
HETATM    9  C   UNL     1     -11.731  11.613  69.795  1.00  0.00    -0.425 A  
HETATM   10  I   UNL     1     -10.634   9.603  67.648  1.00  0.00    -0.193 I  
HETATM   11  C   UNL     1     -12.015  12.909  70.301  1.00  0.00    -0.283 A  
HETATM   12  O   UNL     1     -11.402  15.750  71.290  1.00  0.00    -0.358 OA 
HETATM   13  O   UNL     1     -12.522  16.202  69.378  1.00  0.00    -0.011 OA 
HETATM   14  I   UNL     1      -9.680  15.598  67.664  1.00  0.00    -0.228 I  
HETATM   15  C   UNL     1     -11.546  14.061  69.627  1.00  0.00    -0.348 A  
HETATM   16  I   UNL     1     -13.272  13.175  72.035  1.00  0.00    -0.315 I  
HETATM   17  C   UNL     1     -10.829  13.923  68.424  1.00  0.00    -0.254 A  
HETATM   18  C   UNL     1     -11.895  15.430  70.077  1.00  0.00    -0.343 C  
BRANCH   9  19
HETATM   19  C   UNL     1     -12.041  10.414  70.637  1.00  0.00    -0.348 C  
HETATM   20  H   UNL     1     -11.232   9.205  71.946  1.00  0.00     0.000 HD 
HETATM   21  O   UNL     1     -11.036   9.965  71.412  1.00  0.00    -0.325 OA 
BRANCH  19  22
HETATM   22  N   UNL     1     -13.177   9.806  70.590  1.00  0.00    -0.599 NA 
HETATM   23  H   UNL     1     -13.710   9.725  69.725  1.00  0.00     0.000 HD 
BRANCH  22  24
HETATM   24  C   UNL     1     -13.659   9.232  71.865  1.00  0.00    -0.427 C  
BRANCH  24  25
HETATM   25  C   UNL     1     -13.551   7.704  71.795  1.00  0.00    -0.324 C  
HETATM   26  O   UNL     1     -12.350   7.265  72.426  1.00  0.00    -0.489 OA 
HETATM   27  H   UNL     1     -12.283   6.319  72.383  1.00  0.00     0.000 HD 
ENDBRANCH  24  25
ENDBRANCH  22  24
ENDBRANCH  19  22
ENDBRANCH   9  19
ENDBRANCH   5   7
ENDBRANCH   2   5
TORSDOF 6
ENDMDL
MODEL        5
REMARK 921   NORMALIZED FREE ENERGY PREDICTED BY IDOCK:   -5.29 KCAL/MOL
REMARK 922        TOTAL FREE ENERGY PREDICTED BY IDOCK:   -7.67 KCAL/MOL
REMARK 923 INTER-LIGAND FREE ENERGY PREDICTED BY IDOCK:   -7.46 KCAL/MOL
REMARK 924 INTRA-LIGAND FREE ENERGY PREDICTED BY IDOCK:   -0.21 KCAL/MOL
REMARK 927      BINDING AFFINITY PREDICTED BY RF-SCORE:    0.00 PKD
ROOT
HETATM    1  C   UNL     1     -13.077   9.010  72.576  1.00  0.00    -0.450 C  
HETATM    2  C   UNL     1     -12.933   9.823  71.327  1.00  0.00    -0.380 C  
HETATM    3  H   UNL     1     -13.895  10.270  69.702  1.00  0.00     0.000 HD 
HETATM    4  O   UNL     1     -13.986   9.755  70.495  1.00  0.00     0.149 OA 
ENDROOT
BRANCH   2   5
HETATM    5  N   UNL     1     -11.880  10.538  71.094  1.00  0.00    -0.332 NA 
HETATM    6  H   UNL     1     -11.369  10.958  71.870  1.00  0.00     0.000 HD 
BRANCH   5   7
HETATM    7  C   UNL     1     -11.432  10.740  69.765  1.00  0.00    -0.311 A  
HETATM    8  C   UNL     1     -11.582  12.014  69.144  1.00  0.00    -0.312 A  
HETATM    9  C   UNL     1     -11.173  12.242  67.802  1.00  0.00    -0.331 A  
HETATM   10  I   UNL     1     -12.360  13.601  70.372  1.00  0.00    -0.243 I  
HETATM   11  C   UNL     1     -10.674  11.142  67.057  1.00  0.00    -0.268 A  
HETATM   12  O   UNL     1      -8.782   8.825  66.367  1.00  0.00    -0.127 OA 
HETATM   13  O   UNL     1     -10.676   7.690  66.859  1.00  0.00    -0.351 OA 
HETATM   14  I   UNL     1      -9.941   8.038  70.133  1.00  0.00    -0.204 I  
HETATM   15  C   UNL     1     -10.443   9.896  67.684  1.00  0.00    -0.296 A  
HETATM   16  I   UNL     1     -10.372  11.290  64.925  1.00  0.00    -0.367 I  
HETATM   17  C   UNL     1     -10.750   9.733  69.048  1.00  0.00    -0.217 A  
HETATM   18  C   UNL     1     -10.005   8.703  66.922  1.00  0.00    -0.260 C  
BRANCH   9  19
HETATM   19  C   UNL     1     -11.197  13.602  67.175  1.00  0.00    -0.309 C  
HETATM   20  H   UNL     1     -10.015  15.055  66.610  1.00  0.00     0.000 HD 
HETATM   21  O   UNL     1     -10.000  14.193  67.008  1.00  0.00    -0.250 OA 
BRANCH  19  22
HETATM   22  N   UNL     1     -12.293  14.205  66.861  1.00  0.00    -0.565 NA 
HETATM   23  H   UNL     1     -12.740  14.874  67.488  1.00  0.00     0.000 HD 
BRANCH  22  24
HETATM   24  C   UNL     1     -12.865  13.868  65.540  1.00  0.00    -0.431 C  
BRANCH  24  25
HETATM   25  C   UNL     1     -12.152  14.696  64.464  1.00  0.00    -0.475 C  
HETATM   26  O   UNL     1     -12.379  14.131  63.175  1.00  0.00    -1.125 OA 
HETATM   27  H   UNL     1     -11.938  14.645  62.509  1.00  0.00     0.000 HD 
ENDBRANCH  24  25
ENDBRANCH  22  24
ENDBRANCH  19  22
ENDBRANCH   9  19
ENDBRANCH   5   7
ENDBRANCH   2   5
TORSDOF 6
ENDMDL
MODEL        6
REMARK 921   NORMALIZED FREE ENERGY PREDICTED BY IDOCK:   -5.27 KCAL/MOL
REMARK 922        TOTAL FREE ENERGY PREDICTED BY IDOCK:   -7.64 KCAL/MOL
REMARK 923 INTER-LIGAND FREE ENERGY PREDICTED BY IDOCK:   -7.57 KCAL/MOL
REMARK 924 INTRA-LIGAND FREE ENERGY PREDICTED BY IDOCK:   -0.07 KCAL/MOL
REMARK 927      BINDING AFFINITY PREDICTED BY RF-SCORE:    0.00 PKD
ROOT
HETATM    1  C   UNL     1     -10.586   7.478  69.247  1.00  0.00    -0.215 C  
HETATM    2  C   UNL     1     -10.459   8.968  69.170  1.00  0.00    -0.225 C  
HETATM    3  H   UNL     1      -9.306  10.414  69.756  1.00  0.00     0.000 HD 
HETATM    4  O   UNL     1      -9.386   9.468  69.805  1.00  0.00    -0.181 OA 
ENDROOT
BRANCH   2   5
HETATM    5  N   UNL     1     -11.315   9.694  68.526  1.00  0.00    -0.491 NA 
HETATM    6  H   UNL     1     -12.080   9.249  68.020  1.00  0.00     0.000 HD 
BRANCH   5   7
HETATM    7  C   UNL     1     -11.195  11.106  68.521  1.00  0.00    -0.258 A  
HETATM    8  C   UNL     1     -11.776  11.878  69.569  1.00  0.00    -0.345 A  
HETATM    9  C   UNL     1     -11.703  13.297  69.579  1.00  0.00    -0.384 A  
HETATM   10  I   UNL     1     -12.680  10.784  71.187  1.00  0.00    -0.458 I  
HETATM   11  C   UNL     1     -11.094  13.944  68.472  1.00  0.00    -0.265 A  
HETATM   12  O   UNL     1      -8.847  14.664  66.508  1.00  0.00    -0.238 OA 
HETATM   13  O   UNL     1     -10.264  13.555  65.138  1.00  0.00    -0.330 OA 
HETATM   14  I   UNL     1      -9.029  10.654  66.339  1.00  0.00    -0.204 I  
HETATM   15  C   UNL     1     -10.441  13.190  67.469  1.00  0.00    -0.229 A  
HETATM   16  I   UNL     1     -11.251  16.081  68.210  1.00  0.00    -0.192 I  
HETATM   17  C   UNL     1     -10.431  11.785  67.548  1.00  0.00    -0.202 A  
HETATM   18  C   UNL     1      -9.870  13.824  66.257  1.00  0.00    -0.303 C  
BRANCH   9  19
HETATM   19  C   UNL     1     -12.188  14.119  70.733  1.00  0.00    -0.365 C  
HETATM   20  H   UNL     1     -13.815  14.901  71.486  1.00  0.00     0.000 HD 
HETATM   21  O   UNL     1     -13.508  14.380  70.755  1.00  0.00    -0.280 OA 
BRANCH  19  22
HETATM   22  N   UNL     1     -11.393  14.601  71.627  1.00  0.00    -0.421 NA 
HETATM   23  H   UNL     1     -10.550  14.108  71.922  1.00  0.00     0.000 HD 
BRANCH  22  24
HETATM   24  C   UNL     1     -11.775  15.910  72.199  1.00  0.00    -0.485 C  
BRANCH  24  25
HETATM   25  C   UNL     1     -12.318  15.693  73.616  1.00  0.00    -0.575 C  
HETATM   26  O   UNL     1     -13.623  16.256  73.736  1.00  0.00    -0.927 OA 
HETATM   27  H   UNL     1     -13.959  16.121  74.614  1.00  0.00     0.000 HD 
ENDBRANCH  24  25
ENDBRANCH  22  24
ENDBRANCH  19  22
ENDBRANCH   9  19
ENDBRANCH   5   7
ENDBRANCH   2   5
TORSDOF 6
ENDMDL
MODEL        7
REMARK 921   NORMALIZED FREE ENERGY PREDICTED BY IDOCK:   -5.16 KCAL/MOL
REMARK 922        TOTAL FREE ENERGY PREDICTED BY IDOCK:   -7.49 KCAL/MOL
REMARK 923 INTER-LIGAND FREE ENERGY PREDICTED BY IDOCK:   -7.05 KCAL/MOL
REMARK 924 INTRA-LIGAND FREE ENERGY PREDICTED BY IDOCK:   -0.44 KCAL/MOL
REMARK 927      BINDING AFFINITY PREDICTED BY RF-SCORE:    0.00 PKD
ROOT
HETATM    1  C   UNL     1     -10.428   7.459  71.211  1.00  0.00    -0.221 C  
HETATM    2  C   UNL     1     -10.268   8.761  70.490  1.00  0.00    -0.202 C  
HETATM    3  H   UNL     1      -9.043  10.257  70.337  1.00  0.00     0.000 HD 
HETATM    4  O   UNL     1      -9.143   9.430  70.794  1.00  0.00    -0.245 OA 
ENDROOT
BRANCH   2   5
HETATM    5  N   UNL     1     -11.147   9.183  69.639  1.00  0.00    -0.405 NA 
HETATM    6  H   UNL     1     -11.632   8.518  69.038  1.00  0.00     0.000 HD 
BRANCH   5   7
HETATM    7  C   UNL     1     -11.439  10.567  69.538  1.00  0.00    -0.272 A  
HETATM    8  C   UNL     1     -10.994  11.312  68.408  1.00  0.00    -0.219 A  
HETATM    9  C   UNL     1     -11.240  12.706  68.290  1.00  0.00    -0.312 A  
HETATM   10  I   UNL     1     -10.021  10.202  66.841  1.00  0.00    -0.296 I  
HETATM   11  C   UNL     1     -11.884  13.366  69.369  1.00  0.00    -0.335 A  
HETATM   12  O   UNL     1     -14.131  13.976  71.370  1.00  0.00    -0.257 OA 
HETATM   13  O   UNL     1     -12.541  13.161  72.757  1.00  0.00     0.098 OA 
HETATM   14  I   UNL     1     -13.455  10.044  71.845  1.00  0.00    -0.143 I  
HETATM   15  C   UNL     1     -12.404  12.626  70.456  1.00  0.00    -0.350 A  
HETATM   16  I   UNL     1     -11.980  15.521  69.455  1.00  0.00    -0.163 I  
HETATM   17  C   UNL     1     -12.245  11.228  70.489  1.00  0.00    -0.383 A  
HETATM   18  C   UNL     1     -13.005  13.287  71.639  1.00  0.00    -0.349 C  
BRANCH   9  19
HETATM   19  C   UNL     1     -10.900  13.481  67.054  1.00  0.00    -0.282 C  
HETATM   20  H   UNL     1      -9.391  14.316  66.130  1.00  0.00     0.000 HD 
HETATM   21  O   UNL     1      -9.607  13.824  66.913  1.00  0.00    -0.244 OA 
BRANCH  19  22
HETATM   22  N   UNL     1     -11.791  13.852  66.198  1.00  0.00    -0.380 NA 
HETATM   23  H   UNL     1     -12.135  14.811  66.158  1.00  0.00     0.000 HD 
BRANCH  22  24
HETATM   24  C   UNL     1     -12.284  12.804  65.279  1.00  0.00    -0.483 C  
BRANCH  24  25
HETATM   25  C   UNL     1     -11.702  13.054  63.882  1.00  0.00    -0.468 C  
HETATM   26  O   UNL     1     -12.440  14.077  63.216  1.00  0.00    -1.139 OA 
HETATM   27  H   UNL     1     -12.080  14.232  62.352  1.00  0.00     0.000 HD 
ENDBRANCH  24  25
ENDBRANCH  22  24
ENDBRANCH  19  22
ENDBRANCH   9  19
ENDBRANCH   5   7
ENDBRANCH   2   5
TORSDOF 6
ENDMDL
MODEL        8
REMARK 921   NORMALIZED FREE ENERGY PREDICTED BY IDOCK:   -5.15 KCAL/MOL
REMARK 922        TOTAL FREE ENERGY PREDICTED BY IDOCK:   -7.48 KCAL/MOL
REMARK 923 INTER-LIGAND FREE ENERGY PREDICTED BY IDOCK:   -7.18 KCAL/MOL
REMARK 924 INTRA-LIGAND FREE ENERGY PREDICTED BY IDOCK:   -0.30 KCAL/MOL
REMARK 927      BINDING AFFINITY PREDICTED BY RF-SCORE:    0.00 PKD
ROOT
HETATM    1  C   UNL     1     -10.591  19.910  65.802  1.00  0.00    -0.490 C  
HETATM    2  C   UNL     1     -10.533  18.489  66.268  1.00  0.00    -0.406 C  
HETATM    3  H   UNL     1     -10.866  17.405  67.843  1.00  0.00     0.000 HD 
HETATM    4  O   UNL     1     -10.903  18.308  67.547  1.00  0.00    -0.399 OA 
ENDROOT
BRANCH   2   5
HETATM    5  N   UNL     1     -10.168  17.527  65.483  1.00  0.00    -0.612 NA 
HETATM    6  H   UNL     1     -10.364  17.584  64.484  1.00  0.00     0.000 HD 
BRANCH   5   7
HETATM    7  C   UNL     1      -9.496  16.393  66.006  1.00  0.00    -0.310 A  
HETATM    8  C   UNL     1     -10.071  15.096  65.873  1.00  0.00    -0.325 A  
HETATM    9  C   UNL     1      -9.441  13.943  66.413  1.00  0.00    -0.268 A  
HETATM   10  I   UNL     1     -11.887  14.957  64.726  1.00  0.00    -0.167 I  
HETATM   11  C   UNL     1      -8.248  14.119  67.162  1.00  0.00    -0.144 A  
HETATM   12  O   UNL     1      -5.335  14.940  67.679  1.00  0.00    -0.299 OA 
HETATM   13  O   UNL     1      -6.430  16.423  68.991  1.00  0.00    -0.149 OA 
HETATM   14  I   UNL     1      -7.040  18.283  66.243  1.00  0.00    -0.314 I  
HETATM   15  C   UNL     1      -7.624  15.387  67.229  1.00  0.00    -0.246 A  
HETATM   16  I   UNL     1      -7.414  12.501  68.323  1.00  0.00    -0.132 I  
HETATM   17  C   UNL     1      -8.213  16.490  66.585  1.00  0.00    -0.271 A  
HETATM   18  C   UNL     1      -6.426  15.628  68.069  1.00  0.00    -0.138 C  
BRANCH   9  19
HETATM   19  C   UNL     1      -9.956  12.557  66.172  1.00  0.00    -0.255 C  
HETATM   20  H   UNL     1     -11.366  11.322  66.734  1.00  0.00     0.000 HD 
HETATM   21  O   UNL     1     -11.039  12.201  66.887  1.00  0.00    -0.265 OA 
BRANCH  19  22
HETATM   22  N   UNL     1      -9.376  11.728  65.373  1.00  0.00    -0.399 NA 
HETATM   23  H   UNL     1      -8.360  11.681  65.289  1.00  0.00     0.000 HD 
BRANCH  22  24
HETATM   24  C   UNL     1     -10.269  10.850  64.587  1.00  0.00    -0.345 C  
BRANCH  24  25
HETATM   25  C   UNL     1     -10.519  11.493  63.218  1.00  0.00    -0.362 C  
HETATM   26  O   UNL     1     -11.920  11.616  62.980  1.00  0.00    -0.887 OA 
HETATM   27  H   UNL     1     -12.075  12.014  62.132  1.00  0.00     0.000 HD 
ENDBRANCH  24  25
ENDBRANCH  22  24
ENDBRANCH  19  22
ENDBRANCH   9  19
ENDBRANCH   5   7
ENDBRANCH   2   5
TORSDOF 6
ENDMDL
MODEL        9
REMARK 921   NORMALIZED FREE ENERGY PREDICTED BY IDOCK:   -5.06 KCAL/MOL
REMARK 922        TOTAL FREE ENERGY PREDICTED BY IDOCK:   -7.35 KCAL/MOL
REMARK 923 INTER-LIGAND FREE ENERGY PREDICTED BY IDOCK:   -7.03 KCAL/MOL
REMARK 924 INTRA-LIGAND FREE ENERGY PREDICTED BY IDOCK:   -0.32 KCAL/MOL
REMARK 927      BINDING AFFINITY PREDICTED BY RF-SCORE:    0.00 PKD
ROOT
HETATM    1  C   UNL     1     -12.347  11.920  63.512  1.00  0.00    -0.603 C  
HETATM    2  C   UNL     1     -12.096  12.586  64.828  1.00  0.00    -0.434 C  
HETATM    3  H   UNL     1     -12.978  13.711  66.140  1.00  0.00     0.000 HD 
HETATM    4  O   UNL     1     -13.138  13.288  65.304  1.00  0.00    -0.652 OA 
ENDROOT
BRANCH   2   5
HETATM    5  N   UNL     1     -10.965  12.471  65.448  1.00  0.00    -0.286 NA 
HETATM    6  H   UNL     1     -10.228  13.158  65.292  1.00  0.00     0.000 HD 
BRANCH   5   7
HETATM    7  C   UNL     1     -10.746  11.393  66.342  1.00  0.00    -0.275 A  
HETATM    8  C   UNL     1     -10.038  10.235  65.908  1.00  0.00    -0.251 A  
HETATM    9  C   UNL     1      -9.828   9.124  66.767  1.00  0.00    -0.291 A  
HETATM   10  I   UNL     1      -9.212  10.296  63.921  1.00  0.00    -0.333 I  
HETATM   11  C   UNL     1     -10.409   9.158  68.062  1.00  0.00    -0.222 A  
HETATM   12  O   UNL     1     -10.916  10.209  70.902  1.00  0.00    -0.318 OA 
HETATM   13  O   UNL     1     -12.924  10.608  69.940  1.00  0.00    -0.119 OA 
HETATM   14  I   UNL     1     -11.618  13.393  68.555  1.00  0.00    -0.414 I  
HETATM   15  C   UNL     1     -11.041  10.332  68.533  1.00  0.00    -0.294 A  
HETATM   16  I   UNL     1     -10.464   7.393  69.304  1.00  0.00    -0.175 I  
HETATM   17  C   UNL     1     -11.131  11.461  67.698  1.00  0.00    -0.268 A  
HETATM   18  C   UNL     1     -11.733  10.379  69.844  1.00  0.00    -0.264 C  
BRANCH   9  19
HETATM   19  C   UNL     1      -8.974   7.956  66.378  1.00  0.00    -0.166 C  
HETATM   20  H   UNL     1      -7.134   7.298  66.472  1.00  0.00     0.000 HD 
HETATM   21  O   UNL     1      -7.675   8.039  66.719  1.00  0.00    -0.095 OA 
BRANCH  19  22
HETATM   22  N   UNL     1      -9.431   6.952  65.710  1.00  0.00    -0.374 NA 
HETATM   23  H   UNL     1     -10.147   7.063  64.993  1.00  0.00     0.000 HD 
BRANCH  22  24
HETATM   24  C   UNL     1      -8.855   5.632  66.045  1.00  0.00    -0.146 C  
BRANCH  24  25
HETATM   25  C   UNL     1      -9.997   4.640  66.292  1.00  0.00    -0.247 C  
HETATM   26  O   UNL     1     -11.227   5.173  65.806  1.00  0.00    -0.808 OA 
HETATM   27  H   UNL     1     -11.935   4.558  65.958  1.00  0.00     0.000 HD 
ENDBRANCH  24  25
ENDBRANCH  22  24
ENDBRANCH  19  22
ENDBRANCH   9  19
ENDBRANCH   5   7
ENDBRANCH   2   5
TORSDOF 6
ENDMDL
MODEL       10
REMARK 921   NORMALIZED FREE ENERGY PREDICTED BY IDOCK:   -5.05 KCAL/MOL
REMARK 922        TOTAL FREE ENERGY PREDICTED BY IDOCK:   -7.34 KCAL/MOL
REMARK 923 INTER-LIGAND FREE ENERGY PREDICTED BY IDOCK:   -7.01 KCAL/MOL
REMARK 924 INTRA-LIGAND FREE ENERGY PREDICTED BY IDOCK:   -0.33 KCAL/MOL
REMARK 927      BINDING AFFINITY PREDICTED BY RF-SCORE:    0.00 PKD
ROOT
HETATM    1  C   UNL     1     -10.473  19.633  65.968  1.00  0.00    -0.622 C  
HETATM    2  C   UNL     1     -10.398  18.197  66.384  1.00  0.00    -0.394 C  
HETATM    3  H   UNL     1     -10.684  17.060  67.930  1.00  0.00     0.000 HD 
HETATM    4  O   UNL     1     -10.733  17.972  67.666  1.00  0.00    -0.415 OA 
ENDROOT
BRANCH   2   5
HETATM    5  N   UNL     1     -10.050  17.263  65.558  1.00  0.00    -0.588 NA 
HETATM    6  H   UNL     1     -10.135  17.417  64.553  1.00  0.00     0.000 HD 
BRANCH   5   7
HETATM    7  C   UNL     1      -9.552  16.029  66.043  1.00  0.00    -0.350 A  
HETATM    8  C   UNL     1     -10.310  14.834  65.871  1.00  0.00    -0.320 A  
HETATM    9  C   UNL     1      -9.856  13.585  66.373  1.00  0.00    -0.299 A  
HETATM   10  I   UNL     1     -12.124  14.997  64.725  1.00  0.00     0.047 I  
HETATM   11  C   UNL     1      -8.651  13.561  67.123  1.00  0.00    -0.195 A  
HETATM   12  O   UNL     1      -5.650  13.932  67.658  1.00  0.00    -0.298 OA 
HETATM   13  O   UNL     1      -6.520  15.516  69.018  1.00  0.00    -0.113 OA 
HETATM   14  I   UNL     1      -6.847  17.531  66.332  1.00  0.00    -0.297 I  
HETATM   15  C   UNL     1      -7.849  14.722  67.229  1.00  0.00    -0.223 A  
HETATM   16  I   UNL     1      -8.065  11.804  68.231  1.00  0.00    -0.131 I  
HETATM   17  C   UNL     1      -8.269  15.919  66.621  1.00  0.00    -0.282 A  
HETATM   18  C   UNL     1      -6.631  14.759  68.073  1.00  0.00    -0.147 C  
BRANCH   9  19
HETATM   19  C   UNL     1     -10.568  12.297  66.090  1.00  0.00    -0.249 C  
HETATM   20  H   UNL     1     -10.524  10.747  64.897  1.00  0.00     0.000 HD 
HETATM   21  O   UNL     1     -10.072  11.563  65.077  1.00  0.00    -0.246 OA 
BRANCH  19  22
HETATM   22  N   UNL     1     -11.624  11.931  66.732  1.00  0.00    -0.528 NA 
HETATM   23  H   UNL     1     -12.205  11.153  66.417  1.00  0.00     0.000 HD 
BRANCH  22  24
HETATM   24  C   UNL     1     -11.943  12.702  67.952  1.00  0.00    -0.249 C  
BRANCH  24  25
HETATM   25  C   UNL     1     -11.857  11.770  69.167  1.00  0.00    -0.326 C  
HETATM   26  O   UNL     1     -12.342  10.473  68.829  1.00  0.00    -0.790 OA 
HETATM   27  H   UNL     1     -12.288   9.896  69.581  1.00  0.00     0.000 HD 
ENDBRANCH  24  25
ENDBRANCH  22  24
ENDBRANCH  19  22
ENDBRANCH   9  19
ENDBRANCH   5   7
ENDBRANCH   2   5
TORSDOF 6
ENDMDL
MODEL       11
REMARK 921   NORMALIZED FREE ENERGY PREDICTED BY IDOCK:   -5.03 KCAL/MOL
REMARK 922        TOTAL FREE ENERGY PREDICTED BY IDOCK:   -7.31 KCAL/MOL
REMARK 923 INTER-LIGAND FREE ENERGY PREDICTED BY IDOCK:   -6.79 KCAL/MOL
REMARK 924 INTRA-LIGAND FREE ENERGY PREDICTED BY IDOCK:   -0.53 KCAL/MOL
REMARK 927      BINDING AFFINITY PREDICTED BY RF-SCORE:    0.00 PKD
ROOT
HETATM    1  C   UNL     1     -10.754  15.747  65.804  1.00  0.00    -0.337 C  
HETATM    2  C   UNL     1     -11.114  14.567  66.652  1.00  0.00    -0.333 C  
HETATM    3  H   UNL     1     -12.506  13.233  66.863  1.00  0.00     0.000 HD 
HETATM    4  O   UNL     1     -12.278  13.981  66.324  1.00  0.00    -0.433 OA 
ENDROOT
BRANCH   2   5
HETATM    5  N   UNL     1     -10.346  14.153  67.608  1.00  0.00    -0.240 NA 
HETATM    6  H   UNL     1      -9.379  14.473  67.657  1.00  0.00     0.000 HD 
BRANCH   5   7
HETATM    7  C   UNL     1     -10.843  13.258  68.588  1.00  0.00    -0.259 A  
HETATM    8  C   UNL     1     -10.493  11.878  68.539  1.00  0.00    -0.224 A  
HETATM    9  C   UNL     1     -10.999  10.947  69.486  1.00  0.00    -0.306 A  
HETATM   10  I   UNL     1      -9.080  11.291  67.026  1.00  0.00    -0.190 I  
HETATM   11  C   UNL     1     -11.931  11.411  70.451  1.00  0.00    -0.374 A  
HETATM   12  O   UNL     1     -12.958  13.103  72.799  1.00  0.00    -0.262 OA 
HETATM   13  O   UNL     1     -14.238  13.901  71.112  1.00  0.00     0.019 OA 
HETATM   14  I   UNL     1     -11.636  15.823  70.153  1.00  0.00    -0.361 I  
HETATM   15  C   UNL     1     -12.221  12.791  70.562  1.00  0.00    -0.389 A  
HETATM   16  I   UNL     1     -13.030  10.028  71.692  1.00  0.00    -0.546 I  
HETATM   17  C   UNL     1     -11.613  13.706  69.682  1.00  0.00    -0.278 A  
HETATM   18  C   UNL     1     -13.250  13.304  71.498  1.00  0.00    -0.299 C  
BRANCH   9  19
HETATM   19  C   UNL     1     -10.542   9.521  69.536  1.00  0.00    -0.221 C  
HETATM   20  H   UNL     1      -9.183   8.370  70.348  1.00  0.00     0.000 HD 
HETATM   21  O   UNL     1      -9.473   9.274  70.316  1.00  0.00    -0.201 OA 
BRANCH  19  22
HETATM   22  N   UNL     1     -11.093   8.589  68.837  1.00  0.00    -0.415 NA 
HETATM   23  H   UNL     1     -11.903   8.767  68.243  1.00  0.00     0.000 HD 
BRANCH  22  24
HETATM   24  C   UNL     1     -10.483   7.247  68.947  1.00  0.00    -0.206 C  
BRANCH  24  25
HETATM   25  C   UNL     1     -10.313   6.661  67.541  1.00  0.00    -0.208 C  
HETATM   26  O   UNL     1     -11.578   6.566  66.890  1.00  0.00    -0.725 OA 
HETATM   27  H   UNL     1     -11.472   6.203  66.018  1.00  0.00     0.000 HD 
ENDBRANCH  24  25
ENDBRANCH  22  24
ENDBRANCH  19  22
ENDBRANCH   9  19
ENDBRANCH   5   7
ENDBRANCH   2   5
TORSDOF 6
ENDMDL
MODEL       12
REMARK 921   NORMALIZED FREE ENERGY PREDICTED BY IDOCK:   -5.00 KCAL/MOL
REMARK 922        TOTAL FREE ENERGY PREDICTED BY IDOCK:   -7.27 KCAL/MOL
REMARK 923 INTER-LIGAND FREE ENERGY PREDICTED BY IDOCK:   -7.06 KCAL/MOL
REMARK 924 INTRA-LIGAND FREE ENERGY PREDICTED BY IDOCK:   -0.22 KCAL/MOL
REMARK 927      BINDING AFFINITY PREDICTED BY RF-SCORE:    0.00 PKD
ROOT
HETATM    1  C   UNL     1      -7.420   8.601  67.889  1.00  0.00    -0.097 C  
HETATM    2  C   UNL     1      -8.052   8.116  66.621  1.00  0.00    -0.103 C  
HETATM    3  H   UNL     1      -7.610   7.180  64.980  1.00  0.00     0.000 HD 
HETATM    4  O   UNL     1      -7.209   7.487  65.785  1.00  0.00    -0.064 OA 
ENDROOT
BRANCH   2   5
HETATM    5  N   UNL     1      -9.312   8.286  66.377  1.00  0.00    -0.200 NA 
HETATM    6  H   UNL     1      -9.785   7.680  65.707  1.00  0.00     0.000 HD 
BRANCH   5   7
HETATM    7  C   UNL     1     -10.036   9.310  67.036  1.00  0.00    -0.224 A  
HETATM    8  C   UNL     1     -10.326  10.530  66.360  1.00  0.00    -0.221 A  
HETATM    9  C   UNL     1     -11.022  11.591  67.001  1.00  0.00    -0.347 A  
HETATM   10  I   UNL     1      -9.752  10.648  64.289  1.00  0.00    -0.394 I  
HETATM   11  C   UNL     1     -11.363  11.438  68.371  1.00  0.00    -0.281 A  
HETATM   12  O   UNL     1     -12.714  10.171  70.820  1.00  0.00    -0.328 OA 
HETATM   13  O   UNL     1     -10.540   9.733  71.264  1.00  0.00    -0.273 OA 
HETATM   14  I   UNL     1     -10.713   7.121  69.136  1.00  0.00    -0.121 I  
HETATM   15  C   UNL     1     -11.155  10.203  69.028  1.00  0.00    -0.249 A  
HETATM   16  I   UNL     1     -12.086  13.109  69.530  1.00  0.00    -0.039 I  
HETATM   17  C   UNL     1     -10.568   9.130  68.331  1.00  0.00    -0.172 A  
HETATM   18  C   UNL     1     -11.418  10.031  70.477  1.00  0.00    -0.330 C  
BRANCH   9  19
HETATM   19  C   UNL     1     -11.455  12.826  66.272  1.00  0.00    -0.354 C  
HETATM   20  H   UNL     1     -12.923  13.538  65.193  1.00  0.00     0.000 HD 
HETATM   21  O   UNL     1     -12.649  12.755  65.655  1.00  0.00    -0.596 OA 
BRANCH  19  22
HETATM   22  N   UNL     1     -10.715  13.878  66.186  1.00  0.00    -0.281 NA 
HETATM   23  H   UNL     1     -10.256  14.283  67.002  1.00  0.00     0.000 HD 
BRANCH  22  24
HETATM   24  C   UNL     1     -10.571  14.463  64.836  1.00  0.00    -0.434 C  
BRANCH  24  25
HETATM   25  C   UNL     1     -10.955  15.946  64.893  1.00  0.00    -0.411 C  
HETATM   26  O   UNL     1     -11.660  16.319  63.711  1.00  0.00    -1.539 OA 
HETATM   27  H   UNL     1     -11.898  17.238  63.746  1.00  0.00     0.000 HD 
ENDBRANCH  24  25
ENDBRANCH  22  24
ENDBRANCH  19  22
ENDBRANCH   9  19
ENDBRANCH   5   7
ENDBRANCH   2   5
TORSDOF 6
ENDMDL
MODEL       13
REMARK 921   NORMALIZED FREE ENERGY PREDICTED BY IDOCK:   -4.99 KCAL/MOL
REMARK 922        TOTAL FREE ENERGY PREDICTED BY IDOCK:   -7.26 KCAL/MOL
REMARK 923 INTER-LIGAND FREE ENERGY PREDICTED BY IDOCK:   -6.86 KCAL/MOL
REMARK 924 INTRA-LIGAND FREE ENERGY PREDICTED BY IDOCK:   -0.40 KCAL/MOL
REMARK 927      BINDING AFFINITY PREDICTED BY RF-SCORE:    0.00 PKD
ROOT
HETATM    1  C   UNL     1     -12.518   7.324  71.432  1.00  0.00    -0.418 C  
HETATM    2  C   UNL     1     -11.473   7.226  70.364  1.00  0.00    -0.248 C  
HETATM    3  H   UNL     1     -10.970   6.130  68.845  1.00  0.00     0.000 HD 
HETATM    4  O   UNL     1     -11.634   6.192  69.523  1.00  0.00    -0.396 OA 
ENDROOT
BRANCH   2   5
HETATM    5  N   UNL     1     -10.511   8.087  70.269  1.00  0.00    -0.217 NA 
HETATM    6  H   UNL     1      -9.998   8.369  71.104  1.00  0.00     0.000 HD 
BRANCH   5   7
HETATM    7  C   UNL     1     -10.167   8.639  69.010  1.00  0.00    -0.207 A  
HETATM    8  C   UNL     1     -10.711   9.892  68.605  1.00  0.00    -0.226 A  
HETATM    9  C   UNL     1     -10.413  10.459  67.337  1.00  0.00    -0.299 A  
HETATM   10  I   UNL     1     -11.923  10.932  70.049  1.00  0.00    -0.452 I  
HETATM   11  C   UNL     1      -9.611   9.709  66.439  1.00  0.00    -0.210 A  
HETATM   12  O   UNL     1      -7.107   8.234  65.447  1.00  0.00    -0.065 OA 
HETATM   13  O   UNL     1      -8.551   6.508  65.670  1.00  0.00    -0.150 OA 
HETATM   14  I   UNL     1      -7.910   6.502  68.982  1.00  0.00    -0.113 I  
HETATM   15  C   UNL     1      -8.998   8.505  66.859  1.00  0.00    -0.166 A  
HETATM   16  I   UNL     1      -9.400  10.302  64.374  1.00  0.00    -0.355 I  
HETATM   17  C   UNL     1      -9.219   8.027  68.164  1.00  0.00    -0.133 A  
HETATM   18  C   UNL     1      -8.224   7.652  65.925  1.00  0.00    -0.133 C  
BRANCH   9  19
HETATM   19  C   UNL     1     -10.865  11.833  66.944  1.00  0.00    -0.271 C  
HETATM   20  H   UNL     1     -10.286  13.702  66.952  1.00  0.00     0.000 HD 
HETATM   21  O   UNL     1     -10.000  12.831  67.201  1.00  0.00    -0.214 OA 
BRANCH  19  22
HETATM   22  N   UNL     1     -12.029  12.065  66.441  1.00  0.00    -0.593 NA 
HETATM   23  H   UNL     1     -12.812  11.425  66.575  1.00  0.00     0.000 HD 
BRANCH  22  24
HETATM   24  C   UNL     1     -12.162  13.314  65.661  1.00  0.00    -0.462 C  
BRANCH  24  25
HETATM   25  C   UNL     1     -12.152  12.970  64.167  1.00  0.00    -0.427 C  
HETATM   26  O   UNL     1     -12.344  14.149  63.388  1.00  0.00    -1.109 OA 
HETATM   27  H   UNL     1     -12.337  13.936  62.463  1.00  0.00     0.000 HD 
ENDBRANCH  24  25
ENDBRANCH  22  24
ENDBRANCH  19  22
ENDBRANCH   9  19
ENDBRANCH   5   7
ENDBRANCH   2   5
TORSDOF 6
ENDMDL
MODEL       14
REMARK 921   NORMALIZED FREE ENERGY PREDICTED BY IDOCK:   -4.97 KCAL/MOL
REMARK 922        TOTAL FREE ENERGY PREDICTED BY IDOCK:   -7.23 KCAL/MOL
REMARK 923 INTER-LIGAND FREE ENERGY PREDICTED BY IDOCK:   -7.06 KCAL/MOL
REMARK 924 INTRA-LIGAND FREE ENERGY PREDICTED BY IDOCK:   -0.17 KCAL/MOL
REMARK 927      BINDING AFFINITY PREDICTED BY RF-SCORE:    0.00 PKD
ROOT
HETATM    1  C   UNL     1     -11.634  10.147  71.064  1.00  0.00    -0.462 C  
HETATM    2  C   UNL     1     -10.562   9.757  70.095  1.00  0.00    -0.285 C  
HETATM    3  H   UNL     1      -9.842   8.198  69.193  1.00  0.00     0.000 HD 
HETATM    4  O   UNL     1     -10.523   8.445  69.807  1.00  0.00    -0.214 OA 
ENDROOT
BRANCH   2   5
HETATM    5  N   UNL     1      -9.758  10.630  69.578  1.00  0.00    -0.416 NA 
HETATM    6  H   UNL     1      -9.293  11.311  70.179  1.00  0.00     0.000 HD 
BRANCH   5   7
HETATM    7  C   UNL     1      -9.519  10.643  68.181  1.00  0.00    -0.154 A  
HETATM    8  C   UNL     1     -10.277  11.502  67.334  1.00  0.00    -0.203 A  
HETATM    9  C   UNL     1     -10.086  11.518  65.926  1.00  0.00    -0.271 A  
HETATM   10  I   UNL     1     -11.651  12.847  68.301  1.00  0.00    -0.379 I  
HETATM   11  C   UNL     1      -9.164  10.596  65.364  1.00  0.00    -0.193 A  
HETATM   12  O   UNL     1      -6.440   9.261  64.889  1.00  0.00    -0.072 OA 
HETATM   13  O   UNL     1      -7.556   7.586  65.920  1.00  0.00    -0.083 OA 
HETATM   14  I   UNL     1      -6.919   9.087  68.874  1.00  0.00    -0.066 I  
HETATM   15  C   UNL     1      -8.347   9.799  66.199  1.00  0.00    -0.122 A  
HETATM   16  I   UNL     1      -9.065  10.283  63.230  1.00  0.00    -0.343 I  
HETATM   17  C   UNL     1      -8.478   9.890  67.597  1.00  0.00    -0.114 A  
HETATM   18  C   UNL     1      -7.436   8.766  65.651  1.00  0.00    -0.085 C  
BRANCH   9  19
HETATM   19  C   UNL     1     -10.774  12.503  65.032  1.00  0.00    -0.294 C  
HETATM   20  H   UNL     1     -12.482  12.835  64.136  1.00  0.00     0.000 HD 
HETATM   21  O   UNL     1     -12.046  12.210  64.703  1.00  0.00    -0.366 OA 
BRANCH  19  22
HETATM   22  N   UNL     1     -10.179  13.543  64.554  1.00  0.00    -0.605 NA 
HETATM   23  H   UNL     1      -9.492  13.474  63.804  1.00  0.00     0.000 HD 
BRANCH  22  24
HETATM   24  C   UNL     1     -10.552  14.840  65.159  1.00  0.00    -0.417 C  
BRANCH  24  25
HETATM   25  C   UNL     1     -11.861  15.326  64.524  1.00  0.00    -0.295 C  
HETATM   26  O   UNL     1     -11.631  16.514  63.770  1.00  0.00    -1.617 OA 
HETATM   27  H   UNL     1     -12.442  16.815  63.376  1.00  0.00     0.000 HD 
ENDBRANCH  24  25
ENDBRANCH  22  24
ENDBRANCH  19  22
ENDBRANCH   9  19
ENDBRANCH   5   7
ENDBRANCH   2   5
TORSDOF 6
ENDMDL
MODEL       15
REMARK 921   NORMALIZED FREE ENERGY PREDICTED BY IDOCK:   -4.93 KCAL/MOL
REMARK 922        TOTAL FREE ENERGY PREDICTED BY IDOCK:   -7.18 KCAL/MOL
REMARK 923 INTER-LIGAND FREE ENERGY PREDICTED BY IDOCK:   -6.68 KCAL/MOL
REMARK 924 INTRA-LIGAND FREE ENERGY PREDICTED BY IDOCK:   -0.50 KCAL/MOL
REMARK 927      BINDING AFFINITY PREDICTED BY RF-SCORE:    0.00 PKD
ROOT
HETATM    1  C   UNL     1     -10.957   5.193  73.371  1.00  0.00    -0.381 C  
HETATM    2  C   UNL     1     -11.229   6.352  72.462  1.00  0.00    -0.272 C  
HETATM    3  H   UNL     1     -11.909   6.748  70.689  1.00  0.00     0.000 HD 
HETATM    4  O   UNL     1     -11.737   6.013  71.266  1.00  0.00    -0.225 OA 
ENDROOT
BRANCH   2   5
HETATM    5  N   UNL     1     -10.998   7.573  72.824  1.00  0.00    -0.328 NA 
HETATM    6  H   UNL     1     -11.197   7.865  73.781  1.00  0.00     0.000 HD 
BRANCH   5   7
HETATM    7  C   UNL     1     -10.470   8.506  71.898  1.00  0.00    -0.317 A  
HETATM    8  C   UNL     1     -11.333   9.429  71.240  1.00  0.00    -0.366 A  
HETATM    9  C   UNL     1     -10.842  10.356  70.281  1.00  0.00    -0.308 A  
HETATM   10  I   UNL     1     -13.399   9.419  71.844  1.00  0.00    -0.542 I  
HETATM   11  C   UNL     1      -9.467  10.296  69.933  1.00  0.00    -0.015 A  
HETATM   12  O   UNL     1      -6.432  10.414  70.384  1.00  0.00    -0.126 OA 
HETATM   13  O   UNL     1      -6.700   8.223  69.892  1.00  0.00    -0.042 OA 
HETATM   14  I   UNL     1      -7.704   7.712  73.073  1.00  0.00    -0.183 I  
HETATM   15  C   UNL     1      -8.585   9.444  70.638  1.00  0.00    -0.247 A  
HETATM   16  I   UNL     1      -8.699  11.398  68.244  1.00  0.00    -0.139 I  
HETATM   17  C   UNL     1      -9.082   8.619  71.664  1.00  0.00    -0.247 A  
HETATM   18  C   UNL     1      -7.163   9.290  70.248  1.00  0.00    -0.087 C  
BRANCH   9  19
HETATM   19  C   UNL     1     -11.705  11.421  69.677  1.00  0.00    -0.345 C  
HETATM   20  H   UNL     1     -12.814  11.795  68.110  1.00  0.00     0.000 HD 
HETATM   21  O   UNL     1     -12.267  11.119  68.493  1.00  0.00    -0.600 OA 
BRANCH  19  22
HETATM   22  N   UNL     1     -11.863  12.580  70.220  1.00  0.00    -0.538 NA 
HETATM   23  H   UNL     1     -11.840  12.710  71.232  1.00  0.00     0.000 HD 
BRANCH  22  24
HETATM   24  C   UNL     1     -12.077  13.709  69.290  1.00  0.00    -0.314 C  
BRANCH  24  25
HETATM   25  C   UNL     1     -12.032  15.021  70.083  1.00  0.00    -0.320 C  
HETATM   26  O   UNL     1     -13.352  15.516  70.294  1.00  0.00    -0.740 OA 
HETATM   27  H   UNL     1     -13.324  16.328  70.785  1.00  0.00     0.000 HD 
ENDBRANCH  24  25
ENDBRANCH  22  24
ENDBRANCH  19  22
ENDBRANCH   9  19
ENDBRANCH   5   7
ENDBRANCH   2   5
TORSDOF 6
ENDMDL
MODEL       16
REMARK 921   NORMALIZED FREE ENERGY PREDICTED BY IDOCK:   -4.86 KCAL/MOL
REMARK 922        TOTAL FREE ENERGY PREDICTED BY IDOCK:   -7.09 KCAL/MOL
REMARK 923 INTER-LIGAND FREE ENERGY PREDICTED BY IDOCK:   -6.72 KCAL/MOL
REMARK 924 INTRA-LIGAND FREE ENERGY PREDICTED BY IDOCK:   -0.37 KCAL/MOL
REMARK 927      BINDING AFFINITY PREDICTED BY RF-SCORE:    0.00 PKD
ROOT
HETATM    1  C   UNL     1      -9.885   7.352  73.815  1.00  0.00    -0.331 C  
HETATM    2  C   UNL     1      -9.905   8.021  72.477  1.00  0.00    -0.263 C  
HETATM    3  H   UNL     1      -8.932   9.340  71.438  1.00  0.00     0.000 HD 
HETATM    4  O   UNL     1      -8.919   8.915  72.288  1.00  0.00    -0.388 OA 
ENDROOT
BRANCH   2   5
HETATM    5  N   UNL     1     -10.797   7.738  71.583  1.00  0.00    -0.226 NA 
HETATM    6  H   UNL     1     -11.605   7.169  71.836  1.00  0.00     0.000 HD 
BRANCH   5   7
HETATM    7  C   UNL     1     -10.658   8.214  70.256  1.00  0.00    -0.228 A  
HETATM    8  C   UNL     1     -10.042   7.398  69.264  1.00  0.00    -0.186 A  
HETATM    9  C   UNL     1      -9.857   7.857  67.931  1.00  0.00    -0.201 A  
HETATM   10  I   UNL     1      -9.501   5.401  69.854  1.00  0.00    -0.270 I  
HETATM   11  C   UNL     1     -10.236   9.189  67.622  1.00  0.00    -0.236 A  
HETATM   12  O   UNL     1     -12.130  11.586  67.307  1.00  0.00    -0.548 OA 
HETATM   13  O   UNL     1     -10.821  12.303  69.006  1.00  0.00    -0.213 OA 
HETATM   14  I   UNL     1     -12.665  10.426  71.116  1.00  0.00    -0.557 I  
HETATM   15  C   UNL     1     -10.923   9.979  68.574  1.00  0.00    -0.255 A  
HETATM   16  I   UNL     1      -9.670  10.100  65.749  1.00  0.00    -0.340 I  
HETATM   17  C   UNL     1     -11.196   9.454  69.850  1.00  0.00    -0.155 A  
HETATM   18  C   UNL     1     -11.258  11.400  68.318  1.00  0.00    -0.263 C  
BRANCH   9  19
HETATM   19  C   UNL     1      -9.336   6.971  66.841  1.00  0.00    -0.153 C  
HETATM   20  H   UNL     1      -7.708   6.574  65.831  1.00  0.00     0.000 HD 
HETATM   21  O   UNL     1      -8.039   7.135  66.522  1.00  0.00    -0.108 OA 
BRANCH  19  22
HETATM   22  N   UNL     1     -10.086   6.140  66.202  1.00  0.00    -0.406 NA 
HETATM   23  H   UNL     1     -11.027   6.387  65.895  1.00  0.00     0.000 HD 
BRANCH  22  24
HETATM   24  C   UNL     1      -9.501   4.807  65.939  1.00  0.00    -0.166 C  
BRANCH  24  25
HETATM   25  C   UNL     1     -10.380   4.071  64.921  1.00  0.00    -0.183 C  
HETATM   26  O   UNL     1     -11.725   4.538  65.002  1.00  0.00    -1.044 OA 
HETATM   27  H   UNL     1     -12.269   4.082  64.371  1.00  0.00     0.000 HD 
ENDBRANCH  24  25
ENDBRANCH  22  24
ENDBRANCH  19  22
ENDBRANCH   9  19
ENDBRANCH   5   7
ENDBRANCH   2   5
TORSDOF 6
ENDMDL
MODEL       17
REMARK 921   NORMALIZED FREE ENERGY PREDICTED BY IDOCK:   -4.85 KCAL/MOL
REMARK 922        TOTAL FREE ENERGY PREDICTED BY IDOCK:   -7.07 KCAL/MOL
REMARK 923 INTER-LIGAND FREE ENERGY PREDICTED BY IDOCK:   -6.67 KCAL/MOL
REMARK 924 INTRA-LIGAND FREE ENERGY PREDICTED BY IDOCK:   -0.40 KCAL/MOL
REMARK 927      BINDING AFFINITY PREDICTED BY RF-SCORE:    0.00 PKD
ROOT
HETATM    1  C   UNL     1     -13.858   7.478  71.402  1.00  0.00    -0.439 C  
HETATM    2  C   UNL     1     -13.359   8.669  72.159  1.00  0.00    -0.396 C  
HETATM    3  H   UNL     1     -13.971  10.028  73.401  1.00  0.00     0.000 HD 
HETATM    4  O   UNL     1     -14.288   9.271  72.921  1.00  0.00    -0.461 OA 
ENDROOT
BRANCH   2   5
HETATM    5  N   UNL     1     -12.128   9.061  72.083  1.00  0.00    -0.360 NA 
HETATM    6  H   UNL     1     -11.634   9.348  72.928  1.00  0.00     0.000 HD 
BRANCH   5   7
HETATM    7  C   UNL     1     -11.463   9.093  70.832  1.00  0.00    -0.296 A  
HETATM    8  C   UNL     1     -11.533  10.257  70.013  1.00  0.00    -0.296 A  
HETATM    9  C   UNL     1     -10.906  10.311  68.740  1.00  0.00    -0.265 A  
HETATM   10  I   UNL     1     -12.548  11.963  70.845  1.00  0.00     0.002 I  
HETATM   11  C   UNL     1     -10.261   9.142  68.260  1.00  0.00    -0.206 A  
HETATM   12  O   UNL     1      -8.225   6.843  68.247  1.00  0.00    -0.121 OA 
HETATM   13  O   UNL     1     -10.148   5.701  68.579  1.00  0.00    -0.156 OA 
HETATM   14  I   UNL     1      -9.995   6.546  71.842  1.00  0.00    -0.207 I  
HETATM   15  C   UNL     1     -10.112   8.010  69.095  1.00  0.00    -0.202 A  
HETATM   16  I   UNL     1      -9.599   8.998  66.210  1.00  0.00    -0.311 I  
HETATM   17  C   UNL     1     -10.645   8.029  70.397  1.00  0.00    -0.224 A  
HETATM   18  C   UNL     1      -9.521   6.743  68.602  1.00  0.00    -0.132 C  
BRANCH   9  19
HETATM   19  C   UNL     1     -10.853  11.565  67.922  1.00  0.00    -0.210 C  
HETATM   20  H   UNL     1      -9.802  13.198  67.678  1.00  0.00     0.000 HD 
HETATM   21  O   UNL     1      -9.836  12.402  68.196  1.00  0.00    -0.203 OA 
BRANCH  19  22
HETATM   22  N   UNL     1     -11.751  11.863  67.046  1.00  0.00    -0.589 NA 
HETATM   23  H   UNL     1     -12.264  11.145  66.533  1.00  0.00     0.000 HD 
BRANCH  22  24
HETATM   24  C   UNL     1     -11.995  13.305  66.829  1.00  0.00    -0.382 C  
BRANCH  24  25
HETATM   25  C   UNL     1     -12.357  13.532  65.357  1.00  0.00    -0.478 C  
HETATM   26  O   UNL     1     -13.375  12.619  64.953  1.00  0.00    -0.741 OA 
HETATM   27  H   UNL     1     -13.599  12.760  64.041  1.00  0.00     0.000 HD 
ENDBRANCH  24  25
ENDBRANCH  22  24
ENDBRANCH  19  22
ENDBRANCH   9  19
ENDBRANCH   5   7
ENDBRANCH   2   5
TORSDOF 6
ENDMDL
MODEL       18
REMARK 921   NORMALIZED FREE ENERGY PREDICTED BY IDOCK:   -4.85 KCAL/MOL
REMARK 922        TOTAL FREE ENERGY PREDICTED BY IDOCK:   -7.07 KCAL/MOL
REMARK 923 INTER-LIGAND FREE ENERGY PREDICTED BY IDOCK:   -6.72 KCAL/MOL
REMARK 924 INTRA-LIGAND FREE ENERGY PREDICTED BY IDOCK:   -0.34 KCAL/MOL
REMARK 927      BINDING AFFINITY PREDICTED BY RF-SCORE:    0.00 PKD
ROOT
HETATM    1  C   UNL     1      -9.777   9.437  65.584  1.00  0.00    -0.336 C  
HETATM    2  C   UNL     1     -10.203  10.863  65.429  1.00  0.00    -0.277 C  
HETATM    3  H   UNL     1     -10.559  12.188  64.057  1.00  0.00     0.000 HD 
HETATM    4  O   UNL     1     -10.289  11.283  64.156  1.00  0.00    -0.294 OA 
ENDROOT
BRANCH   2   5
HETATM    5  N   UNL     1     -10.475  11.610  66.451  1.00  0.00    -0.236 NA 
HETATM    6  H   UNL     1     -11.202  11.327  67.108  1.00  0.00     0.000 HD 
BRANCH   5   7
HETATM    7  C   UNL     1      -9.768  12.820  66.661  1.00  0.00    -0.252 A  
HETATM    8  C   UNL     1     -10.363  14.067  66.312  1.00  0.00    -0.293 A  
HETATM    9  C   UNL     1      -9.671  15.296  66.479  1.00  0.00    -0.287 A  
HETATM   10  I   UNL     1     -12.400  14.005  65.618  1.00  0.00    -0.419 I  
HETATM   11  C   UNL     1      -8.328  15.252  66.938  1.00  0.00    -0.243 A  
HETATM   12  O   UNL     1      -6.024  14.641  68.874  1.00  0.00    -0.083 OA 
HETATM   13  O   UNL     1      -5.540  13.222  67.180  1.00  0.00    -0.327 OA 
HETATM   14  I   UNL     1      -7.857  11.096  68.403  1.00  0.00    -0.152 I  
HETATM   15  C   UNL     1      -7.756  14.032  67.366  1.00  0.00    -0.177 A  
HETATM   16  I   UNL     1      -7.075  17.009  66.881  1.00  0.00    -0.320 I  
HETATM   17  C   UNL     1      -8.509  12.845  67.297  1.00  0.00    -0.197 A  
HETATM   18  C   UNL     1      -6.333  13.931  67.770  1.00  0.00    -0.158 C  
BRANCH   9  19
HETATM   19  C   UNL     1     -10.322  16.625  66.246  1.00  0.00    -0.317 C  
HETATM   20  H   UNL     1     -10.918  17.813  64.811  1.00  0.00     0.000 HD 
HETATM   21  O   UNL     1     -10.505  16.971  64.959  1.00  0.00    -0.660 OA 
BRANCH  19  22
HETATM   22  N   UNL     1     -10.642  17.421  67.208  1.00  0.00    -0.320 NA 
HETATM   23  H   UNL     1     -10.888  17.076  68.136  1.00  0.00     0.000 HD 
BRANCH  22  24
HETATM   24  C   UNL     1     -10.629  18.865  66.888  1.00  0.00    -0.421 C  
BRANCH  24  25
HETATM   25  C   UNL     1      -9.948  19.622  68.033  1.00  0.00    -0.427 C  
HETATM   26  O   UNL     1     -10.386  19.112  69.291  1.00  0.00    -0.527 OA 
HETATM   27  H   UNL     1      -9.963  19.581  70.001  1.00  0.00     0.000 HD 
ENDBRANCH  24  25
ENDBRANCH  22  24
ENDBRANCH  19  22
ENDBRANCH   9  19
ENDBRANCH   5   7
ENDBRANCH   2   5
TORSDOF 6
ENDMDL
MODEL       19
REMARK 921   NORMALIZED FREE ENERGY PREDICTED BY IDOCK:   -4.82 KCAL/MOL
REMARK 922        TOTAL FREE ENERGY PREDICTED BY IDOCK:   -7.03 KCAL/MOL
REMARK 923 INTER-LIGAND FREE ENERGY PREDICTED BY IDOCK:   -6.56 KCAL/MOL
REMARK 924 INTRA-LIGAND FREE ENERGY PREDICTED BY IDOCK:   -0.46 KCAL/MOL
REMARK 927      BINDING AFFINITY PREDICTED BY RF-SCORE:    0.00 PKD
ROOT
HETATM    1  C   UNL     1     -10.523   9.024  66.886  1.00  0.00    -0.293 C  
HETATM    2  C   UNL     1     -10.545  10.519  66.812  1.00  0.00    -0.222 C  
HETATM    3  H   UNL     1     -11.556  12.044  67.457  1.00  0.00     0.000 HD 
HETATM    4  O   UNL     1     -11.542  11.095  67.504  1.00  0.00    -0.526 OA 
ENDROOT
BRANCH   2   5
HETATM    5  N   UNL     1      -9.659  11.183  66.141  1.00  0.00    -0.202 NA 
HETATM    6  H   UNL     1      -8.923  10.685  65.641  1.00  0.00     0.000 HD 
BRANCH   5   7
HETATM    7  C   UNL     1      -9.707  12.598  66.099  1.00  0.00    -0.251 A  
HETATM    8  C   UNL     1      -8.787  13.369  66.867  1.00  0.00    -0.176 A  
HETATM    9  C   UNL     1      -8.828  14.790  66.873  1.00  0.00    -0.274 A  
HETATM   10  I   UNL     1      -7.269  12.280  67.934  1.00  0.00    -0.155 I  
HETATM   11  C   UNL     1      -9.864  15.434  66.147  1.00  0.00    -0.311 A  
HETATM   12  O   UNL     1     -11.517  16.220  63.681  1.00  0.00    -0.773 OA 
HETATM   13  O   UNL     1     -13.026  14.980  64.823  1.00  0.00    -0.186 OA 
HETATM   14  I   UNL     1     -11.538  12.202  63.618  1.00  0.00    -0.531 I  
HETATM   15  C   UNL     1     -10.730  14.686  65.316  1.00  0.00    -0.396 A  
HETATM   16  I   UNL     1     -10.237  17.547  66.381  1.00  0.00    -0.213 I  
HETATM   17  C   UNL     1     -10.590  13.287  65.240  1.00  0.00    -0.315 A  
HETATM   18  C   UNL     1     -11.874  15.311  64.611  1.00  0.00    -0.267 C  
BRANCH   9  19
HETATM   19  C   UNL     1      -7.791  15.621  67.564  1.00  0.00    -0.161 C  
HETATM   20  H   UNL     1      -7.458  16.589  69.231  1.00  0.00     0.000 HD 
HETATM   21  O   UNL     1      -8.116  16.062  68.793  1.00  0.00    -0.184 OA 
BRANCH  19  22
HETATM   22  N   UNL     1      -6.676  15.948  67.005  1.00  0.00    -0.279 NA 
HETATM   23  H   UNL     1      -6.087  15.262  66.534  1.00  0.00     0.000 HD 
BRANCH  22  24
HETATM   24  C   UNL     1      -6.302  17.376  67.089  1.00  0.00    -0.158 C  
BRANCH  24  25
HETATM   25  C   UNL     1      -5.820  17.845  65.711  1.00  0.00    -0.180 C  
HETATM   26  O   UNL     1      -6.835  18.611  65.067  1.00  0.00    -0.511 OA 
HETATM   27  H   UNL     1      -6.536  18.902  64.214  1.00  0.00     0.000 HD 
ENDBRANCH  24  25
ENDBRANCH  22  24
ENDBRANCH  19  22
ENDBRANCH   9  19
ENDBRANCH   5   7
ENDBRANCH   2   5
TORSDOF 6
ENDMDL
MODEL       20
REMARK 921   NORMALIZED FREE ENERGY PREDICTED BY IDOCK:   -4.80 KCAL/MOL
REMARK 922        TOTAL FREE ENERGY PREDICTED BY IDOCK:   -7.00 KCAL/MOL
REMARK 923 INTER-LIGAND FREE ENERGY PREDICTED BY IDOCK:   -6.47 KCAL/MOL
REMARK 924 INTRA-LIGAND FREE ENERGY PREDICTED BY IDOCK:   -0.54 KCAL/MOL
REMARK 927      BINDING AFFINITY PREDICTED BY RF-SCORE:    0.00 PKD
ROOT
HETATM    1  C   UNL     1      -6.476  14.596  67.655  1.00  0.00    -0.157 C  
HETATM    2  C   UNL     1      -7.459  14.603  68.783  1.00  0.00    -0.135 C  
HETATM    3  H   UNL     1      -7.949  15.640  70.348  1.00  0.00     0.000 HD 
HETATM    4  O   UNL     1      -7.325  15.636  69.631  1.00  0.00    -0.203 OA 
ENDROOT
BRANCH   2   5
HETATM    5  N   UNL     1      -8.366  13.687  68.905  1.00  0.00    -0.352 NA 
HETATM    6  H   UNL     1      -8.570  13.294  69.824  1.00  0.00     0.000 HD 
BRANCH   5   7
HETATM    7  C   UNL     1      -9.076  13.228  67.768  1.00  0.00    -0.202 A  
HETATM    8  C   UNL     1      -8.801  11.940  67.224  1.00  0.00    -0.179 A  
HETATM    9  C   UNL     1      -9.471  11.461  66.067  1.00  0.00    -0.245 A  
HETATM   10  I   UNL     1      -7.396  10.716  68.302  1.00  0.00    -0.102 I  
HETATM   11  C   UNL     1     -10.380  12.331  65.410  1.00  0.00    -0.269 A  
HETATM   12  O   UNL     1     -12.864  14.111  65.103  1.00  0.00    -0.686 OA 
HETATM   13  O   UNL     1     -11.218  15.657  64.972  1.00  0.00    -0.368 OA 
HETATM   14  I   UNL     1     -11.003  15.599  68.338  1.00  0.00    -0.353 I  
HETATM   15  C   UNL     1     -10.724  13.577  65.986  1.00  0.00    -0.280 A  
HETATM   16  I   UNL     1     -11.170  11.849  63.460  1.00  0.00    -0.327 I  
HETATM   17  C   UNL     1     -10.129  13.974  67.197  1.00  0.00    -0.259 A  
HETATM   18  C   UNL     1     -11.602  14.547  65.289  1.00  0.00    -0.359 C  
BRANCH   9  19
HETATM   19  C   UNL     1      -9.297  10.063  65.556  1.00  0.00    -0.216 C  
HETATM   20  H   UNL     1      -8.178   8.993  64.360  1.00  0.00     0.000 HD 
HETATM   21  O   UNL     1      -8.289   9.879  64.684  1.00  0.00    -0.144 OA 
BRANCH  19  22
HETATM   22  N   UNL     1     -10.089   9.100  65.881  1.00  0.00    -0.387 NA 
HETATM   23  H   UNL     1     -11.096   9.154  65.728  1.00  0.00     0.000 HD 
BRANCH  22  24
HETATM   24  C   UNL     1      -9.453   7.911  66.488  1.00  0.00    -0.214 C  
BRANCH  24  25
HETATM   25  C   UNL     1     -10.466   7.219  67.407  1.00  0.00    -0.289 C  
HETATM   26  O   UNL     1     -11.296   6.339  66.652  1.00  0.00    -0.741 OA 
HETATM   27  H   UNL     1     -11.924   5.911  67.221  1.00  0.00     0.000 HD 
ENDBRANCH  24  25
ENDBRANCH  22  24
ENDBRANCH  19  22
ENDBRANCH   9  19
ENDBRANCH   5   7
ENDBRANCH   2   5
TORSDOF 6
ENDMDL
MODEL       21
REMARK 921   NORMALIZED FREE ENERGY PREDICTED BY IDOCK:   -4.78 KCAL/MOL
REMARK 922        TOTAL FREE ENERGY PREDICTED BY IDOCK:   -6.98 KCAL/MOL
REMARK 923 INTER-LIGAND FREE ENERGY PREDICTED BY IDOCK:   -6.75 KCAL/MOL
REMARK 924 INTRA-LIGAND FREE ENERGY PREDICTED BY IDOCK:   -0.23 KCAL/MOL
REMARK 927      BINDING AFFINITY PREDICTED BY RF-SCORE:    0.00 PKD
ROOT
HETATM    1  C   UNL     1     -10.335  14.274  66.791  1.00  0.00    -0.274 C  
HETATM    2  C   UNL     1     -11.520  13.576  67.382  1.00  0.00    -0.336 C  
HETATM    3  H   UNL     1     -12.823  13.767  68.807  1.00  0.00     0.000 HD 
HETATM    4  O   UNL     1     -12.071  14.210  68.432  1.00  0.00    -0.344 OA 
ENDROOT
BRANCH   2   5
HETATM    5  N   UNL     1     -11.970  12.463  66.899  1.00  0.00    -0.575 NA 
HETATM    6  H   UNL     1     -12.974  12.291  66.870  1.00  0.00     0.000 HD 
BRANCH   5   7
HETATM    7  C   UNL     1     -11.072  11.483  66.408  1.00  0.00    -0.269 A  
HETATM    8  C   UNL     1     -10.492  10.533  67.298  1.00  0.00    -0.250 A  
HETATM    9  C   UNL     1      -9.564   9.557  66.846  1.00  0.00    -0.217 A  
HETATM   10  I   UNL     1     -11.169  10.585  69.341  1.00  0.00    -0.365 I  
HETATM   11  C   UNL     1      -9.164   9.592  65.485  1.00  0.00    -0.234 A  
HETATM   12  O   UNL     1      -9.511   9.479  62.436  1.00  0.00    -0.158 OA 
HETATM   13  O   UNL     1      -8.921  11.644  62.713  1.00  0.00    -0.283 OA 
HETATM   14  I   UNL     1     -12.106  12.318  63.598  1.00  0.00    -0.557 I  
HETATM   15  C   UNL     1      -9.793  10.473  64.574  1.00  0.00    -0.401 A  
HETATM   16  I   UNL     1      -7.505   8.404  64.782  1.00  0.00    -0.115 I  
HETATM   17  C   UNL     1     -10.795  11.351  65.031  1.00  0.00    -0.246 A  
HETATM   18  C   UNL     1      -9.345  10.599  63.167  1.00  0.00    -0.314 C  
BRANCH   9  19
HETATM   19  C   UNL     1      -9.045   8.468  67.734  1.00  0.00    -0.135 C  
HETATM   20  H   UNL     1      -7.503   7.991  68.840  1.00  0.00     0.000 HD 
HETATM   21  O   UNL     1      -7.832   8.681  68.277  1.00  0.00    -0.100 OA 
BRANCH  19  22
HETATM   22  N   UNL     1      -9.685   7.366  67.931  1.00  0.00    -0.140 NA 
HETATM   23  H   UNL     1      -9.560   6.813  68.779  1.00  0.00     0.000 HD 
BRANCH  22  24
HETATM   24  C   UNL     1     -10.611   6.952  66.855  1.00  0.00    -0.302 C  
BRANCH  24  25
HETATM   25  C   UNL     1     -10.421   5.454  66.585  1.00  0.00    -0.298 C  
HETATM   26  O   UNL     1     -11.340   5.012  65.589  1.00  0.00    -0.832 OA 
HETATM   27  H   UNL     1     -11.222   4.085  65.421  1.00  0.00     0.000 HD 
ENDBRANCH  24  25
ENDBRANCH  22  24
ENDBRANCH  19  22
ENDBRANCH   9  19
ENDBRANCH   5   7
ENDBRANCH   2   5
TORSDOF 6
ENDMDL
MODEL       22
REMARK 921   NORMALIZED FREE ENERGY PREDICTED BY IDOCK:   -4.68 KCAL/MOL
REMARK 922        TOTAL FREE ENERGY PREDICTED BY IDOCK:   -6.84 KCAL/MOL
REMARK 923 INTER-LIGAND FREE ENERGY PREDICTED BY IDOCK:   -6.44 KCAL/MOL
REMARK 924 INTRA-LIGAND FREE ENERGY PREDICTED BY IDOCK:   -0.41 KCAL/MOL
REMARK 927      BINDING AFFINITY PREDICTED BY RF-SCORE:    0.00 PKD
ROOT
HETATM    1  C   UNL     1      -9.483  14.618  68.150  1.00  0.00    -0.212 C  
HETATM    2  C   UNL     1     -10.758  14.511  67.372  1.00  0.00    -0.282 C  
HETATM    3  H   UNL     1     -11.783  15.460  66.026  1.00  0.00     0.000 HD 
HETATM    4  O   UNL     1     -10.974  15.527  66.519  1.00  0.00    -0.312 OA 
ENDROOT
BRANCH   2   5
HETATM    5  N   UNL     1     -11.563  13.508  67.513  1.00  0.00    -0.329 NA 
HETATM    6  H   UNL     1     -12.571  13.664  67.519  1.00  0.00     0.000 HD 
BRANCH   5   7
HETATM    7  C   UNL     1     -11.052  12.195  67.660  1.00  0.00    -0.268 A  
HETATM    8  C   UNL     1     -11.200  11.502  68.896  1.00  0.00    -0.247 A  
HETATM    9  C   UNL     1     -10.671  10.197  69.088  1.00  0.00    -0.254 A  
HETATM   10  I   UNL     1     -12.354  12.487  70.423  1.00  0.00     0.040 I  
HETATM   11  C   UNL     1      -9.918   9.618  68.034  1.00  0.00    -0.160 A  
HETATM   12  O   UNL     1      -9.382   8.525  65.214  1.00  0.00    -0.012 OA 
HETATM   13  O   UNL     1      -8.058  10.359  65.214  1.00  0.00    -0.152 OA 
HETATM   14  I   UNL     1     -10.787  12.233  64.563  1.00  0.00    -0.462 I  
HETATM   15  C   UNL     1      -9.834  10.258  66.775  1.00  0.00    -0.246 A  
HETATM   16  I   UNL     1      -8.772   7.815  68.346  1.00  0.00    -0.123 I  
HETATM   17  C   UNL     1     -10.468  11.499  66.579  1.00  0.00    -0.244 A  
HETATM   18  C   UNL     1      -8.988   9.728  65.680  1.00  0.00    -0.163 C  
BRANCH   9  19
HETATM   19  C   UNL     1     -10.930   9.399  70.329  1.00  0.00    -0.262 C  
HETATM   20  H   UNL     1     -10.106   8.894  72.030  1.00  0.00     0.000 HD 
HETATM   21  O   UNL     1      -9.942   9.400  71.243  1.00  0.00    -0.287 OA 
BRANCH  19  22
HETATM   22  N   UNL     1     -12.003   8.705  70.499  1.00  0.00    -0.483 NA 
HETATM   23  H   UNL     1     -12.573   8.393  69.713  1.00  0.00     0.000 HD 
BRANCH  22  24
HETATM   24  C   UNL     1     -12.357   8.388  71.899  1.00  0.00    -0.347 C  
BRANCH  24  25
HETATM   25  C   UNL     1     -13.869   8.564  72.081  1.00  0.00    -0.393 C  
HETATM   26  O   UNL     1     -14.171   8.857  73.444  1.00  0.00    -1.241 OA 
HETATM   27  H   UNL     1     -15.107   8.966  73.557  1.00  0.00     0.000 HD 
ENDBRANCH  24  25
ENDBRANCH  22  24
ENDBRANCH  19  22
ENDBRANCH   9  19
ENDBRANCH   5   7
ENDBRANCH   2   5
TORSDOF 6
ENDMDL
MODEL       23
REMARK 921   NORMALIZED FREE ENERGY PREDICTED BY IDOCK:   -4.68 KCAL/MOL
REMARK 922        TOTAL FREE ENERGY PREDICTED BY IDOCK:   -6.84 KCAL/MOL
REMARK 923 INTER-LIGAND FREE ENERGY PREDICTED BY IDOCK:   -6.39 KCAL/MOL
REMARK 924 INTRA-LIGAND FREE ENERGY PREDICTED BY IDOCK:   -0.44 KCAL/MOL
REMARK 927      BINDING AFFINITY PREDICTED BY RF-SCORE:    0.00 PKD
ROOT
HETATM    1  C   UNL     1     -11.130   7.055  70.761  1.00  0.00    -0.307 C  
HETATM    2  C   UNL     1     -10.648   7.502  69.416  1.00  0.00    -0.223 C  
HETATM    3  H   UNL     1     -10.740   7.006  67.543  1.00  0.00     0.000 HD 
HETATM    4  O   UNL     1     -11.046   6.723  68.396  1.00  0.00    -0.210 OA 
ENDROOT
BRANCH   2   5
HETATM    5  N   UNL     1      -9.920   8.562  69.268  1.00  0.00    -0.190 NA 
HETATM    6  H   UNL     1      -9.401   8.936  70.062  1.00  0.00     0.000 HD 
BRANCH   5   7
HETATM    7  C   UNL     1      -9.842   9.205  68.008  1.00  0.00    -0.168 A  
HETATM    8  C   UNL     1     -10.628  10.364  67.745  1.00  0.00    -0.250 A  
HETATM    9  C   UNL     1     -10.598  11.015  66.483  1.00  0.00    -0.310 A  
HETATM   10  I   UNL     1     -11.783  11.141  69.387  1.00  0.00    -0.454 I  
HETATM   11  C   UNL     1      -9.815  10.438  65.449  1.00  0.00    -0.283 A  
HETATM   12  O   UNL     1      -7.266   9.431  64.065  1.00  0.00    -0.097 OA 
HETATM   13  O   UNL     1      -8.374   7.484  64.375  1.00  0.00    -0.064 OA 
HETATM   14  I   UNL     1      -7.299   7.472  67.573  1.00  0.00    -0.108 I  
HETATM   15  C   UNL     1      -8.967   9.339  65.720  1.00  0.00    -0.234 A  
HETATM   16  I   UNL     1      -9.982  11.127  63.410  1.00  0.00    -0.408 I  
HETATM   17  C   UNL     1      -8.931   8.787  67.014  1.00  0.00    -0.131 A  
HETATM   18  C   UNL     1      -8.201   8.656  64.650  1.00  0.00    -0.165 C  
BRANCH   9  19
HETATM   19  C   UNL     1     -11.311  12.308  66.227  1.00  0.00    -0.345 C  
HETATM   20  H   UNL     1     -12.977  13.025  65.494  1.00  0.00     0.000 HD 
HETATM   21  O   UNL     1     -12.525  12.206  65.656  1.00  0.00    -0.501 OA 
BRANCH  19  22
HETATM   22  N   UNL     1     -10.782  13.456  66.482  1.00  0.00    -0.284 NA 
HETATM   23  H   UNL     1      -9.856  13.543  66.899  1.00  0.00     0.000 HD 
BRANCH  22  24
HETATM   24  C   UNL     1     -11.599  14.639  66.133  1.00  0.00    -0.332 C  
BRANCH  24  25
HETATM   25  C   UNL     1     -11.119  15.195  64.787  1.00  0.00    -0.382 C  
HETATM   26  O   UNL     1     -12.192  15.211  63.849  1.00  0.00    -0.947 OA 
HETATM   27  H   UNL     1     -11.895  15.555  63.016  1.00  0.00     0.000 HD 
ENDBRANCH  24  25
ENDBRANCH  22  24
ENDBRANCH  19  22
ENDBRANCH   9  19
ENDBRANCH   5   7
ENDBRANCH   2   5
TORSDOF 6
ENDMDL
MODEL       24
REMARK 921   NORMALIZED FREE ENERGY PREDICTED BY IDOCK:   -4.60 KCAL/MOL
REMARK 922        TOTAL FREE ENERGY PREDICTED BY IDOCK:   -6.73 KCAL/MOL
REMARK 923 INTER-LIGAND FREE ENERGY PREDICTED BY IDOCK:   -6.02 KCAL/MOL
REMARK 924 INTRA-LIGAND FREE ENERGY PREDICTED BY IDOCK:   -0.71 KCAL/MOL
REMARK 927      BINDING AFFINITY PREDICTED BY RF-SCORE:    0.00 PKD
ROOT
HETATM    1  C   UNL     1     -11.758   6.249  71.417  1.00  0.00    -0.316 C  
HETATM    2  C   UNL     1     -11.171   6.818  72.670  1.00  0.00    -0.255 C  
HETATM    3  H   UNL     1     -10.549   6.272  74.425  1.00  0.00     0.000 HD 
HETATM    4  O   UNL     1     -10.921   5.910  73.629  1.00  0.00    -0.225 OA 
ENDROOT
BRANCH   2   5
HETATM    5  N   UNL     1     -10.919   8.082  72.795  1.00  0.00    -0.386 NA 
HETATM    6  H   UNL     1     -11.154   8.563  73.662  1.00  0.00     0.000 HD 
BRANCH   5   7
HETATM    7  C   UNL     1     -10.317   8.799  71.731  1.00  0.00    -0.343 A  
HETATM    8  C   UNL     1     -11.090   9.709  70.954  1.00  0.00    -0.352 A  
HETATM    9  C   UNL     1     -10.526  10.421  69.860  1.00  0.00    -0.266 A  
HETATM   10  I   UNL     1     -13.123  10.031  71.581  1.00  0.00    -0.501 I  
HETATM   11  C   UNL     1      -9.179  10.148  69.506  1.00  0.00    -0.204 A  
HETATM   12  O   UNL     1      -6.138   9.975  69.892  1.00  0.00    -0.042 OA 
HETATM   13  O   UNL     1      -6.669   7.782  69.739  1.00  0.00    -0.038 OA 
HETATM   14  I   UNL     1      -7.624   7.869  72.974  1.00  0.00    -0.180 I  
HETATM   15  C   UNL     1      -8.378   9.312  70.319  1.00  0.00    -0.204 A  
HETATM   16  I   UNL     1      -8.343  10.890  67.660  1.00  0.00    -0.123 I  
HETATM   17  C   UNL     1      -8.934   8.712  71.464  1.00  0.00    -0.234 A  
HETATM   18  C   UNL     1      -6.996   8.937  69.937  1.00  0.00    -0.050 C  
BRANCH   9  19
HETATM   19  C   UNL     1     -11.281  11.478  69.115  1.00  0.00    -0.274 C  
HETATM   20  H   UNL     1     -12.539  11.714  67.635  1.00  0.00     0.000 HD 
HETATM   21  O   UNL     1     -12.060  11.044  68.108  1.00  0.00    -0.610 OA 
BRANCH  19  22
HETATM   22  N   UNL     1     -11.157  12.735  69.375  1.00  0.00    -0.450 NA 
HETATM   23  H   UNL     1     -10.447  13.086  70.018  1.00  0.00     0.000 HD 
BRANCH  22  24
HETATM   24  C   UNL     1     -12.104  13.637  68.685  1.00  0.00    -0.290 C  
BRANCH  24  25
HETATM   25  C   UNL     1     -11.422  14.215  67.439  1.00  0.00    -0.345 C  
HETATM   26  O   UNL     1     -11.781  13.458  66.285  1.00  0.00    -0.334 OA 
HETATM   27  H   UNL     1     -11.359  13.815  65.513  1.00  0.00     0.000 HD 
ENDBRANCH  24  25
ENDBRANCH  22  24
ENDBRANCH  19  22
ENDBRANCH   9  19
ENDBRANCH   5   7
ENDBRANCH   2   5
TORSDOF 6
ENDMDL
MODEL       25
REMARK 921   NORMALIZED FREE ENERGY PREDICTED BY IDOCK:   -4.57 KCAL/MOL
REMARK 922        TOTAL FREE ENERGY PREDICTED BY IDOCK:   -6.69 KCAL/MOL
REMARK 923 INTER-LIGAND FREE ENERGY PREDICTED BY IDOCK:   -6.31 KCAL/MOL
REMARK 924 INTRA-LIGAND FREE ENERGY PREDICTED BY IDOCK:   -0.38 KCAL/MOL
REMARK 927      BINDING AFFINITY PREDICTED BY RF-SCORE:    0.00 PKD
ROOT
HETATM    1  C   UNL     1      -5.260  16.695  67.761  1.00  0.00    -0.139 C  
HETATM    2  C   UNL     1      -5.970  15.408  68.044  1.00  0.00    -0.142 C  
HETATM    3  H   UNL     1      -6.299  14.155  69.489  1.00  0.00     0.000 HD 
HETATM    4  O   UNL     1      -5.849  14.973  69.309  1.00  0.00    -0.100 OA 
ENDROOT
BRANCH   2   5
HETATM    5  N   UNL     1      -6.650  14.788  67.134  1.00  0.00    -0.321 NA 
HETATM    6  H   UNL     1      -6.361  14.844  66.158  1.00  0.00     0.000 HD 
BRANCH   5   7
HETATM    7  C   UNL     1      -7.795  14.032  67.487  1.00  0.00    -0.184 A  
HETATM    8  C   UNL     1      -9.079  14.648  67.519  1.00  0.00    -0.190 A  
HETATM    9  C   UNL     1     -10.243  13.928  67.900  1.00  0.00    -0.241 A  
HETATM   10  I   UNL     1      -9.184  16.695  66.862  1.00  0.00    -0.300 I  
HETATM   11  C   UNL     1     -10.089  12.583  68.325  1.00  0.00    -0.228 A  
HETATM   12  O   UNL     1      -9.334   9.616  68.091  1.00  0.00    -0.133 OA 
HETATM   13  O   UNL     1      -7.816  10.319  69.614  1.00  0.00    -0.153 OA 
HETATM   14  I   UNL     1      -5.962  11.554  67.081  1.00  0.00    -0.140 I  
HETATM   15  C   UNL     1      -8.837  11.935  68.219  1.00  0.00    -0.174 A  
HETATM   16  I   UNL     1     -11.718  11.521  69.263  1.00  0.00    -0.421 I  
HETATM   17  C   UNL     1      -7.724  12.643  67.727  1.00  0.00    -0.145 A  
HETATM   18  C   UNL     1      -8.617  10.561  68.732  1.00  0.00    -0.146 C  
BRANCH   9  19
HETATM   19  C   UNL     1     -11.618  14.517  67.812  1.00  0.00    -0.365 C  
HETATM   20  H   UNL     1     -12.903  15.578  68.837  1.00  0.00     0.000 HD 
HETATM   21  O   UNL     1     -12.032  15.204  68.892  1.00  0.00    -0.308 OA 
BRANCH  19  22
HETATM   22  N   UNL     1     -12.388  14.337  66.794  1.00  0.00    -0.559 NA 
HETATM   23  H   UNL     1     -13.387  14.540  66.831  1.00  0.00     0.000 HD 
BRANCH  22  24
HETATM   24  C   UNL     1     -11.739  13.818  65.572  1.00  0.00    -0.346 C  
BRANCH  24  25
HETATM   25  C   UNL     1     -12.157  14.686  64.380  1.00  0.00    -0.462 C  
HETATM   26  O   UNL     1     -12.401  13.870  63.236  1.00  0.00    -1.115 OA 
HETATM   27  H   UNL     1     -12.660  14.408  62.498  1.00  0.00     0.000 HD 
ENDBRANCH  24  25
ENDBRANCH  22  24
ENDBRANCH  19  22
ENDBRANCH   9  19
ENDBRANCH   5   7
ENDBRANCH   2   5
TORSDOF 6
ENDMDL
MODEL       26
REMARK 921   NORMALIZED FREE ENERGY PREDICTED BY IDOCK:   -4.52 KCAL/MOL
REMARK 922        TOTAL FREE ENERGY PREDICTED BY IDOCK:   -6.62 KCAL/MOL
REMARK 923 INTER-LIGAND FREE ENERGY PREDICTED BY IDOCK:   -6.43 KCAL/MOL
REMARK 924 INTRA-LIGAND FREE ENERGY PREDICTED BY IDOCK:   -0.20 KCAL/MOL
REMARK 927      BINDING AFFINITY PREDICTED BY RF-SCORE:    0.00 PKD
ROOT
HETATM    1  C   UNL     1      -9.058   9.647  64.290  1.00  0.00    -0.267 C  
HETATM    2  C   UNL     1     -10.039  10.755  64.509  1.00  0.00    -0.350 C  
HETATM    3  H   UNL     1     -11.220  11.938  63.524  1.00  0.00     0.000 HD 
HETATM    4  O   UNL     1     -10.597  11.234  63.384  1.00  0.00    -0.375 OA 
ENDROOT
BRANCH   2   5
HETATM    5  N   UNL     1     -10.324  11.192  65.694  1.00  0.00    -0.249 NA 
HETATM    6  H   UNL     1     -11.038  10.723  66.250  1.00  0.00     0.000 HD 
BRANCH   5   7
HETATM    7  C   UNL     1      -9.647  12.319  66.222  1.00  0.00    -0.242 A  
HETATM    8  C   UNL     1     -10.221  13.618  66.107  1.00  0.00    -0.304 A  
HETATM    9  C   UNL     1      -9.555  14.774  66.597  1.00  0.00    -0.289 A  
HETATM   10  I   UNL     1     -12.191  13.731  65.248  1.00  0.00    -0.543 I  
HETATM   11  C   UNL     1      -8.255  14.616  67.145  1.00  0.00    -0.201 A  
HETATM   12  O   UNL     1      -6.117  13.572  69.085  1.00  0.00    -0.081 OA 
HETATM   13  O   UNL     1      -5.480  12.553  67.169  1.00  0.00    -0.287 OA 
HETATM   14  I   UNL     1      -7.874  10.236  67.698  1.00  0.00    -0.097 I  
HETATM   15  C   UNL     1      -7.711  13.326  67.342  1.00  0.00    -0.148 A  
HETATM   16  I   UNL     1      -7.016  16.330  67.579  1.00  0.00    -0.242 I  
HETATM   17  C   UNL     1      -8.446  12.191  66.952  1.00  0.00    -0.173 A  
HETATM   18  C   UNL     1      -6.326  13.125  67.831  1.00  0.00    -0.139 C  
BRANCH   9  19
HETATM   19  C   UNL     1     -10.195  16.128  66.606  1.00  0.00    -0.287 C  
HETATM   20  H   UNL     1     -10.611  17.640  65.437  1.00  0.00     0.000 HD 
HETATM   21  O   UNL     1     -10.204  16.781  65.430  1.00  0.00    -0.599 OA 
BRANCH  19  22
HETATM   22  N   UNL     1     -10.663  16.668  67.680  1.00  0.00    -0.328 NA 
HETATM   23  H   UNL     1     -10.547  17.662  67.878  1.00  0.00     0.000 HD 
BRANCH  22  24
HETATM   24  C   UNL     1     -11.376  15.763  68.606  1.00  0.00    -0.369 C  
BRANCH  24  25
HETATM   25  C   UNL     1     -10.682  15.803  69.972  1.00  0.00    -0.341 C  
HETATM   26  O   UNL     1     -11.576  16.299  70.966  1.00  0.00    -0.520 OA 
HETATM   27  H   UNL     1     -11.147  16.324  71.812  1.00  0.00     0.000 HD 
ENDBRANCH  24  25
ENDBRANCH  22  24
ENDBRANCH  19  22
ENDBRANCH   9  19
ENDBRANCH   5   7
ENDBRANCH   2   5
TORSDOF 6
ENDMDL
MODEL       27
REMARK 921   NORMALIZED FREE ENERGY PREDICTED BY IDOCK:   -4.51 KCAL/MOL
REMARK 922        TOTAL FREE ENERGY PREDICTED BY IDOCK:   -6.61 KCAL/MOL
REMARK 923 INTER-LIGAND FREE ENERGY PREDICTED BY IDOCK:   -6.14 KCAL/MOL
REMARK 924 INTRA-LIGAND FREE ENERGY PREDICTED BY IDOCK:   -0.48 KCAL/MOL
REMARK 927      BINDING AFFINITY PREDICTED BY RF-SCORE:    0.00 PKD
ROOT
HETATM    1  C   UNL     1      -7.229   7.699  69.157  1.00  0.00    -0.080 C  
HETATM    2  C   UNL     1      -7.828   7.108  67.919  1.00  0.00    -0.114 C  
HETATM    3  H   UNL     1      -7.332   6.087  66.345  1.00  0.00     0.000 HD 
HETATM    4  O   UNL     1      -6.952   6.462  67.131  1.00  0.00    -0.067 OA 
ENDROOT
BRANCH   2   5
HETATM    5  N   UNL     1      -9.091   7.209  67.655  1.00  0.00    -0.127 NA 
HETATM    6  H   UNL     1      -9.561   6.473  67.129  1.00  0.00     0.000 HD 
BRANCH   5   7
HETATM    7  C   UNL     1      -9.825   8.339  68.095  1.00  0.00    -0.172 A  
HETATM    8  C   UNL     1      -9.934   9.490  67.262  1.00  0.00    -0.189 A  
HETATM    9  C   UNL     1     -10.635  10.652  67.684  1.00  0.00    -0.288 A  
HETATM   10  I   UNL     1      -9.074   9.345  65.295  1.00  0.00    -0.221 I  
HETATM   11  C   UNL     1     -11.170  10.671  68.999  1.00  0.00    -0.265 A  
HETATM   12  O   UNL     1     -12.930   9.762  71.345  1.00  0.00    -0.347 OA 
HETATM   13  O   UNL     1     -10.874   9.257  72.140  1.00  0.00    -0.215 OA 
HETATM   14  I   UNL     1     -10.936   6.438  70.288  1.00  0.00    -0.457 I  
HETATM   15  C   UNL     1     -11.142   9.508  69.802  1.00  0.00    -0.216 A  
HETATM   16  I   UNL     1     -11.926  12.498  69.865  1.00  0.00    -0.085 I  
HETATM   17  C   UNL     1     -10.542   8.334  69.311  1.00  0.00    -0.181 A  
HETATM   18  C   UNL     1     -11.612   9.513  71.208  1.00  0.00    -0.374 C  
BRANCH   9  19
HETATM   19  C   UNL     1     -10.876  11.820  66.778  1.00  0.00    -0.270 C  
HETATM   20  H   UNL     1     -10.028  13.458  66.124  1.00  0.00     0.000 HD 
HETATM   21  O   UNL     1      -9.876  12.717  66.699  1.00  0.00    -0.238 OA 
BRANCH  19  22
HETATM   22  N   UNL     1     -11.988  11.996  66.150  1.00  0.00    -0.557 NA 
HETATM   23  H   UNL     1     -12.833  11.479  66.394  1.00  0.00     0.000 HD 
BRANCH  22  24
HETATM   24  C   UNL     1     -11.967  12.991  65.057  1.00  0.00    -0.397 C  
BRANCH  24  25
HETATM   25  C   UNL     1     -12.584  12.364  63.802  1.00  0.00    -0.437 C  
HETATM   26  O   UNL     1     -11.644  11.496  63.171  1.00  0.00    -0.840 OA 
HETATM   27  H   UNL     1     -12.026  11.108  62.393  1.00  0.00     0.000 HD 
ENDBRANCH  24  25
ENDBRANCH  22  24
ENDBRANCH  19  22
ENDBRANCH   9  19
ENDBRANCH   5   7
ENDBRANCH   2   5
TORSDOF 6
ENDMDL
MODEL       28
REMARK 921   NORMALIZED FREE ENERGY PREDICTED BY IDOCK:   -4.50 KCAL/MOL
REMARK 922        TOTAL FREE ENERGY PREDICTED BY IDOCK:   -6.60 KCAL/MOL
REMARK 923 INTER-LIGAND FREE ENERGY PREDICTED BY IDOCK:   -6.23 KCAL/MOL
REMARK 924 INTRA-LIGAND FREE ENERGY PREDICTED BY IDOCK:   -0.37 KCAL/MOL
REMARK 927      BINDING AFFINITY PREDICTED BY RF-SCORE:    0.00 PKD
ROOT
HETATM    1  C   UNL     1      -9.208  10.008  63.979  1.00  0.00    -0.318 C  
HETATM    2  C   UNL     1      -9.887  11.290  64.349  1.00  0.00    -0.269 C  
HETATM    3  H   UNL     1     -10.537  12.934  63.551  1.00  0.00     0.000 HD 
HETATM    4  O   UNL     1     -10.106  12.121  63.316  1.00  0.00    -0.414 OA 
ENDROOT
BRANCH   2   5
HETATM    5  N   UNL     1     -10.238  11.550  65.567  1.00  0.00    -0.247 NA 
HETATM    6  H   UNL     1     -10.940  10.972  66.028  1.00  0.00     0.000 HD 
BRANCH   5   7
HETATM    7  C   UNL     1      -9.651  12.636  66.264  1.00  0.00    -0.244 A  
HETATM    8  C   UNL     1     -10.352  13.871  66.386  1.00  0.00    -0.289 A  
HETATM    9  C   UNL     1      -9.781  14.990  67.050  1.00  0.00    -0.241 A  
HETATM   10  I   UNL     1     -12.358  13.925  65.608  1.00  0.00    -0.467 I  
HETATM   11  C   UNL     1      -8.450  14.876  67.532  1.00  0.00    -0.185 A  
HETATM   12  O   UNL     1      -6.143  13.744  69.212  1.00  0.00    -0.089 OA 
HETATM   13  O   UNL     1      -5.491  13.132  67.135  1.00  0.00    -0.342 OA 
HETATM   14  I   UNL     1      -7.627  10.527  67.318  1.00  0.00    -0.103 I  
HETATM   15  C   UNL     1      -7.776  13.633  67.491  1.00  0.00    -0.183 A  
HETATM   16  I   UNL     1      -7.365  16.610  68.222  1.00  0.00    -0.217 I  
HETATM   17  C   UNL     1      -8.414  12.511  66.931  1.00  0.00    -0.130 A  
HETATM   18  C   UNL     1      -6.359  13.495  67.905  1.00  0.00    -0.154 C  
BRANCH   9  19
HETATM   19  C   UNL     1     -10.547  16.251  67.307  1.00  0.00    -0.298 C  
HETATM   20  H   UNL     1     -11.800  17.056  68.576  1.00  0.00     0.000 HD 
HETATM   21  O   UNL     1     -11.314  16.257  68.413  1.00  0.00    -0.367 OA 
BRANCH  19  22
HETATM   22  N   UNL     1     -10.528  17.254  66.498  1.00  0.00    -0.297 NA 
HETATM   23  H   UNL     1     -10.436  17.132  65.489  1.00  0.00     0.000 HD 
BRANCH  22  24
HETATM   24  C   UNL     1     -10.645  18.591  67.118  1.00  0.00    -0.398 C  
BRANCH  24  25
HETATM   25  C   UNL     1     -10.262  19.655  66.082  1.00  0.00    -0.508 C  
HETATM   26  O   UNL     1      -8.877  19.976  66.194  1.00  0.00    -0.471 OA 
HETATM   27  H   UNL     1      -8.640  20.635  65.553  1.00  0.00     0.000 HD 
ENDBRANCH  24  25
ENDBRANCH  22  24
ENDBRANCH  19  22
ENDBRANCH   9  19
ENDBRANCH   5   7
ENDBRANCH   2   5
TORSDOF 6
ENDMDL
MODEL       29
REMARK 921   NORMALIZED FREE ENERGY PREDICTED BY IDOCK:   -4.50 KCAL/MOL
REMARK 922        TOTAL FREE ENERGY PREDICTED BY IDOCK:   -6.60 KCAL/MOL
REMARK 923 INTER-LIGAND FREE ENERGY PREDICTED BY IDOCK:   -6.05 KCAL/MOL
REMARK 924 INTRA-LIGAND FREE ENERGY PREDICTED BY IDOCK:   -0.55 KCAL/MOL
REMARK 927      BINDING AFFINITY PREDICTED BY RF-SCORE:    0.00 PKD
ROOT
HETATM    1  C   UNL     1      -6.326  17.208  68.964  1.00  0.00    -0.204 C  
HETATM    2  C   UNL     1      -6.909  16.143  68.089  1.00  0.00    -0.125 C  
HETATM    3  H   UNL     1      -6.693  15.356  66.329  1.00  0.00     0.000 HD 
HETATM    4  O   UNL     1      -6.323  16.032  66.884  1.00  0.00    -0.306 OA 
ENDROOT
BRANCH   2   5
HETATM    5  N   UNL     1      -7.886  15.392  68.484  1.00  0.00    -0.128 NA 
HETATM    6  H   UNL     1      -8.083  15.298  69.480  1.00  0.00     0.000 HD 
BRANCH   5   7
HETATM    7  C   UNL     1      -8.684  14.700  67.539  1.00  0.00    -0.186 A  
HETATM    8  C   UNL     1      -8.466  13.313  67.298  1.00  0.00    -0.201 A  
HETATM    9  C   UNL     1      -9.226  12.595  66.335  1.00  0.00    -0.162 A  
HETATM   10  I   UNL     1      -7.003  12.334  68.537  1.00  0.00    -0.102 I  
HETATM   11  C   UNL     1     -10.168  13.314  65.554  1.00  0.00    -0.290 A  
HETATM   12  O   UNL     1     -12.643  15.046  65.003  1.00  0.00    -0.087 OA 
HETATM   13  O   UNL     1     -10.991  16.467  64.398  1.00  0.00    -0.872 OA 
HETATM   14  I   UNL     1     -10.532  17.196  67.660  1.00  0.00    -0.267 I  
HETATM   15  C   UNL     1     -10.453  14.670  65.840  1.00  0.00    -0.325 A  
HETATM   16  I   UNL     1     -11.104  12.411  63.831  1.00  0.00    -0.582 I  
HETATM   17  C   UNL     1      -9.765  15.323  66.880  1.00  0.00    -0.233 A  
HETATM   18  C   UNL     1     -11.366  15.475  64.995  1.00  0.00    -0.299 C  
BRANCH   9  19
HETATM   19  C   UNL     1      -9.107  11.112  66.159  1.00  0.00    -0.201 C  
HETATM   20  H   UNL     1      -8.003   9.751  65.289  1.00  0.00     0.000 HD 
HETATM   21  O   UNL     1      -8.079  10.692  65.400  1.00  0.00    -0.156 OA 
BRANCH  19  22
HETATM   22  N   UNL     1      -9.963  10.283  66.652  1.00  0.00    -0.207 NA 
HETATM   23  H   UNL     1     -10.798  10.001  66.139  1.00  0.00     0.000 HD 
BRANCH  22  24
HETATM   24  C   UNL     1      -9.661   9.765  68.003  1.00  0.00    -0.142 C  
BRANCH  24  25
HETATM   25  C   UNL     1     -10.846  10.068  68.928  1.00  0.00    -0.220 C  
HETATM   26  O   UNL     1     -11.991  10.432  68.159  1.00  0.00    -0.756 OA 
HETATM   27  H   UNL     1     -12.725  10.619  68.731  1.00  0.00     0.000 HD 
ENDBRANCH  24  25
ENDBRANCH  22  24
ENDBRANCH  19  22
ENDBRANCH   9  19
ENDBRANCH   5   7
ENDBRANCH   2   5
TORSDOF 6
ENDMDL
MODEL       30
REMARK 921   NORMALIZED FREE ENERGY PREDICTED BY IDOCK:   -4.48 KCAL/MOL
REMARK 922        TOTAL FREE ENERGY PREDICTED BY IDOCK:   -6.57 KCAL/MOL
REMARK 923 INTER-LIGAND FREE ENERGY PREDICTED BY IDOCK:   -6.08 KCAL/MOL
REMARK 924 INTRA-LIGAND FREE ENERGY PREDICTED BY IDOCK:   -0.50 KCAL/MOL
REMARK 927      BINDING AFFINITY PREDICTED BY RF-SCORE:    0.00 PKD
ROOT
HETATM    1  C   UNL     1      -8.624   3.694  65.447  1.00  0.00    -0.112 C  
HETATM    2  C   UNL     1      -9.361   4.755  66.203  1.00  0.00    -0.152 C  
HETATM    3  H   UNL     1     -11.129   5.538  66.361  1.00  0.00     0.000 HD 
HETATM    4  O   UNL     1     -10.661   4.864  65.882  1.00  0.00    -0.302 OA 
ENDROOT
BRANCH   2   5
HETATM    5  N   UNL     1      -8.779   5.486  67.099  1.00  0.00    -0.109 NA 
HETATM    6  H   UNL     1      -7.991   5.111  67.626  1.00  0.00     0.000 HD 
BRANCH   5   7
HETATM    7  C   UNL     1      -9.233   6.804  67.352  1.00  0.00    -0.127 A  
HETATM    8  C   UNL     1      -9.925   7.104  68.561  1.00  0.00    -0.159 A  
HETATM    9  C   UNL     1     -10.422   8.407  68.833  1.00  0.00    -0.208 A  
HETATM   10  I   UNL     1     -10.088   5.512  70.001  1.00  0.00    -0.372 I  
HETATM   11  C   UNL     1     -10.278   9.401  67.829  1.00  0.00    -0.222 A  
HETATM   12  O   UNL     1      -8.794  11.266  65.894  1.00  0.00    -0.195 OA 
HETATM   13  O   UNL     1      -9.825   9.879  64.435  1.00  0.00    -0.236 OA 
HETATM   14  I   UNL     1      -7.386   7.614  64.987  1.00  0.00    -0.091 I  
HETATM   15  C   UNL     1      -9.523   9.140  66.663  1.00  0.00    -0.242 A  
HETATM   16  I   UNL     1     -11.308  11.293  67.984  1.00  0.00    -0.337 I  
HETATM   17  C   UNL     1      -8.943   7.872  66.476  1.00  0.00    -0.161 A  
HETATM   18  C   UNL     1      -9.422  10.122  65.557  1.00  0.00    -0.230 C  
BRANCH   9  19
HETATM   19  C   UNL     1     -11.032   8.777  70.149  1.00  0.00    -0.223 C  
HETATM   20  H   UNL     1     -10.578   9.542  71.893  1.00  0.00     0.000 HD 
HETATM   21  O   UNL     1     -10.192   9.307  71.057  1.00  0.00    -0.271 OA 
BRANCH  19  22
HETATM   22  N   UNL     1     -12.271   8.556  70.429  1.00  0.00    -0.358 NA 
HETATM   23  H   UNL     1     -13.001   8.606  69.719  1.00  0.00     0.000 HD 
BRANCH  22  24
HETATM   24  C   UNL     1     -12.570   8.227  71.839  1.00  0.00    -0.344 C  
BRANCH  24  25
HETATM   25  C   UNL     1     -14.025   8.605  72.140  1.00  0.00    -0.435 C  
HETATM   26  O   UNL     1     -14.170   8.955  73.514  1.00  0.00    -1.194 OA 
HETATM   27  H   UNL     1     -15.071   9.190  73.701  1.00  0.00     0.000 HD 
ENDBRANCH  24  25
ENDBRANCH  22  24
ENDBRANCH  19  22
ENDBRANCH   9  19
ENDBRANCH   5   7
ENDBRANCH   2   5
TORSDOF 6
ENDMDL
MODEL       31
REMARK 921   NORMALIZED FREE ENERGY PREDICTED BY IDOCK:   -4.47 KCAL/MOL
REMARK 922        TOTAL FREE ENERGY PREDICTED BY IDOCK:   -6.56 KCAL/MOL
REMARK 923 INTER-LIGAND FREE ENERGY PREDICTED BY IDOCK:   -6.19 KCAL/MOL
REMARK 924 INTRA-LIGAND FREE ENERGY PREDICTED BY IDOCK:   -0.37 KCAL/MOL
REMARK 927      BINDING AFFINITY PREDICTED BY RF-SCORE:    0.00 PKD
ROOT
HETATM    1  C   UNL     1     -10.921  12.261  63.953  1.00  0.00    -0.464 C  
HETATM    2  C   UNL     1      -9.893  11.258  64.376  1.00  0.00    -0.269 C  
HETATM    3  H   UNL     1      -9.095   9.586  63.801  1.00  0.00     0.000 HD 
HETATM    4  O   UNL     1      -9.747  10.223  63.532  1.00  0.00    -0.298 OA 
ENDROOT
BRANCH   2   5
HETATM    5  N   UNL     1      -9.204  11.403  65.462  1.00  0.00    -0.300 NA 
HETATM    6  H   UNL     1      -8.200  11.572  65.406  1.00  0.00     0.000 HD 
BRANCH   5   7
HETATM    7  C   UNL     1      -9.837  11.326  66.727  1.00  0.00    -0.199 A  
HETATM    8  C   UNL     1      -9.919  10.080  67.413  1.00  0.00    -0.197 A  
HETATM    9  C   UNL     1     -10.575   9.961  68.668  1.00  0.00    -0.244 A  
HETATM   10  I   UNL     1      -8.911   8.409  66.504  1.00  0.00    -0.244 I  
HETATM   11  C   UNL     1     -11.220  11.108  69.198  1.00  0.00    -0.264 A  
HETATM   12  O   UNL     1     -11.446  13.972  70.282  1.00  0.00    -0.208 OA 
HETATM   13  O   UNL     1     -12.602  14.161  68.347  1.00  0.00     0.070 OA 
HETATM   14  I   UNL     1      -9.665  14.429  66.710  1.00  0.00    -0.317 I  
HETATM   15  C   UNL     1     -11.075  12.368  68.571  1.00  0.00    -0.296 A  
HETATM   16  I   UNL     1     -12.542  10.955  70.898  1.00  0.00    -0.425 I  
HETATM   17  C   UNL     1     -10.320  12.476  67.388  1.00  0.00    -0.216 A  
HETATM   18  C   UNL     1     -11.801  13.569  69.046  1.00  0.00    -0.343 C  
BRANCH   9  19
HETATM   19  C   UNL     1     -10.558   8.694  69.467  1.00  0.00    -0.213 C  
HETATM   20  H   UNL     1      -9.556   7.781  70.878  1.00  0.00     0.000 HD 
HETATM   21  O   UNL     1      -9.567   8.584  70.371  1.00  0.00    -0.165 OA 
BRANCH  19  22
HETATM   22  N   UNL     1     -11.400   7.738  69.273  1.00  0.00    -0.335 NA 
HETATM   23  H   UNL     1     -11.997   7.703  68.446  1.00  0.00     0.000 HD 
BRANCH  22  24
HETATM   24  C   UNL     1     -11.450   6.694  70.319  1.00  0.00    -0.391 C  
BRANCH  24  25
HETATM   25  C   UNL     1     -12.635   6.979  71.249  1.00  0.00    -0.373 C  
HETATM   26  O   UNL     1     -12.169   7.302  72.557  1.00  0.00    -0.502 OA 
HETATM   27  H   UNL     1     -12.903   7.479  73.133  1.00  0.00     0.000 HD 
ENDBRANCH  24  25
ENDBRANCH  22  24
ENDBRANCH  19  22
ENDBRANCH   9  19
ENDBRANCH   5   7
ENDBRANCH   2   5
TORSDOF 6
ENDMDL
MODEL       32
REMARK 921   NORMALIZED FREE ENERGY PREDICTED BY IDOCK:   -4.46 KCAL/MOL
REMARK 922        TOTAL FREE ENERGY PREDICTED BY IDOCK:   -6.54 KCAL/MOL
REMARK 923 INTER-LIGAND FREE ENERGY PREDICTED BY IDOCK:   -6.75 KCAL/MOL
REMARK 924 INTRA-LIGAND FREE ENERGY PREDICTED BY IDOCK:    0.21 KCAL/MOL
REMARK 927      BINDING AFFINITY PREDICTED BY RF-SCORE:    0.00 PKD
ROOT
HETATM    1  C   UNL     1      -7.398   7.316  66.787  1.00  0.00    -0.088 C  
HETATM    2  C   UNL     1      -8.402   6.817  65.795  1.00  0.00    -0.143 C  
HETATM    3  H   UNL     1      -8.563   5.585  64.305  1.00  0.00     0.000 HD 
HETATM    4  O   UNL     1      -7.926   5.902  64.935  1.00  0.00    -0.111 OA 
ENDROOT
BRANCH   2   5
HETATM    5  N   UNL     1      -9.627   7.236  65.793  1.00  0.00    -0.303 NA 
HETATM    6  H   UNL     1     -10.360   6.659  65.383  1.00  0.00     0.000 HD 
BRANCH   5   7
HETATM    7  C   UNL     1      -9.953   8.494  66.357  1.00  0.00    -0.244 A  
HETATM    8  C   UNL     1     -10.431   8.576  67.697  1.00  0.00    -0.241 A  
HETATM    9  C   UNL     1     -10.798   9.817  68.284  1.00  0.00    -0.256 A  
HETATM   10  I   UNL     1     -10.470   6.741  68.822  1.00  0.00    -0.299 I  
HETATM   11  C   UNL     1     -10.748  10.981  67.474  1.00  0.00    -0.244 A  
HETATM   12  O   UNL     1      -9.466  13.138  65.705  1.00  0.00    -0.114 OA 
HETATM   13  O   UNL     1     -10.793  12.094  64.201  1.00  0.00    -0.303 OA 
HETATM   14  I   UNL     1      -8.444   9.689  63.917  1.00  0.00    -0.243 I  
HETATM   15  C   UNL     1     -10.199  10.928  66.173  1.00  0.00    -0.304 A  
HETATM   16  I   UNL     1     -11.621  12.839  68.144  1.00  0.00    -0.370 I  
HETATM   17  C   UNL     1      -9.735   9.702  65.660  1.00  0.00    -0.293 A  
HETATM   18  C   UNL     1     -10.208  12.102  65.268  1.00  0.00    -0.274 C  
BRANCH   9  19
HETATM   19  C   UNL     1     -11.174   9.944  69.729  1.00  0.00    -0.235 C  
HETATM   20  H   UNL     1     -10.390  10.167  71.507  1.00  0.00     0.000 HD 
HETATM   21  O   UNL     1     -10.151  10.086  70.591  1.00  0.00    -0.177 OA 
BRANCH  19  22
HETATM   22  N   UNL     1     -12.394   9.866  70.139  1.00  0.00    -0.490 NA 
HETATM   23  H   UNL     1     -13.160   9.619  69.512  1.00  0.00     0.000 HD 
BRANCH  22  24
HETATM   24  C   UNL     1     -12.617  10.156  71.572  1.00  0.00    -0.434 C  
BRANCH  24  25
HETATM   25  C   UNL     1     -12.995   8.855  72.289  1.00  0.00    -0.419 C  
HETATM   26  O   UNL     1     -14.017   9.102  73.252  1.00  0.00    -1.164 OA 
HETATM   27  H   UNL     1     -14.252   8.296  73.696  1.00  0.00     0.000 HD 
ENDBRANCH  24  25
ENDBRANCH  22  24
ENDBRANCH  19  22
ENDBRANCH   9  19
ENDBRANCH   5   7
ENDBRANCH   2   5
TORSDOF 6
ENDMDL
MODEL       33
REMARK 921   NORMALIZED FREE ENERGY PREDICTED BY IDOCK:   -4.46 KCAL/MOL
REMARK 922        TOTAL FREE ENERGY PREDICTED BY IDOCK:   -6.54 KCAL/MOL
REMARK 923 INTER-LIGAND FREE ENERGY PREDICTED BY IDOCK:   -6.09 KCAL/MOL
REMARK 924 INTRA-LIGAND FREE ENERGY PREDICTED BY IDOCK:   -0.45 KCAL/MOL
REMARK 927      BINDING AFFINITY PREDICTED BY RF-SCORE:    0.00 PKD
ROOT
HETATM    1  C   UNL     1      -9.163   5.338  65.918  1.00  0.00    -0.166 C  
HETATM    2  C   UNL     1      -9.907   6.296  66.795  1.00  0.00    -0.164 C  
HETATM    3  H   UNL     1     -11.705   6.937  67.138  1.00  0.00     0.000 HD 
HETATM    4  O   UNL     1     -11.233   6.329  66.582  1.00  0.00    -0.243 OA 
ENDROOT
BRANCH   2   5
HETATM    5  N   UNL     1      -9.305   7.012  67.689  1.00  0.00    -0.122 NA 
HETATM    6  H   UNL     1      -8.286   7.025  67.728  1.00  0.00     0.000 HD 
BRANCH   5   7
HETATM    7  C   UNL     1     -10.056   7.780  68.614  1.00  0.00    -0.199 A  
HETATM    8  C   UNL     1     -10.544   7.182  69.812  1.00  0.00    -0.234 A  
HETATM    9  C   UNL     1     -11.326   7.913  70.745  1.00  0.00    -0.283 A  
HETATM   10  I   UNL     1      -9.951   5.147  70.186  1.00  0.00    -0.340 I  
HETATM   11  C   UNL     1     -11.680   9.249  70.423  1.00  0.00    -0.114 A  
HETATM   12  O   UNL     1     -11.214  12.208  69.746  1.00  0.00    -0.145 OA 
HETATM   13  O   UNL     1     -12.079  11.460  67.795  1.00  0.00    -0.637 OA 
HETATM   14  I   UNL     1      -9.036  10.236  67.005  1.00  0.00    -0.166 I  
HETATM   15  C   UNL     1     -11.133   9.880  69.281  1.00  0.00    -0.220 A  
HETATM   16  I   UNL     1     -13.152  10.321  71.582  1.00  0.00    -0.436 I  
HETATM   17  C   UNL     1     -10.266   9.164  68.435  1.00  0.00    -0.200 A  
HETATM   18  C   UNL     1     -11.544  11.242  68.865  1.00  0.00    -0.319 C  
BRANCH   9  19
HETATM   19  C   UNL     1     -11.737   7.346  72.070  1.00  0.00    -0.289 C  
HETATM   20  H   UNL     1     -13.033   6.128  72.885  1.00  0.00     0.000 HD 
HETATM   21  O   UNL     1     -12.773   6.488  72.045  1.00  0.00    -0.303 OA 
BRANCH  19  22
HETATM   22  N   UNL     1     -11.177   7.692  73.178  1.00  0.00    -0.569 NA 
HETATM   23  H   UNL     1     -11.388   8.579  73.636  1.00  0.00     0.000 HD 
BRANCH  22  24
HETATM   24  C   UNL     1     -10.211   6.728  73.747  1.00  0.00    -0.349 C  
BRANCH  24  25
HETATM   25  C   UNL     1      -8.908   7.467  74.079  1.00  0.00    -0.233 C  
HETATM   26  O   UNL     1      -8.649   8.473  73.102  1.00  0.00    -0.362 OA 
HETATM   27  H   UNL     1      -7.843   8.930  73.307  1.00  0.00     0.000 HD 
ENDBRANCH  24  25
ENDBRANCH  22  24
ENDBRANCH  19  22
ENDBRANCH   9  19
ENDBRANCH   5   7
ENDBRANCH   2   5
TORSDOF 6
ENDMDL
MODEL       34
REMARK 921   NORMALIZED FREE ENERGY PREDICTED BY IDOCK:   -4.43 KCAL/MOL
REMARK 922        TOTAL FREE ENERGY PREDICTED BY IDOCK:   -6.50 KCAL/MOL
REMARK 923 INTER-LIGAND FREE ENERGY PREDICTED BY IDOCK:   -6.31 KCAL/MOL
REMARK 924 INTRA-LIGAND FREE ENERGY PREDICTED BY IDOCK:   -0.19 KCAL/MOL
REMARK 927      BINDING AFFINITY PREDICTED BY RF-SCORE:    0.00 PKD
ROOT
HETATM    1  C   UNL     1      -8.113   6.754  66.825  1.00  0.00    -0.109 C  
HETATM    2  C   UNL     1      -9.011   7.867  67.269  1.00  0.00    -0.127 C  
HETATM    3  H   UNL     1     -10.669   8.748  66.783  1.00  0.00     0.000 HD 
HETATM    4  O   UNL     1     -10.100   8.042  66.501  1.00  0.00    -0.260 OA 
ENDROOT
BRANCH   2   5
HETATM    5  N   UNL     1      -8.749   8.580  68.317  1.00  0.00    -0.142 NA 
HETATM    6  H   UNL     1      -7.798   8.615  68.682  1.00  0.00     0.000 HD 
BRANCH   5   7
HETATM    7  C   UNL     1      -9.778   9.312  68.959  1.00  0.00    -0.162 A  
HETATM    8  C   UNL     1      -9.981  10.687  68.647  1.00  0.00    -0.181 A  
HETATM    9  C   UNL     1     -10.982  11.460  69.295  1.00  0.00    -0.282 A  
HETATM   10  I   UNL     1      -8.765  11.510  67.074  1.00  0.00    -0.181 I  
HETATM   11  C   UNL     1     -11.740  10.845  70.327  1.00  0.00    -0.347 A  
HETATM   12  O   UNL     1     -13.659   8.808  71.590  1.00  0.00    -0.368 OA 
HETATM   13  O   UNL     1     -11.723   8.260  72.623  1.00  0.00    -0.403 OA 
HETATM   14  I   UNL     1     -10.832   6.532  69.866  1.00  0.00    -0.443 I  
HETATM   15  C   UNL     1     -11.607   9.461  70.587  1.00  0.00    -0.330 A  
HETATM   16  I   UNL     1     -13.020  12.014  71.613  1.00  0.00     0.062 I  
HETATM   17  C   UNL     1     -10.686   8.696  69.847  1.00  0.00    -0.225 A  
HETATM   18  C   UNL     1     -12.316   8.803  71.710  1.00  0.00    -0.351 C  
BRANCH   9  19
HETATM   19  C   UNL     1     -11.301  12.866  68.891  1.00  0.00    -0.288 C  
HETATM   20  H   UNL     1     -12.415  13.894  67.654  1.00  0.00     0.000 HD 
HETATM   21  O   UNL     1     -12.213  13.003  67.911  1.00  0.00    -0.249 OA 
BRANCH  19  22
HETATM   22  N   UNL     1     -10.706  13.889  69.402  1.00  0.00    -0.442 NA 
HETATM   23  H   UNL     1      -9.837  13.800  69.929  1.00  0.00     0.000 HD 
BRANCH  22  24
HETATM   24  C   UNL     1     -11.356  15.198  69.178  1.00  0.00    -0.298 C  
BRANCH  24  25
HETATM   25  C   UNL     1     -11.998  15.664  70.490  1.00  0.00    -0.385 C  
HETATM   26  O   UNL     1     -13.417  15.706  70.357  1.00  0.00    -0.804 OA 
HETATM   27  H   UNL     1     -13.815  15.994  71.169  1.00  0.00     0.000 HD 
ENDBRANCH  24  25
ENDBRANCH  22  24
ENDBRANCH  19  22
ENDBRANCH   9  19
ENDBRANCH   5   7
ENDBRANCH   2   5
TORSDOF 6
ENDMDL
MODEL       35
REMARK 921   NORMALIZED FREE ENERGY PREDICTED BY IDOCK:   -4.41 KCAL/MOL
REMARK 922        TOTAL FREE ENERGY PREDICTED BY IDOCK:   -6.48 KCAL/MOL
REMARK 923 INTER-LIGAND FREE ENERGY PREDICTED BY IDOCK:   -6.12 KCAL/MOL
REMARK 924 INTRA-LIGAND FREE ENERGY PREDICTED BY IDOCK:   -0.36 KCAL/MOL
REMARK 927      BINDING AFFINITY PREDICTED BY RF-SCORE:    0.00 PKD
ROOT
HETATM    1  C   UNL     1     -13.514  13.797  72.438  1.00  0.00    -0.672 C  
HETATM    2  C   UNL     1     -12.637  13.670  71.232  1.00  0.00    -0.351 C  
HETATM    3  H   UNL     1     -11.000  14.388  70.478  1.00  0.00     0.000 HD 
HETATM    4  O   UNL     1     -11.556  14.468  71.244  1.00  0.00    -0.276 OA 
ENDROOT
BRANCH   2   5
HETATM    5  N   UNL     1     -12.908  12.843  70.274  1.00  0.00     0.161 NA 
HETATM    6  H   UNL     1     -13.861  12.774  69.917  1.00  0.00     0.000 HD 
BRANCH   5   7
HETATM    7  C   UNL     1     -11.886  12.034  69.717  1.00  0.00    -0.331 A  
HETATM    8  C   UNL     1     -11.701  10.698  70.176  1.00  0.00    -0.332 A  
HETATM    9  C   UNL     1     -10.667   9.869  69.663  1.00  0.00    -0.277 A  
HETATM   10  I   UNL     1     -13.130   9.962  71.609  1.00  0.00    -0.522 I  
HETATM   11  C   UNL     1      -9.763  10.431  68.725  1.00  0.00    -0.183 A  
HETATM   12  O   UNL     1      -8.878  11.752  66.098  1.00  0.00    -0.188 OA 
HETATM   13  O   UNL     1      -8.452  13.415  67.571  1.00  0.00    -0.168 OA 
HETATM   14  I   UNL     1     -11.730  14.209  67.502  1.00  0.00    -0.390 I  
HETATM   15  C   UNL     1      -9.985  11.725  68.199  1.00  0.00    -0.196 A  
HETATM   16  I   UNL     1      -7.957   9.391  68.162  1.00  0.00    -0.089 I  
HETATM   17  C   UNL     1     -11.087  12.479  68.642  1.00  0.00    -0.265 A  
HETATM   18  C   UNL     1      -9.018  12.377  67.284  1.00  0.00    -0.190 C  
BRANCH   9  19
HETATM   19  C   UNL     1     -10.537   8.424  70.032  1.00  0.00    -0.235 C  
HETATM   20  H   UNL     1      -9.521   7.219  71.192  1.00  0.00     0.000 HD 
HETATM   21  O   UNL     1      -9.603   8.136  70.958  1.00  0.00    -0.155 OA 
BRANCH  19  22
HETATM   22  N   UNL     1     -11.231   7.496  69.467  1.00  0.00    -0.455 NA 
HETATM   23  H   UNL     1     -12.241   7.425  69.591  1.00  0.00     0.000 HD 
BRANCH  22  24
HETATM   24  C   UNL     1     -10.477   6.541  68.627  1.00  0.00    -0.218 C  
BRANCH  24  25
HETATM   25  C   UNL     1     -11.010   6.613  67.191  1.00  0.00    -0.408 C  
HETATM   26  O   UNL     1      -9.938   6.483  66.259  1.00  0.00    -0.384 OA 
HETATM   27  H   UNL     1     -10.268   6.528  65.370  1.00  0.00     0.000 HD 
ENDBRANCH  24  25
ENDBRANCH  22  24
ENDBRANCH  19  22
ENDBRANCH   9  19
ENDBRANCH   5   7
ENDBRANCH   2   5
TORSDOF 6
ENDMDL
MODEL       36
REMARK 921   NORMALIZED FREE ENERGY PREDICTED BY IDOCK:   -4.41 KCAL/MOL
REMARK 922        TOTAL FREE ENERGY PREDICTED BY IDOCK:   -6.48 KCAL/MOL
REMARK 923 INTER-LIGAND FREE ENERGY PREDICTED BY IDOCK:   -5.85 KCAL/MOL
REMARK 924 INTRA-LIGAND FREE ENERGY PREDICTED BY IDOCK:   -0.63 KCAL/MOL
REMARK 927      BINDING AFFINITY PREDICTED BY RF-SCORE:    0.00 PKD
ROOT
HETATM    1  C   UNL     1     -10.694  13.890  68.709  1.00  0.00    -0.278 C  
HETATM    2  C   UNL     1     -11.636  13.201  67.771  1.00  0.00    -0.337 C  
HETATM    3  H   UNL     1     -12.742  13.557  66.218  1.00  0.00     0.000 HD 
HETATM    4  O   UNL     1     -12.144  13.994  66.813  1.00  0.00    -0.428 OA 
ENDROOT
BRANCH   2   5
HETATM    5  N   UNL     1     -11.914  11.942  67.883  1.00  0.00    -0.577 NA 
HETATM    6  H   UNL     1     -12.881  11.628  67.817  1.00  0.00     0.000 HD 
BRANCH   5   7
HETATM    7  C   UNL     1     -10.879  10.998  68.098  1.00  0.00    -0.226 A  
HETATM    8  C   UNL     1     -10.767  10.331  69.352  1.00  0.00    -0.241 A  
HETATM    9  C   UNL     1      -9.723   9.403  69.613  1.00  0.00    -0.202 A  
HETATM   10  I   UNL     1     -12.315  10.721  70.796  1.00  0.00    -0.495 I  
HETATM   11  C   UNL     1      -8.737   9.205  68.611  1.00  0.00    -0.129 A  
HETATM   12  O   UNL     1      -7.628   8.421  65.857  1.00  0.00    -0.079 OA 
HETATM   13  O   UNL     1      -7.260  10.653  65.841  1.00  0.00    -0.137 OA 
HETATM   14  I   UNL     1     -10.500  11.102  65.015  1.00  0.00    -0.265 I  
HETATM   15  C   UNL     1      -8.883   9.795  67.334  1.00  0.00    -0.137 A  
HETATM   16  I   UNL     1      -6.927   8.108  69.034  1.00  0.00    -0.063 I  
HETATM   17  C   UNL     1      -9.992  10.619  67.068  1.00  0.00    -0.202 A  
HETATM   18  C   UNL     1      -7.834   9.680  66.292  1.00  0.00    -0.101 C  
BRANCH   9  19
HETATM   19  C   UNL     1      -9.663   8.593  70.871  1.00  0.00    -0.204 C  
HETATM   20  H   UNL     1      -9.069   8.689  72.733  1.00  0.00     0.000 HD 
HETATM   21  O   UNL     1      -9.108   9.202  71.935  1.00  0.00    -0.354 OA 
BRANCH  19  22
HETATM   22  N   UNL     1     -10.062   7.369  70.931  1.00  0.00    -0.189 NA 
HETATM   23  H   UNL     1      -9.687   6.648  70.314  1.00  0.00     0.000 HD 
BRANCH  22  24
HETATM   24  C   UNL     1     -11.095   7.071  71.946  1.00  0.00    -0.242 C  
BRANCH  24  25
HETATM   25  C   UNL     1     -12.443   6.879  71.241  1.00  0.00    -0.361 C  
HETATM   26  O   UNL     1     -12.245   6.667  69.845  1.00  0.00    -0.598 OA 
HETATM   27  H   UNL     1     -13.080   6.548  69.409  1.00  0.00     0.000 HD 
ENDBRANCH  24  25
ENDBRANCH  22  24
ENDBRANCH  19  22
ENDBRANCH   9  19
ENDBRANCH   5   7
ENDBRANCH   2   5
TORSDOF 6
ENDMDL
MODEL       37
REMARK 921   NORMALIZED FREE ENERGY PREDICTED BY IDOCK:   -4.38 KCAL/MOL
REMARK 922        TOTAL FREE ENERGY PREDICTED BY IDOCK:   -6.43 KCAL/MOL
REMARK 923 INTER-LIGAND FREE ENERGY PREDICTED BY IDOCK:   -5.93 KCAL/MOL
REMARK 924 INTRA-LIGAND FREE ENERGY PREDICTED BY IDOCK:   -0.50 KCAL/MOL
REMARK 927      BINDING AFFINITY PREDICTED BY RF-SCORE:    0.00 PKD
ROOT
HETATM    1  C   UNL     1      -9.084   5.878  66.933  1.00  0.00    -0.120 C  
HETATM    2  C   UNL     1      -9.726   7.230  66.989  1.00  0.00    -0.181 C  
HETATM    3  H   UNL     1     -11.473   8.071  66.927  1.00  0.00     0.000 HD 
HETATM    4  O   UNL     1     -11.066   7.213  66.892  1.00  0.00    -0.327 OA 
ENDROOT
BRANCH   2   5
HETATM    5  N   UNL     1      -9.030   8.311  67.133  1.00  0.00    -0.136 NA 
HETATM    6  H   UNL     1      -8.057   8.253  67.433  1.00  0.00     0.000 HD 
BRANCH   5   7
HETATM    7  C   UNL     1      -9.613   9.577  66.877  1.00  0.00    -0.165 A  
HETATM    8  C   UNL     1     -10.153  10.347  67.947  1.00  0.00    -0.171 A  
HETATM    9  C   UNL     1     -10.773  11.605  67.722  1.00  0.00    -0.244 A  
HETATM   10  I   UNL     1      -9.888   9.560  69.933  1.00  0.00    -0.313 I  
HETATM   11  C   UNL     1     -10.914  12.053  66.382  1.00  0.00    -0.296 A  
HETATM   12  O   UNL     1      -9.994  12.935  63.589  1.00  0.00    -0.282 OA 
HETATM   13  O   UNL     1     -11.034  10.988  63.095  1.00  0.00    -0.072 OA 
HETATM   14  I   UNL     1      -8.260   9.345  64.088  1.00  0.00    -0.206 I  
HETATM   15  C   UNL     1     -10.310  11.340  65.321  1.00  0.00    -0.337 A  
HETATM   16  I   UNL     1     -12.152  13.755  65.903  1.00  0.00    -0.516 I  
HETATM   17  C   UNL     1      -9.600  10.155  65.589  1.00  0.00    -0.243 A  
HETATM   18  C   UNL     1     -10.506  11.728  63.903  1.00  0.00    -0.390 C  
BRANCH   9  19
HETATM   19  C   UNL     1     -11.226  12.491  68.842  1.00  0.00    -0.281 C  
HETATM   20  H   UNL     1     -12.688  12.724  70.121  1.00  0.00     0.000 HD 
HETATM   21  O   UNL     1     -12.401  12.163  69.411  1.00  0.00    -0.124 OA 
BRANCH  19  22
HETATM   22  N   UNL     1     -10.570  13.537  69.211  1.00  0.00    -0.441 NA 
HETATM   23  H   UNL     1      -9.654  13.764  68.823  1.00  0.00     0.000 HD 
BRANCH  22  24
HETATM   24  C   UNL     1     -11.223  14.390  70.227  1.00  0.00    -0.051 C  
BRANCH  24  25
HETATM   25  C   UNL     1     -11.878  15.586  69.526  1.00  0.00    -0.372 C  
HETATM   26  O   UNL     1     -13.152  15.860  70.105  1.00  0.00    -0.666 OA 
HETATM   27  H   UNL     1     -13.557  16.601  69.671  1.00  0.00     0.000 HD 
ENDBRANCH  24  25
ENDBRANCH  22  24
ENDBRANCH  19  22
ENDBRANCH   9  19
ENDBRANCH   5   7
ENDBRANCH   2   5
TORSDOF 6
ENDMDL
MODEL       38
REMARK 921   NORMALIZED FREE ENERGY PREDICTED BY IDOCK:   -4.33 KCAL/MOL
REMARK 922        TOTAL FREE ENERGY PREDICTED BY IDOCK:   -6.37 KCAL/MOL
REMARK 923 INTER-LIGAND FREE ENERGY PREDICTED BY IDOCK:   -6.20 KCAL/MOL
REMARK 924 INTRA-LIGAND FREE ENERGY PREDICTED BY IDOCK:   -0.17 KCAL/MOL
REMARK 927      BINDING AFFINITY PREDICTED BY RF-SCORE:    0.00 PKD
ROOT
HETATM    1  C   UNL     1     -14.182   7.745  71.696  1.00  0.00    -0.572 C  
HETATM    2  C   UNL     1     -12.745   7.406  71.940  1.00  0.00    -0.278 C  
HETATM    3  H   UNL     1     -11.600   5.888  72.326  1.00  0.00     0.000 HD 
HETATM    4  O   UNL     1     -12.513   6.103  72.171  1.00  0.00    -0.262 OA 
ENDROOT
BRANCH   2   5
HETATM    5  N   UNL     1     -11.816   8.308  71.914  1.00  0.00    -0.302 NA 
HETATM    6  H   UNL     1     -11.491   8.727  72.784  1.00  0.00     0.000 HD 
BRANCH   5   7
HETATM    7  C   UNL     1     -11.249   8.714  70.681  1.00  0.00    -0.252 A  
HETATM    8  C   UNL     1     -11.512  10.017  70.166  1.00  0.00    -0.277 A  
HETATM    9  C   UNL     1     -10.986  10.446  68.918  1.00  0.00    -0.289 A  
HETATM   10  I   UNL     1     -12.657  11.338  71.421  1.00  0.00    -0.173 I  
HETATM   11  C   UNL     1     -10.244   9.513  68.147  1.00  0.00    -0.193 A  
HETATM   12  O   UNL     1      -7.960   7.564  67.504  1.00  0.00    -0.113 OA 
HETATM   13  O   UNL     1      -9.709   6.136  67.632  1.00  0.00    -0.114 OA 
HETATM   14  I   UNL     1      -9.427   6.216  70.993  1.00  0.00    -0.207 I  
HETATM   15  C   UNL     1      -9.906   8.248  68.682  1.00  0.00    -0.186 A  
HETATM   16  I   UNL     1      -9.716   9.935  66.097  1.00  0.00    -0.334 I  
HETATM   17  C   UNL     1     -10.345   7.895  69.972  1.00  0.00    -0.221 A  
HETATM   18  C   UNL     1      -9.208   7.217  67.877  1.00  0.00    -0.129 C  
BRANCH   9  19
HETATM   19  C   UNL     1     -11.137  11.851  68.421  1.00  0.00    -0.244 C  
HETATM   20  H   UNL     1     -12.197  12.939  67.188  1.00  0.00     0.000 HD 
HETATM   21  O   UNL     1     -12.101  12.048  67.503  1.00  0.00    -0.555 OA 
BRANCH  19  22
HETATM   22  N   UNL     1     -10.363  12.810  68.800  1.00  0.00    -0.398 NA 
HETATM   23  H   UNL     1      -9.623  12.667  69.488  1.00  0.00     0.000 HD 
BRANCH  22  24
HETATM   24  C   UNL     1     -10.609  14.128  68.178  1.00  0.00    -0.246 C  
BRANCH  24  25
HETATM   25  C   UNL     1     -11.270  15.049  69.211  1.00  0.00    -0.286 C  
HETATM   26  O   UNL     1     -12.619  14.647  69.438  1.00  0.00    -0.570 OA 
HETATM   27  H   UNL     1     -13.029  15.217  70.078  1.00  0.00     0.000 HD 
ENDBRANCH  24  25
ENDBRANCH  22  24
ENDBRANCH  19  22
ENDBRANCH   9  19
ENDBRANCH   5   7
ENDBRANCH   2   5
TORSDOF 6
ENDMDL
MODEL       39
REMARK 921   NORMALIZED FREE ENERGY PREDICTED BY IDOCK:   -4.33 KCAL/MOL
REMARK 922        TOTAL FREE ENERGY PREDICTED BY IDOCK:   -6.37 KCAL/MOL
REMARK 923 INTER-LIGAND FREE ENERGY PREDICTED BY IDOCK:   -5.93 KCAL/MOL
REMARK 924 INTRA-LIGAND FREE ENERGY PREDICTED BY IDOCK:   -0.44 KCAL/MOL
REMARK 927      BINDING AFFINITY PREDICTED BY RF-SCORE:    0.00 PKD
ROOT
HETATM    1  C   UNL     1      -7.155   8.521  68.322  1.00  0.00    -0.085 C  
HETATM    2  C   UNL     1      -7.805   7.752  67.213  1.00  0.00    -0.117 C  
HETATM    3  H   UNL     1      -7.372   6.510  65.788  1.00  0.00     0.000 HD 
HETATM    4  O   UNL     1      -6.960   6.997  66.492  1.00  0.00    -0.065 OA 
ENDROOT
BRANCH   2   5
HETATM    5  N   UNL     1      -9.079   7.814  66.994  1.00  0.00    -0.133 NA 
HETATM    6  H   UNL     1      -9.515   7.158  66.346  1.00  0.00     0.000 HD 
BRANCH   5   7
HETATM    7  C   UNL     1      -9.871   8.789  67.650  1.00  0.00    -0.180 A  
HETATM    8  C   UNL     1     -10.128  10.042  67.023  1.00  0.00    -0.219 A  
HETATM    9  C   UNL     1     -10.892  11.054  67.665  1.00  0.00    -0.306 A  
HETATM   10  I   UNL     1      -9.393  10.288  65.015  1.00  0.00    -0.375 I  
HETATM   11  C   UNL     1     -11.337  10.818  68.992  1.00  0.00    -0.284 A  
HETATM   12  O   UNL     1     -12.857   9.394  71.249  1.00  0.00    -0.324 OA 
HETATM   13  O   UNL     1     -10.717   8.959  71.841  1.00  0.00    -0.330 OA 
HETATM   14  I   UNL     1     -10.674   6.473  69.561  1.00  0.00    -0.422 I  
HETATM   15  C   UNL     1     -11.161   9.549  69.592  1.00  0.00    -0.196 A  
HETATM   16  I   UNL     1     -12.180  12.409  70.182  1.00  0.00     0.001 I  
HETATM   17  C   UNL     1     -10.501   8.527  68.885  1.00  0.00    -0.188 A  
HETATM   18  C   UNL     1     -11.535   9.290  71.003  1.00  0.00    -0.319 C  
BRANCH   9  19
HETATM   19  C   UNL     1     -11.287  12.324  66.975  1.00  0.00    -0.334 C  
HETATM   20  H   UNL     1     -12.657  13.068  65.793  1.00  0.00     0.000 HD 
HETATM   21  O   UNL     1     -12.406  12.263  66.231  1.00  0.00    -0.556 OA 
BRANCH  19  22
HETATM   22  N   UNL     1     -10.578  13.399  67.036  1.00  0.00    -0.263 NA 
HETATM   23  H   UNL     1      -9.573  13.373  67.209  1.00  0.00     0.000 HD 
BRANCH  22  24
HETATM   24  C   UNL     1     -11.307  14.670  66.841  1.00  0.00    -0.356 C  
BRANCH  24  25
HETATM   25  C   UNL     1     -10.987  15.611  68.009  1.00  0.00    -0.318 C  
HETATM   26  O   UNL     1     -12.152  15.823  68.804  1.00  0.00    -0.559 OA 
HETATM   27  H   UNL     1     -11.954  16.405  69.527  1.00  0.00     0.000 HD 
ENDBRANCH  24  25
ENDBRANCH  22  24
ENDBRANCH  19  22
ENDBRANCH   9  19
ENDBRANCH   5   7
ENDBRANCH   2   5
TORSDOF 6
ENDMDL
MODEL       40
REMARK 921   NORMALIZED FREE ENERGY PREDICTED BY IDOCK:   -4.31 KCAL/MOL
REMARK 922        TOTAL FREE ENERGY PREDICTED BY IDOCK:   -6.34 KCAL/MOL
REMARK 923 INTER-LIGAND FREE ENERGY PREDICTED BY IDOCK:   -5.89 KCAL/MOL
REMARK 924 INTRA-LIGAND FREE ENERGY PREDICTED BY IDOCK:   -0.46 KCAL/MOL
REMARK 927      BINDING AFFINITY PREDICTED BY RF-SCORE:    0.00 PKD
ROOT
HETATM    1  C   UNL     1     -13.394  11.935  72.055  1.00  0.00    -0.425 C  
HETATM    2  C   UNL     1     -12.740  10.824  71.294  1.00  0.00    -0.441 C  
HETATM    3  H   UNL     1     -13.172   9.171  70.375  1.00  0.00     0.000 HD 
HETATM    4  O   UNL     1     -13.587   9.876  70.857  1.00  0.00    -0.301 OA 
ENDROOT
BRANCH   2   5
HETATM    5  N   UNL     1     -11.465  10.805  71.074  1.00  0.00    -0.260 NA 
HETATM    6  H   UNL     1     -10.852  11.441  71.582  1.00  0.00     0.000 HD 
BRANCH   5   7
HETATM    7  C   UNL     1     -10.916   9.902  70.129  1.00  0.00    -0.301 A  
HETATM    8  C   UNL     1     -10.569  10.356  68.824  1.00  0.00    -0.208 A  
HETATM    9  C   UNL     1     -10.046   9.472  67.841  1.00  0.00    -0.234 A  
HETATM   10  I   UNL     1     -10.776  12.465  68.447  1.00  0.00    -0.287 I  
HETATM   11  C   UNL     1      -9.945   8.094  68.166  1.00  0.00    -0.186 A  
HETATM   12  O   UNL     1      -8.987   5.620  69.713  1.00  0.00    -0.125 OA 
HETATM   13  O   UNL     1     -11.183   5.633  70.256  1.00  0.00    -0.243 OA 
HETATM   14  I   UNL     1     -10.518   8.007  72.560  1.00  0.00    -0.373 I  
HETATM   15  C   UNL     1     -10.207   7.645  69.481  1.00  0.00    -0.209 A  
HETATM   16  I   UNL     1      -9.515   6.622  66.646  1.00  0.00    -0.140 I  
HETATM   17  C   UNL     1     -10.612   8.566  70.466  1.00  0.00    -0.213 A  
HETATM   18  C   UNL     1     -10.195   6.206  69.837  1.00  0.00    -0.192 C  
BRANCH   9  19
HETATM   19  C   UNL     1      -9.550   9.950  66.511  1.00  0.00    -0.190 C  
HETATM   20  H   UNL     1      -7.929  10.571  65.608  1.00  0.00     0.000 HD 
HETATM   21  O   UNL     1      -8.244  10.268  66.452  1.00  0.00    -0.123 OA 
BRANCH  19  22
HETATM   22  N   UNL     1     -10.327  10.105  65.494  1.00  0.00    -0.204 NA 
HETATM   23  H   UNL     1     -11.335  10.220  65.597  1.00  0.00     0.000 HD 
BRANCH  22  24
HETATM   24  C   UNL     1      -9.670  10.105  64.169  1.00  0.00    -0.233 C  
BRANCH  24  25
HETATM   25  C   UNL     1      -9.933  11.452  63.485  1.00  0.00    -0.388 C  
HETATM   26  O   UNL     1      -8.811  11.828  62.688  1.00  0.00    -0.610 OA 
HETATM   27  H   UNL     1      -8.974  12.662  62.264  1.00  0.00     0.000 HD 
ENDBRANCH  24  25
ENDBRANCH  22  24
ENDBRANCH  19  22
ENDBRANCH   9  19
ENDBRANCH   5   7
ENDBRANCH   2   5
TORSDOF 6
ENDMDL
MODEL       41
REMARK 921   NORMALIZED FREE ENERGY PREDICTED BY IDOCK:   -4.31 KCAL/MOL
REMARK 922        TOTAL FREE ENERGY PREDICTED BY IDOCK:   -6.34 KCAL/MOL
REMARK 923 INTER-LIGAND FREE ENERGY PREDICTED BY IDOCK:   -6.02 KCAL/MOL
REMARK 924 INTRA-LIGAND FREE ENERGY PREDICTED BY IDOCK:   -0.32 KCAL/MOL
REMARK 927      BINDING AFFINITY PREDICTED BY RF-SCORE:    0.00 PKD
ROOT
HETATM    1  C   UNL     1      -8.009   9.113  67.126  1.00  0.00    -0.106 C  
HETATM    2  C   UNL     1      -7.570  10.531  67.322  1.00  0.00    -0.096 C  
HETATM    3  H   UNL     1      -6.462  11.892  66.496  1.00  0.00     0.000 HD 
HETATM    4  O   UNL     1      -6.741  10.992  66.371  1.00  0.00    -0.128 OA 
ENDROOT
BRANCH   2   5
HETATM    5  N   UNL     1      -7.979  11.240  68.324  1.00  0.00    -0.126 NA 
HETATM    6  H   UNL     1      -7.963  10.847  69.264  1.00  0.00     0.000 HD 
BRANCH   5   7
HETATM    7  C   UNL     1      -8.450  12.561  68.120  1.00  0.00    -0.180 A  
HETATM    8  C   UNL     1      -9.840  12.803  67.919  1.00  0.00    -0.223 A  
HETATM    9  C   UNL     1     -10.342  14.111  67.680  1.00  0.00    -0.241 A  
HETATM   10  I   UNL     1     -11.152  11.107  68.100  1.00  0.00    -0.401 I  
HETATM   11  C   UNL     1      -9.411  15.177  67.570  1.00  0.00    -0.206 A  
HETATM   12  O   UNL     1      -7.189  17.090  68.480  1.00  0.00    -0.189 OA 
HETATM   13  O   UNL     1      -6.106  15.918  66.877  1.00  0.00    -0.297 OA 
HETATM   14  I   UNL     1      -5.639  13.438  69.115  1.00  0.00    -0.090 I  
HETATM   15  C   UNL     1      -8.041  14.964  67.849  1.00  0.00    -0.148 A  
HETATM   16  I   UNL     1     -10.024  17.118  66.853  1.00  0.00    -0.322 I  
HETATM   17  C   UNL     1      -7.590  13.678  68.198  1.00  0.00    -0.137 A  
HETATM   18  C   UNL     1      -7.028  16.030  67.663  1.00  0.00    -0.155 C  
BRANCH   9  19
HETATM   19  C   UNL     1     -11.808  14.407  67.600  1.00  0.00    -0.378 C  
HETATM   20  H   UNL     1     -13.319  14.365  66.357  1.00  0.00     0.000 HD 
HETATM   21  O   UNL     1     -12.389  14.177  66.408  1.00  0.00    -0.460 OA 
BRANCH  19  22
HETATM   22  N   UNL     1     -12.473  14.905  68.586  1.00  0.00    -0.499 NA 
HETATM   23  H   UNL     1     -13.309  15.471  68.443  1.00  0.00     0.000 HD 
BRANCH  22  24
HETATM   24  C   UNL     1     -11.951  14.607  69.937  1.00  0.00    -0.329 C  
BRANCH  24  25
HETATM   25  C   UNL     1     -12.682  15.487  70.958  1.00  0.00    -0.467 C  
HETATM   26  O   UNL     1     -14.084  15.483  70.697  1.00  0.00    -0.849 OA 
HETATM   27  H   UNL     1     -14.537  16.028  71.329  1.00  0.00     0.000 HD 
ENDBRANCH  24  25
ENDBRANCH  22  24
ENDBRANCH  19  22
ENDBRANCH   9  19
ENDBRANCH   5   7
ENDBRANCH   2   5
TORSDOF 6
ENDMDL
MODEL       42
REMARK 921   NORMALIZED FREE ENERGY PREDICTED BY IDOCK:   -4.30 KCAL/MOL
REMARK 922        TOTAL FREE ENERGY PREDICTED BY IDOCK:   -6.33 KCAL/MOL
REMARK 923 INTER-LIGAND FREE ENERGY PREDICTED BY IDOCK:   -5.74 KCAL/MOL
REMARK 924 INTRA-LIGAND FREE ENERGY PREDICTED BY IDOCK:   -0.59 KCAL/MOL
REMARK 927      BINDING AFFINITY PREDICTED BY RF-SCORE:    0.00 PKD
ROOT
HETATM    1  C   UNL     1      -7.087  16.085  69.438  1.00  0.00    -0.217 C  
HETATM    2  C   UNL     1      -7.305  14.947  68.490  1.00  0.00    -0.119 C  
HETATM    3  H   UNL     1      -6.626  14.227  66.822  1.00  0.00     0.000 HD 
HETATM    4  O   UNL     1      -6.488  14.949  67.423  1.00  0.00    -0.295 OA 
ENDROOT
BRANCH   2   5
HETATM    5  N   UNL     1      -8.202  14.040  68.706  1.00  0.00    -0.283 NA 
HETATM    6  H   UNL     1      -8.372  13.710  69.656  1.00  0.00     0.000 HD 
BRANCH   5   7
HETATM    7  C   UNL     1      -8.949  13.502  67.629  1.00  0.00    -0.200 A  
HETATM    8  C   UNL     1      -8.630  12.214  67.110  1.00  0.00    -0.185 A  
HETATM    9  C   UNL     1      -9.337  11.657  66.010  1.00  0.00    -0.241 A  
HETATM   10  I   UNL     1      -7.096  11.109  68.139  1.00  0.00    -0.084 I  
HETATM   11  C   UNL     1     -10.332  12.451  65.382  1.00  0.00    -0.277 A  
HETATM   12  O   UNL     1     -12.930  14.075  65.169  1.00  0.00    -0.744 OA 
HETATM   13  O   UNL     1     -11.389  15.707  64.891  1.00  0.00    -0.372 OA 
HETATM   14  I   UNL     1     -10.976  15.777  68.239  1.00  0.00    -0.339 I  
HETATM   15  C   UNL     1     -10.715  13.694  65.938  1.00  0.00    -0.281 A  
HETATM   16  I   UNL     1     -11.204  11.857  63.499  1.00  0.00    -0.327 I  
HETATM   17  C   UNL     1     -10.075  14.167  67.099  1.00  0.00    -0.258 A  
HETATM   18  C   UNL     1     -11.688  14.588  65.266  1.00  0.00    -0.361 C  
BRANCH   9  19
HETATM   19  C   UNL     1      -9.110  10.255  65.534  1.00  0.00    -0.176 C  
HETATM   20  H   UNL     1      -9.772   8.428  65.762  1.00  0.00     0.000 HD 
HETATM   21  O   UNL     1      -9.916   9.317  66.064  1.00  0.00    -0.290 OA 
BRANCH  19  22
HETATM   22  N   UNL     1      -8.168   9.944  64.710  1.00  0.00    -0.143 NA 
HETATM   23  H   UNL     1      -7.879  10.571  63.959  1.00  0.00     0.000 HD 
BRANCH  22  24
HETATM   24  C   UNL     1      -7.531   8.626  64.919  1.00  0.00    -0.093 C  
BRANCH  24  25
HETATM   25  C   UNL     1      -7.551   7.850  63.596  1.00  0.00    -0.130 C  
HETATM   26  O   UNL     1      -8.628   6.915  63.589  1.00  0.00    -0.325 OA 
HETATM   27  H   UNL     1      -8.640   6.435  62.770  1.00  0.00     0.000 HD 
ENDBRANCH  24  25
ENDBRANCH  22  24
ENDBRANCH  19  22
ENDBRANCH   9  19
ENDBRANCH   5   7
ENDBRANCH   2   5
TORSDOF 6
ENDMDL
MODEL       43
REMARK 921   NORMALIZED FREE ENERGY PREDICTED BY IDOCK:   -4.30 KCAL/MOL
REMARK 922        TOTAL FREE ENERGY PREDICTED BY IDOCK:   -6.33 KCAL/MOL
REMARK 923 INTER-LIGAND FREE ENERGY PREDICTED BY IDOCK:   -5.90 KCAL/MOL
REMARK 924 INTRA-LIGAND FREE ENERGY PREDICTED BY IDOCK:   -0.43 KCAL/MOL
REMARK 927      BINDING AFFINITY PREDICTED BY RF-SCORE:    0.00 PKD
ROOT
HETATM    1  C   UNL     1     -12.473  11.514  70.950  1.00  0.00    -0.464 C  
HETATM    2  C   UNL     1     -11.713  11.301  69.678  1.00  0.00    -0.350 C  
HETATM    3  H   UNL     1     -11.999  11.070  67.773  1.00  0.00     0.000 HD 
HETATM    4  O   UNL     1     -12.482  11.206  68.580  1.00  0.00    -0.463 OA 
ENDROOT
BRANCH   2   5
HETATM    5  N   UNL     1     -10.421  11.233  69.658  1.00  0.00    -0.445 NA 
HETATM    6  H   UNL     1      -9.871  11.831  70.274  1.00  0.00     0.000 HD 
BRANCH   5   7
HETATM    7  C   UNL     1      -9.766  10.330  68.784  1.00  0.00    -0.177 A  
HETATM    8  C   UNL     1      -9.138  10.809  67.598  1.00  0.00    -0.147 A  
HETATM    9  C   UNL     1      -8.500   9.928  66.684  1.00  0.00    -0.126 A  
HETATM   10  I   UNL     1      -9.110  12.942  67.314  1.00  0.00    -0.228 I  
HETATM   11  C   UNL     1      -8.567   8.533  66.940  1.00  0.00    -0.117 A  
HETATM   12  O   UNL     1      -8.115   5.923  68.492  1.00  0.00    -0.104 OA 
HETATM   13  O   UNL     1     -10.367   6.097  68.605  1.00  0.00    -0.166 OA 
HETATM   14  I   UNL     1      -9.991   8.303  71.129  1.00  0.00    -0.292 I  
HETATM   15  C   UNL     1      -9.113   8.051  68.152  1.00  0.00    -0.134 A  
HETATM   16  I   UNL     1      -7.958   7.099  65.446  1.00  0.00    -0.119 I  
HETATM   17  C   UNL     1      -9.633   8.959  69.093  1.00  0.00    -0.162 A  
HETATM   18  C   UNL     1      -9.277   6.602  68.417  1.00  0.00    -0.122 C  
BRANCH   9  19
HETATM   19  C   UNL     1      -7.720  10.420  65.503  1.00  0.00    -0.147 C  
HETATM   20  H   UNL     1      -5.902  10.886  64.949  1.00  0.00     0.000 HD 
HETATM   21  O   UNL     1      -6.397  10.574  65.697  1.00  0.00    -0.120 OA 
BRANCH  19  22
HETATM   22  N   UNL     1      -8.276  10.734  64.383  1.00  0.00    -0.368 NA 
HETATM   23  H   UNL     1      -7.738  11.094  63.595  1.00  0.00     0.000 HD 
BRANCH  22  24
HETATM   24  C   UNL     1      -9.740  10.541  64.309  1.00  0.00    -0.330 C  
BRANCH  24  25
HETATM   25  C   UNL     1     -10.359  11.723  63.554  1.00  0.00    -0.448 C  
HETATM   26  O   UNL     1     -11.665  11.384  63.091  1.00  0.00    -0.870 OA 
HETATM   27  H   UNL     1     -12.048  12.116  62.623  1.00  0.00     0.000 HD 
ENDBRANCH  24  25
ENDBRANCH  22  24
ENDBRANCH  19  22
ENDBRANCH   9  19
ENDBRANCH   5   7
ENDBRANCH   2   5
TORSDOF 6
ENDMDL
MODEL       44
REMARK 921   NORMALIZED FREE ENERGY PREDICTED BY IDOCK:   -4.27 KCAL/MOL
REMARK 922        TOTAL FREE ENERGY PREDICTED BY IDOCK:   -6.29 KCAL/MOL
REMARK 923 INTER-LIGAND FREE ENERGY PREDICTED BY IDOCK:   -5.81 KCAL/MOL
REMARK 924 INTRA-LIGAND FREE ENERGY PREDICTED BY IDOCK:   -0.48 KCAL/MOL
REMARK 927      BINDING AFFINITY PREDICTED BY RF-SCORE:    0.00 PKD
ROOT
HETATM    1  C   UNL     1     -12.392  12.009  63.336  1.00  0.00    -0.635 C  
HETATM    2  C   UNL     1     -11.083  11.694  63.990  1.00  0.00    -0.384 C  
HETATM    3  H   UNL     1      -9.182  11.640  63.605  1.00  0.00     0.000 HD 
HETATM    4  O   UNL     1     -10.013  11.840  63.190  1.00  0.00    -0.409 OA 
ENDROOT
BRANCH   2   5
HETATM    5  N   UNL     1     -11.008  11.326  65.229  1.00  0.00    -0.191 NA 
HETATM    6  H   UNL     1     -11.720  10.710  65.619  1.00  0.00     0.000 HD 
BRANCH   5   7
HETATM    7  C   UNL     1      -9.941  11.777  66.045  1.00  0.00    -0.229 A  
HETATM    8  C   UNL     1     -10.035  13.029  66.720  1.00  0.00    -0.245 A  
HETATM    9  C   UNL     1      -8.971  13.526  67.520  1.00  0.00    -0.210 A  
HETATM   10  I   UNL     1     -11.905  14.081  66.549  1.00  0.00    -0.467 I  
HETATM   11  C   UNL     1      -7.768  12.775  67.577  1.00  0.00    -0.168 A  
HETATM   12  O   UNL     1      -5.978  10.350  68.164  1.00  0.00    -0.044 OA 
HETATM   13  O   UNL     1      -5.892  10.402  65.904  1.00  0.00    -0.076 OA 
HETATM   14  I   UNL     1      -8.891   8.859  65.833  1.00  0.00    -0.255 I  
HETATM   15  C   UNL     1      -7.692  11.494  66.983  1.00  0.00    -0.158 A  
HETATM   16  I   UNL     1      -5.980  13.606  68.456  1.00  0.00    -0.129 I  
HETATM   17  C   UNL     1      -8.805  10.977  66.293  1.00  0.00    -0.180 A  
HETATM   18  C   UNL     1      -6.430  10.718  66.948  1.00  0.00    -0.090 C  
BRANCH   9  19
HETATM   19  C   UNL     1      -9.098  14.771  68.343  1.00  0.00    -0.188 C  
HETATM   20  H   UNL     1      -8.732  16.693  68.289  1.00  0.00     0.000 HD 
HETATM   21  O   UNL     1      -8.652  15.903  67.767  1.00  0.00    -0.158 OA 
BRANCH  19  22
HETATM   22  N   UNL     1      -9.553  14.765  69.549  1.00  0.00    -0.426 NA 
HETATM   23  H   UNL     1      -9.248  14.076  70.237  1.00  0.00     0.000 HD 
BRANCH  22  24
HETATM   24  C   UNL     1     -10.540  15.815  69.877  1.00  0.00    -0.328 C  
BRANCH  24  25
HETATM   25  C   UNL     1     -11.608  15.222  70.804  1.00  0.00    -0.333 C  
HETATM   26  O   UNL     1     -11.685  13.809  70.626  1.00  0.00    -0.504 OA 
HETATM   27  H   UNL     1     -12.346  13.442  71.201  1.00  0.00     0.000 HD 
ENDBRANCH  24  25
ENDBRANCH  22  24
ENDBRANCH  19  22
ENDBRANCH   9  19
ENDBRANCH   5   7
ENDBRANCH   2   5
TORSDOF 6
ENDMDL
MODEL       45
REMARK 921   NORMALIZED FREE ENERGY PREDICTED BY IDOCK:   -4.26 KCAL/MOL
REMARK 922        TOTAL FREE ENERGY PREDICTED BY IDOCK:   -6.28 KCAL/MOL
REMARK 923 INTER-LIGAND FREE ENERGY PREDICTED BY IDOCK:   -5.90 KCAL/MOL
REMARK 924 INTRA-LIGAND FREE ENERGY PREDICTED BY IDOCK:   -0.38 KCAL/MOL
REMARK 927      BINDING AFFINITY PREDICTED BY RF-SCORE:    0.00 PKD
ROOT
HETATM    1  C   UNL     1     -12.575   7.386  71.344  1.00  0.00    -0.405 C  
HETATM    2  C   UNL     1     -11.428   7.766  72.227  1.00  0.00    -0.332 C  
HETATM    3  H   UNL     1     -10.295   7.035  73.623  1.00  0.00     0.000 HD 
HETATM    4  O   UNL     1     -11.023   6.794  73.062  1.00  0.00    -0.267 OA 
ENDROOT
BRANCH   2   5
HETATM    5  N   UNL     1     -10.876   8.935  72.166  1.00  0.00    -0.334 NA 
HETATM    6  H   UNL     1     -10.912   9.556  72.974  1.00  0.00     0.000 HD 
BRANCH   5   7
HETATM    7  C   UNL     1     -10.223   9.357  70.981  1.00  0.00    -0.299 A  
HETATM    8  C   UNL     1     -10.818  10.350  70.151  1.00  0.00    -0.271 A  
HETATM    9  C   UNL     1     -10.206  10.773  68.939  1.00  0.00    -0.219 A  
HETATM   10  I   UNL     1     -12.633  11.253  70.872  1.00  0.00    -0.272 I  
HETATM   11  C   UNL     1      -9.012  10.124  68.529  1.00  0.00    -0.127 A  
HETATM   12  O   UNL     1      -6.088   9.208  68.721  1.00  0.00    -0.044 OA 
HETATM   13  O   UNL     1      -7.163   7.225  68.884  1.00  0.00    -0.084 OA 
HETATM   14  I   UNL     1      -7.739   7.893  72.140  1.00  0.00    -0.165 I  
HETATM   15  C   UNL     1      -8.369   9.198  69.383  1.00  0.00    -0.124 A  
HETATM   16  I   UNL     1      -8.206  10.427  66.550  1.00  0.00    -0.147 I  
HETATM   17  C   UNL     1      -8.940   8.886  70.631  1.00  0.00    -0.199 A  
HETATM   18  C   UNL     1      -7.170   8.439  68.956  1.00  0.00    -0.070 C  
BRANCH   9  19
HETATM   19  C   UNL     1     -10.743  11.907  68.121  1.00  0.00    -0.215 C  
HETATM   20  H   UNL     1     -10.537  13.832  67.841  1.00  0.00     0.000 HD 
HETATM   21  O   UNL     1     -10.197  13.113  68.360  1.00  0.00    -0.243 OA 
BRANCH  19  22
HETATM   22  N   UNL     1     -11.706  11.760  67.276  1.00  0.00    -0.597 NA 
HETATM   23  H   UNL     1     -12.521  11.183  67.481  1.00  0.00     0.000 HD 
BRANCH  22  24
HETATM   24  C   UNL     1     -11.558  12.479  65.992  1.00  0.00    -0.406 C  
BRANCH  24  25
HETATM   25  C   UNL     1     -12.582  13.620  65.941  1.00  0.00    -0.425 C  
HETATM   26  O   UNL     1     -12.997  13.850  64.597  1.00  0.00    -0.654 OA 
HETATM   27  H   UNL     1     -13.631  14.557  64.565  1.00  0.00     0.000 HD 
ENDBRANCH  24  25
ENDBRANCH  22  24
ENDBRANCH  19  22
ENDBRANCH   9  19
ENDBRANCH   5   7
ENDBRANCH   2   5
TORSDOF 6
ENDMDL
MODEL       46
REMARK 921   NORMALIZED FREE ENERGY PREDICTED BY IDOCK:   -4.25 KCAL/MOL
REMARK 922        TOTAL FREE ENERGY PREDICTED BY IDOCK:   -6.26 KCAL/MOL
REMARK 923 INTER-LIGAND FREE ENERGY PREDICTED BY IDOCK:   -5.92 KCAL/MOL
REMARK 924 INTRA-LIGAND FREE ENERGY PREDICTED BY IDOCK:   -0.34 KCAL/MOL
REMARK 927      BINDING AFFINITY PREDICTED BY RF-SCORE:    0.00 PKD
ROOT
HETATM    1  C   UNL     1     -11.990  14.715  67.707  1.00  0.00    -0.302 C  
HETATM    2  C   UNL     1     -11.705  13.280  68.026  1.00  0.00    -0.359 C  
HETATM    3  H   UNL     1     -12.051  11.492  67.357  1.00  0.00     0.000 HD 
HETATM    4  O   UNL     1     -12.231  12.402  67.154  1.00  0.00    -0.492 OA 
ENDROOT
BRANCH   2   5
HETATM    5  N   UNL     1     -10.997  12.935  69.053  1.00  0.00    -0.371 NA 
HETATM    6  H   UNL     1     -10.470  13.641  69.566  1.00  0.00     0.000 HD 
BRANCH   5   7
HETATM    7  C   UNL     1     -10.951  11.581  69.468  1.00  0.00    -0.125 A  
HETATM    8  C   UNL     1      -9.945  10.710  68.959  1.00  0.00    -0.213 A  
HETATM    9  C   UNL     1      -9.889   9.339  69.329  1.00  0.00    -0.172 A  
HETATM   10  I   UNL     1      -8.454  11.596  67.684  1.00  0.00    -0.170 I  
HETATM   11  C   UNL     1     -10.913   8.829  70.170  1.00  0.00    -0.223 A  
HETATM   12  O   UNL     1     -12.625   8.592  72.707  1.00  0.00    -0.307 OA 
HETATM   13  O   UNL     1     -14.158   9.366  71.235  1.00  0.00    -0.210 OA 
HETATM   14  I   UNL     1     -12.921  12.470  71.701  1.00  0.00     0.013 I  
HETATM   15  C   UNL     1     -11.866   9.699  70.748  1.00  0.00    -0.378 A  
HETATM   16  I   UNL     1     -11.130   6.706  70.495  1.00  0.00    -0.440 I  
HETATM   17  C   UNL     1     -11.825  11.075  70.454  1.00  0.00    -0.367 A  
HETATM   18  C   UNL     1     -12.998   9.194  71.561  1.00  0.00    -0.346 C  
BRANCH   9  19
HETATM   19  C   UNL     1      -8.766   8.439  68.913  1.00  0.00    -0.136 C  
HETATM   20  H   UNL     1      -7.117   7.628  69.584  1.00  0.00     0.000 HD 
HETATM   21  O   UNL     1      -7.829   8.198  69.848  1.00  0.00    -0.099 OA 
BRANCH  19  22
HETATM   22  N   UNL     1      -8.662   7.962  67.719  1.00  0.00    -0.127 NA 
HETATM   23  H   UNL     1      -7.758   7.737  67.305  1.00  0.00     0.000 HD 
BRANCH  22  24
HETATM   24  C   UNL     1      -9.931   7.761  66.987  1.00  0.00    -0.244 C  
BRANCH  24  25
HETATM   25  C   UNL     1     -10.144   6.259  66.765  1.00  0.00    -0.180 C  
HETATM   26  O   UNL     1     -11.482   6.008  66.339  1.00  0.00    -0.668 OA 
HETATM   27  H   UNL     1     -11.614   5.078  66.202  1.00  0.00     0.000 HD 
ENDBRANCH  24  25
ENDBRANCH  22  24
ENDBRANCH  19  22
ENDBRANCH   9  19
ENDBRANCH   5   7
ENDBRANCH   2   5
TORSDOF 6
ENDMDL
MODEL       47
REMARK 921   NORMALIZED FREE ENERGY PREDICTED BY IDOCK:   -4.23 KCAL/MOL
REMARK 922        TOTAL FREE ENERGY PREDICTED BY IDOCK:   -6.23 KCAL/MOL
REMARK 923 INTER-LIGAND FREE ENERGY PREDICTED BY IDOCK:   -5.63 KCAL/MOL
REMARK 924 INTRA-LIGAND FREE ENERGY PREDICTED BY IDOCK:   -0.60 KCAL/MOL
REMARK 927      BINDING AFFINITY PREDICTED BY RF-SCORE:    0.00 PKD
ROOT
HETATM    1  C   UNL     1     -12.164  12.060  63.459  1.00  0.00    -0.653 C  
HETATM    2  C   UNL     1     -10.987  12.452  64.297  1.00  0.00    -0.351 C  
HETATM    3  H   UNL     1      -9.056  12.611  64.201  1.00  0.00     0.000 HD 
HETATM    4  O   UNL     1      -9.803  12.362  63.669  1.00  0.00    -0.312 OA 
ENDROOT
BRANCH   2   5
HETATM    5  N   UNL     1     -11.123  12.855  65.520  1.00  0.00    -0.275 NA 
HETATM    6  H   UNL     1     -12.032  12.790  65.978  1.00  0.00     0.000 HD 
BRANCH   5   7
HETATM    7  C   UNL     1     -10.014  13.385  66.225  1.00  0.00    -0.296 A  
HETATM    8  C   UNL     1      -9.744  14.784  66.188  1.00  0.00    -0.312 A  
HETATM    9  C   UNL     1      -8.624  15.345  66.857  1.00  0.00    -0.291 A  
HETATM   10  I   UNL     1     -11.175  16.017  65.157  1.00  0.00     0.111 I  
HETATM   11  C   UNL     1      -7.723  14.463  67.511  1.00  0.00    -0.192 A  
HETATM   12  O   UNL     1      -6.823  12.336  69.534  1.00  0.00    -0.054 OA 
HETATM   13  O   UNL     1      -6.604  11.193  67.594  1.00  0.00    -0.065 OA 
HETATM   14  I   UNL     1      -9.928  10.622  67.645  1.00  0.00    -0.231 I  
HETATM   15  C   UNL     1      -8.023  13.086  67.626  1.00  0.00    -0.169 A  
HETATM   16  I   UNL     1      -5.815  15.162  68.239  1.00  0.00    -0.158 I  
HETATM   17  C   UNL     1      -9.203  12.578  67.052  1.00  0.00    -0.214 A  
HETATM   18  C   UNL     1      -7.070  12.123  68.226  1.00  0.00    -0.084 C  
BRANCH   9  19
HETATM   19  C   UNL     1      -8.395  16.823  66.944  1.00  0.00    -0.209 C  
HETATM   20  H   UNL     1      -7.464  18.289  66.043  1.00  0.00     0.000 HD 
HETATM   21  O   UNL     1      -7.609  17.352  65.988  1.00  0.00    -0.407 OA 
BRANCH  19  22
HETATM   22  N   UNL     1      -8.870  17.545  67.900  1.00  0.00    -0.242 NA 
HETATM   23  H   UNL     1      -9.202  17.135  68.773  1.00  0.00     0.000 HD 
BRANCH  22  24
HETATM   24  C   UNL     1      -8.905  19.003  67.657  1.00  0.00    -0.289 C  
BRANCH  24  25
HETATM   25  C   UNL     1     -10.345  19.420  67.336  1.00  0.00    -0.446 C  
HETATM   26  O   UNL     1     -10.485  19.678  65.941  1.00  0.00    -0.494 OA 
HETATM   27  H   UNL     1     -11.377  19.935  65.742  1.00  0.00     0.000 HD 
ENDBRANCH  24  25
ENDBRANCH  22  24
ENDBRANCH  19  22
ENDBRANCH   9  19
ENDBRANCH   5   7
ENDBRANCH   2   5
TORSDOF 6
ENDMDL
MODEL       48
REMARK 921   NORMALIZED FREE ENERGY PREDICTED BY IDOCK:   -4.23 KCAL/MOL
REMARK 922        TOTAL FREE ENERGY PREDICTED BY IDOCK:   -6.23 KCAL/MOL
REMARK 923 INTER-LIGAND FREE ENERGY PREDICTED BY IDOCK:   -5.83 KCAL/MOL
REMARK 924 INTRA-LIGAND FREE ENERGY PREDICTED BY IDOCK:   -0.40 KCAL/MOL
REMARK 927      BINDING AFFINITY PREDICTED BY RF-SCORE:    0.00 PKD
ROOT
HETATM    1  C   UNL     1     -12.885  14.026  65.616  1.00  0.00    -0.442 C  
HETATM    2  C   UNL     1     -12.083  14.762  64.589  1.00  0.00    -0.427 C  
HETATM    3  H   UNL     1     -12.260  16.166  63.262  1.00  0.00     0.000 HD 
HETATM    4  O   UNL     1     -12.770  15.700  63.914  1.00  0.00    -0.697 OA 
ENDROOT
BRANCH   2   5
HETATM    5  N   UNL     1     -10.829  14.510  64.392  1.00  0.00    -0.609 NA 
HETATM    6  H   UNL     1     -10.373  14.836  63.540  1.00  0.00     0.000 HD 
BRANCH   5   7
HETATM    7  C   UNL     1     -10.085  13.784  65.355  1.00  0.00    -0.286 A  
HETATM    8  C   UNL     1      -9.914  12.376  65.215  1.00  0.00    -0.215 A  
HETATM    9  C   UNL     1      -9.202  11.612  66.179  1.00  0.00    -0.228 A  
HETATM   10  I   UNL     1     -10.697  11.482  63.421  1.00  0.00    -0.184 I  
HETATM   11  C   UNL     1      -8.721  12.275  67.338  1.00  0.00    -0.180 A  
HETATM   12  O   UNL     1      -7.081  14.309  68.951  1.00  0.00    -0.103 OA 
HETATM   13  O   UNL     1      -9.180  15.057  69.339  1.00  0.00    -0.188 OA 
HETATM   14  I   UNL     1      -9.113  16.572  66.325  1.00  0.00    -0.249 I  
HETATM   15  C   UNL     1      -8.811  13.683  67.448  1.00  0.00    -0.221 A  
HETATM   16  I   UNL     1      -7.955  11.160  69.020  1.00  0.00     0.109 I  
HETATM   17  C   UNL     1      -9.420  14.427  66.421  1.00  0.00    -0.285 A  
HETATM   18  C   UNL     1      -8.398  14.401  68.678  1.00  0.00    -0.147 C  
BRANCH   9  19
HETATM   19  C   UNL     1      -8.895  10.159  65.986  1.00  0.00    -0.143 C  
HETATM   20  H   UNL     1      -7.518   8.958  65.285  1.00  0.00     0.000 HD 
HETATM   21  O   UNL     1      -7.713   9.880  65.407  1.00  0.00    -0.118 OA 
BRANCH  19  22
HETATM   22  N   UNL     1      -9.727   9.225  66.298  1.00  0.00    -0.250 NA 
HETATM   23  H   UNL     1     -10.646   9.430  66.691  1.00  0.00     0.000 HD 
BRANCH  22  24
HETATM   24  C   UNL     1      -9.271   7.840  66.055  1.00  0.00    -0.082 C  
BRANCH  24  25
HETATM   25  C   UNL     1      -9.954   6.907  67.062  1.00  0.00    -0.197 C  
HETATM   26  O   UNL     1     -11.130   6.339  66.489  1.00  0.00    -0.687 OA 
HETATM   27  H   UNL     1     -11.553   5.761  67.113  1.00  0.00     0.000 HD 
ENDBRANCH  24  25
ENDBRANCH  22  24
ENDBRANCH  19  22
ENDBRANCH   9  19
ENDBRANCH   5   7
ENDBRANCH   2   5
TORSDOF 6
ENDMDL
MODEL       49
REMARK 921   NORMALIZED FREE ENERGY PREDICTED BY IDOCK:   -4.20 KCAL/MOL
REMARK 922        TOTAL FREE ENERGY PREDICTED BY IDOCK:   -6.19 KCAL/MOL
REMARK 923 INTER-LIGAND FREE ENERGY PREDICTED BY IDOCK:   -5.83 KCAL/MOL
REMARK 924 INTRA-LIGAND FREE ENERGY PREDICTED BY IDOCK:   -0.37 KCAL/MOL
REMARK 927      BINDING AFFINITY PREDICTED BY RF-SCORE:    0.00 PKD
ROOT
HETATM    1  C   UNL     1      -5.468  15.940  67.447  1.00  0.00    -0.046 C  
HETATM    2  C   UNL     1      -6.100  14.672  67.928  1.00  0.00    -0.150 C  
HETATM    3  H   UNL     1      -6.388  13.656  69.556  1.00  0.00     0.000 HD 
HETATM    4  O   UNL     1      -5.987  14.461  69.251  1.00  0.00    -0.092 OA 
ENDROOT
BRANCH   2   5
HETATM    5  N   UNL     1      -6.713  13.865  67.123  1.00  0.00    -0.398 NA 
HETATM    6  H   UNL     1      -6.384  13.759  66.163  1.00  0.00     0.000 HD 
BRANCH   5   7
HETATM    7  C   UNL     1      -7.839  13.129  67.567  1.00  0.00    -0.172 A  
HETATM    8  C   UNL     1      -9.153  13.644  67.372  1.00  0.00    -0.222 A  
HETATM    9  C   UNL     1     -10.303  12.948  67.833  1.00  0.00    -0.233 A  
HETATM   10  I   UNL     1      -9.318  15.475  66.252  1.00  0.00    -0.342 I  
HETATM   11  C   UNL     1     -10.111  11.749  68.568  1.00  0.00    -0.207 A  
HETATM   12  O   UNL     1      -9.178   8.868  69.078  1.00  0.00    -0.140 OA 
HETATM   13  O   UNL     1      -7.827  10.005  70.492  1.00  0.00    -0.247 OA 
HETATM   14  I   UNL     1      -5.848  10.762  67.866  1.00  0.00    -0.042 I  
HETATM   15  C   UNL     1      -8.820  11.185  68.697  1.00  0.00    -0.155 A  
HETATM   16  I   UNL     1     -11.748  10.814  69.619  1.00  0.00    -0.408 I  
HETATM   17  C   UNL     1      -7.712  11.840  68.127  1.00  0.00    -0.124 A  
HETATM   18  C   UNL     1      -8.567   9.983  69.527  1.00  0.00    -0.186 C  
BRANCH   9  19
HETATM   19  C   UNL     1     -11.697  13.401  67.522  1.00  0.00    -0.366 C  
HETATM   20  H   UNL     1     -13.115  13.206  66.189  1.00  0.00     0.000 HD 
HETATM   21  O   UNL     1     -12.231  12.919  66.386  1.00  0.00    -0.453 OA 
BRANCH  19  22
HETATM   22  N   UNL     1     -12.335  14.244  68.260  1.00  0.00    -0.580 NA 
HETATM   23  H   UNL     1     -13.311  14.482  68.087  1.00  0.00     0.000 HD 
BRANCH  22  24
HETATM   24  C   UNL     1     -11.567  14.845  69.372  1.00  0.00    -0.309 C  
BRANCH  24  25
HETATM   25  C   UNL     1     -12.279  14.532  70.694  1.00  0.00    -0.331 C  
HETATM   26  O   UNL     1     -13.666  14.850  70.594  1.00  0.00    -0.623 OA 
HETATM   27  H   UNL     1     -14.107  14.656  71.412  1.00  0.00     0.000 HD 
ENDBRANCH  24  25
ENDBRANCH  22  24
ENDBRANCH  19  22
ENDBRANCH   9  19
ENDBRANCH   5   7
ENDBRANCH   2   5
TORSDOF 6
ENDMDL
MODEL       50
REMARK 921   NORMALIZED FREE ENERGY PREDICTED BY IDOCK:   -4.18 KCAL/MOL
REMARK 922        TOTAL FREE ENERGY PREDICTED BY IDOCK:   -6.17 KCAL/MOL
REMARK 923 INTER-LIGAND FREE ENERGY PREDICTED BY IDOCK:   -6.43 KCAL/MOL
REMARK 924 INTRA-LIGAND FREE ENERGY PREDICTED BY IDOCK:    0.26 KCAL/MOL
REMARK 927      BINDING AFFINITY PREDICTED BY RF-SCORE:    0.00 PKD
ROOT
HETATM    1  C   UNL     1      -9.185   8.969  71.069  1.00  0.00    -0.331 C  
HETATM    2  C   UNL     1     -10.646   8.710  70.867  1.00  0.00    -0.214 C  
HETATM    3  H   UNL     1     -12.329   8.748  71.831  1.00  0.00     0.000 HD 
HETATM    4  O   UNL     1     -11.402   8.912  71.959  1.00  0.00    -0.353 OA 
ENDROOT
BRANCH   2   5
HETATM    5  N   UNL     1     -11.123   8.338  69.723  1.00  0.00    -0.431 NA 
HETATM    6  H   UNL     1     -11.972   7.775  69.686  1.00  0.00     0.000 HD 
BRANCH   5   7
HETATM    7  C   UNL     1     -10.469   8.708  68.521  1.00  0.00    -0.172 A  
HETATM    8  C   UNL     1     -10.597  10.034  68.016  1.00  0.00    -0.235 A  
HETATM    9  C   UNL     1      -9.982  10.430  66.798  1.00  0.00    -0.256 A  
HETATM   10  I   UNL     1     -11.680  11.434  69.240  1.00  0.00    -0.441 I  
HETATM   11  C   UNL     1      -9.288   9.446  66.046  1.00  0.00    -0.220 A  
HETATM   12  O   UNL     1      -7.152   7.316  65.473  1.00  0.00    -0.062 OA 
HETATM   13  O   UNL     1      -9.021   6.042  65.504  1.00  0.00    -0.128 OA 
HETATM   14  I   UNL     1      -8.882   6.059  68.875  1.00  0.00    -0.121 I  
HETATM   15  C   UNL     1      -9.084   8.151  66.576  1.00  0.00    -0.216 A  
HETATM   16  I   UNL     1      -8.636   9.845  64.027  1.00  0.00    -0.267 I  
HETATM   17  C   UNL     1      -9.607   7.822  67.840  1.00  0.00    -0.146 A  
HETATM   18  C   UNL     1      -8.441   7.073  65.786  1.00  0.00    -0.149 C  
BRANCH   9  19
HETATM   19  C   UNL     1      -9.991  11.849  66.316  1.00  0.00    -0.220 C  
HETATM   20  H   UNL     1      -8.907  13.478  66.315  1.00  0.00     0.000 HD 
HETATM   21  O   UNL     1      -8.902  12.579  66.620  1.00  0.00    -0.207 OA 
BRANCH  19  22
HETATM   22  N   UNL     1     -10.996  12.367  65.698  1.00  0.00    -0.277 NA 
HETATM   23  H   UNL     1     -11.955  12.228  66.015  1.00  0.00     0.000 HD 
BRANCH  22  24
HETATM   24  C   UNL     1     -10.676  13.174  64.500  1.00  0.00    -0.398 C  
BRANCH  24  25
HETATM   25  C   UNL     1     -11.789  12.985  63.462  1.00  0.00    -0.516 C  
HETATM   26  O   UNL     1     -12.602  14.154  63.393  1.00  0.00    -1.070 OA 
HETATM   27  H   UNL     1     -13.291  14.037  62.750  1.00  0.00     0.000 HD 
ENDBRANCH  24  25
ENDBRANCH  22  24
ENDBRANCH  19  22
ENDBRANCH   9  19
ENDBRANCH   5   7
ENDBRANCH   2   5
TORSDOF 6
ENDMDL
MODEL       51
REMARK 921   NORMALIZED FREE ENERGY PREDICTED BY IDOCK:   -4.17 KCAL/MOL
REMARK 922        TOTAL FREE ENERGY PREDICTED BY IDOCK:   -6.16 KCAL/MOL
REMARK 923 INTER-LIGAND FREE ENERGY PREDICTED BY IDOCK:   -6.12 KCAL/MOL
REMARK 924 INTRA-LIGAND FREE ENERGY PREDICTED BY IDOCK:   -0.04 KCAL/MOL
REMARK 927      BINDING AFFINITY PREDICTED BY RF-SCORE:    0.00 PKD
ROOT
HETATM    1  C   UNL     1      -6.742   6.191  66.963  1.00  0.00    -0.061 C  
HETATM    2  C   UNL     1      -7.990   6.704  67.610  1.00  0.00    -0.115 C  
HETATM    3  H   UNL     1      -9.911   6.759  67.345  1.00  0.00     0.000 HD 
HETATM    4  O   UNL     1      -9.119   6.433  66.934  1.00  0.00    -0.126 OA 
ENDROOT
BRANCH   2   5
HETATM    5  N   UNL     1      -7.963   7.343  68.736  1.00  0.00    -0.121 NA 
HETATM    6  H   UNL     1      -7.088   7.425  69.252  1.00  0.00     0.000 HD 
BRANCH   5   7
HETATM    7  C   UNL     1      -9.145   7.928  69.255  1.00  0.00    -0.148 A  
HETATM    8  C   UNL     1      -9.535   9.236  68.847  1.00  0.00    -0.154 A  
HETATM    9  C   UNL     1     -10.696   9.866  69.371  1.00  0.00    -0.255 A  
HETATM   10  I   UNL     1      -8.337  10.170  67.322  1.00  0.00    -0.120 I  
HETATM   11  C   UNL     1     -11.430   9.186  70.378  1.00  0.00    -0.194 A  
HETATM   12  O   UNL     1     -13.103   6.927  71.614  1.00  0.00    -0.365 OA 
HETATM   13  O   UNL     1     -11.197   6.749  72.820  1.00  0.00    -0.262 OA 
HETATM   14  I   UNL     1      -9.819   5.060  70.245  1.00  0.00    -0.332 I  
HETATM   15  C   UNL     1     -11.103   7.856  70.730  1.00  0.00    -0.264 A  
HETATM   16  I   UNL     1     -12.981  10.191  71.493  1.00  0.00    -0.547 I  
HETATM   17  C   UNL     1     -10.015   7.216  70.107  1.00  0.00    -0.186 A  
HETATM   18  C   UNL     1     -11.791   7.145  71.834  1.00  0.00    -0.300 C  
BRANCH   9  19
HETATM   19  C   UNL     1     -11.198  11.182  68.860  1.00  0.00    -0.256 C  
HETATM   20  H   UNL     1     -12.339  11.958  67.474  1.00  0.00     0.000 HD 
HETATM   21  O   UNL     1     -12.021  11.124  67.797  1.00  0.00    -0.630 OA 
BRANCH  19  22
HETATM   22  N   UNL     1     -10.828  12.310  69.363  1.00  0.00    -0.457 NA 
HETATM   23  H   UNL     1      -9.921  12.428  69.815  1.00  0.00     0.000 HD 
BRANCH  22  24
HETATM   24  C   UNL     1     -11.795  13.422  69.246  1.00  0.00    -0.334 C  
BRANCH  24  25
HETATM   25  C   UNL     1     -11.344  14.356  68.116  1.00  0.00    -0.294 C  
HETATM   26  O   UNL     1     -12.358  14.447  67.118  1.00  0.00    -0.598 OA 
HETATM   27  H   UNL     1     -12.080  15.025  66.418  1.00  0.00     0.000 HD 
ENDBRANCH  24  25
ENDBRANCH  22  24
ENDBRANCH  19  22
ENDBRANCH   9  19
ENDBRANCH   5   7
ENDBRANCH   2   5
TORSDOF 6
ENDMDL
MODEL       52
REMARK 921   NORMALIZED FREE ENERGY PREDICTED BY IDOCK:   -4.16 KCAL/MOL
REMARK 922        TOTAL FREE ENERGY PREDICTED BY IDOCK:   -6.14 KCAL/MOL
REMARK 923 INTER-LIGAND FREE ENERGY PREDICTED BY IDOCK:   -5.60 KCAL/MOL
REMARK 924 INTRA-LIGAND FREE ENERGY PREDICTED BY IDOCK:   -0.54 KCAL/MOL
REMARK 927      BINDING AFFINITY PREDICTED BY RF-SCORE:    0.00 PKD
ROOT
HETATM    1  C   UNL     1      -9.518   8.748  71.807  1.00  0.00    -0.363 C  
HETATM    2  C   UNL     1     -10.936   8.775  71.326  1.00  0.00    -0.275 C  
HETATM    3  H   UNL     1     -12.704   9.349  71.881  1.00  0.00     0.000 HD 
HETATM    4  O   UNL     1     -11.804   9.332  72.187  1.00  0.00    -0.328 OA 
ENDROOT
BRANCH   2   5
HETATM    5  N   UNL     1     -11.273   8.308  70.167  1.00  0.00    -0.411 NA 
HETATM    6  H   UNL     1     -12.120   7.748  70.072  1.00  0.00     0.000 HD 
BRANCH   5   7
HETATM    7  C   UNL     1     -10.472   8.572  69.029  1.00  0.00    -0.200 A  
HETATM    8  C   UNL     1      -9.831   7.502  68.340  1.00  0.00    -0.164 A  
HETATM    9  C   UNL     1      -8.995   7.734  67.214  1.00  0.00    -0.136 A  
HETATM   10  I   UNL     1     -10.276   5.510  69.023  1.00  0.00    -0.256 I  
HETATM   11  C   UNL     1      -8.747   9.077  66.829  1.00  0.00    -0.123 A  
HETATM   12  O   UNL     1      -9.433  11.911  65.865  1.00  0.00    -0.232 OA 
HETATM   13  O   UNL     1      -8.738  12.340  67.974  1.00  0.00    -0.166 OA 
HETATM   14  I   UNL     1     -11.779  11.392  69.085  1.00  0.00    -0.423 I  
HETATM   15  C   UNL     1      -9.441  10.142  67.450  1.00  0.00    -0.175 A  
HETATM   16  I   UNL     1      -7.220   9.555  65.380  1.00  0.00    -0.110 I  
HETATM   17  C   UNL     1     -10.353   9.870  68.487  1.00  0.00    -0.196 A  
HETATM   18  C   UNL     1      -9.147  11.560  67.135  1.00  0.00    -0.167 C  
BRANCH   9  19
HETATM   19  C   UNL     1      -8.421   6.619  66.396  1.00  0.00    -0.125 C  
HETATM   20  H   UNL     1      -6.839   5.477  66.249  1.00  0.00     0.000 HD 
HETATM   21  O   UNL     1      -7.203   6.184  66.768  1.00  0.00    -0.071 OA 
BRANCH  19  22
HETATM   22  N   UNL     1      -9.020   6.134  65.362  1.00  0.00    -0.362 NA 
HETATM   23  H   UNL     1      -9.477   6.732  64.673  1.00  0.00     0.000 HD 
BRANCH  22  24
HETATM   24  C   UNL     1      -9.006   4.661  65.234  1.00  0.00    -0.148 C  
BRANCH  24  25
HETATM   25  C   UNL     1     -10.348   4.200  64.653  1.00  0.00    -0.175 C  
HETATM   26  O   UNL     1     -11.426   4.724  65.425  1.00  0.00    -0.990 OA 
HETATM   27  H   UNL     1     -12.257   4.438  65.065  1.00  0.00     0.000 HD 
ENDBRANCH  24  25
ENDBRANCH  22  24
ENDBRANCH  19  22
ENDBRANCH   9  19
ENDBRANCH   5   7
ENDBRANCH   2   5
TORSDOF 6
ENDMDL
MODEL       53
REMARK 921   NORMALIZED FREE ENERGY PREDICTED BY IDOCK:   -4.14 KCAL/MOL
REMARK 922        TOTAL FREE ENERGY PREDICTED BY IDOCK:   -6.11 KCAL/MOL
REMARK 923 INTER-LIGAND FREE ENERGY PREDICTED BY IDOCK:   -5.88 KCAL/MOL
REMARK 924 INTRA-LIGAND FREE ENERGY PREDICTED BY IDOCK:   -0.23 KCAL/MOL
REMARK 927      BINDING AFFINITY PREDICTED BY RF-SCORE:    0.00 PKD
ROOT
HETATM    1  C   UNL     1     -12.358  12.858  70.563  1.00  0.00    -0.362 C  
HETATM    2  C   UNL     1     -11.834  11.948  69.497  1.00  0.00    -0.331 C  
HETATM    3  H   UNL     1     -12.349  10.393  68.457  1.00  0.00     0.000 HD 
HETATM    4  O   UNL     1     -12.682  10.971  69.134  1.00  0.00    -0.277 OA 
ENDROOT
BRANCH   2   5
HETATM    5  N   UNL     1     -10.663  12.115  68.971  1.00  0.00    -0.375 NA 
HETATM    6  H   UNL     1      -9.944  12.623  69.484  1.00  0.00     0.000 HD 
BRANCH   5   7
HETATM    7  C   UNL     1     -10.376  11.594  67.684  1.00  0.00    -0.189 A  
HETATM    8  C   UNL     1      -9.747  10.323  67.550  1.00  0.00    -0.169 A  
HETATM    9  C   UNL     1      -9.417   9.786  66.277  1.00  0.00    -0.250 A  
HETATM   10  I   UNL     1      -9.417   9.212  69.363  1.00  0.00    -0.194 I  
HETATM   11  C   UNL     1      -9.662  10.583  65.128  1.00  0.00    -0.282 A  
HETATM   12  O   UNL     1     -11.327  12.182  63.103  1.00  0.00    -0.343 OA 
HETATM   13  O   UNL     1     -10.111  13.838  64.050  1.00  0.00     0.007 OA 
HETATM   14  I   UNL     1     -12.267  13.832  66.644  1.00  0.00    -0.204 I  
HETATM   15  C   UNL     1     -10.360  11.808  65.241  1.00  0.00    -0.317 A  
HETATM   16  I   UNL     1      -8.872  10.026  63.198  1.00  0.00    -0.315 I  
HETATM   17  C   UNL     1     -10.779  12.259  66.506  1.00  0.00    -0.246 A  
HETATM   18  C   UNL     1     -10.559  12.707  64.079  1.00  0.00    -0.427 C  
BRANCH   9  19
HETATM   19  C   UNL     1      -8.878   8.398  66.104  1.00  0.00    -0.165 C  
HETATM   20  H   UNL     1      -7.200   7.393  66.082  1.00  0.00     0.000 HD 
HETATM   21  O   UNL     1      -7.542   8.272  66.191  1.00  0.00    -0.083 OA 
BRANCH  19  22
HETATM   22  N   UNL     1      -9.633   7.388  65.833  1.00  0.00    -0.397 NA 
HETATM   23  H   UNL     1     -10.465   7.477  65.250  1.00  0.00     0.000 HD 
BRANCH  22  24
HETATM   24  C   UNL     1      -9.220   6.094  66.417  1.00  0.00    -0.152 C  
BRANCH  24  25
HETATM   25  C   UNL     1     -10.112   5.788  67.626  1.00  0.00    -0.173 C  
HETATM   26  O   UNL     1     -11.444   6.233  67.382  1.00  0.00    -0.640 OA 
HETATM   27  H   UNL     1     -11.997   6.043  68.130  1.00  0.00     0.000 HD 
ENDBRANCH  24  25
ENDBRANCH  22  24
ENDBRANCH  19  22
ENDBRANCH   9  19
ENDBRANCH   5   7
ENDBRANCH   2   5
TORSDOF 6
ENDMDL
MODEL       54
REMARK 921   NORMALIZED FREE ENERGY PREDICTED BY IDOCK:   -4.13 KCAL/MOL
REMARK 922        TOTAL FREE ENERGY PREDICTED BY IDOCK:   -6.10 KCAL/MOL
REMARK 923 INTER-LIGAND FREE ENERGY PREDICTED BY IDOCK:   -5.71 KCAL/MOL
REMARK 924 INTRA-LIGAND FREE ENERGY PREDICTED BY IDOCK:   -0.39 KCAL/MOL
REMARK 927      BINDING AFFINITY PREDICTED BY RF-SCORE:    0.00 PKD
ROOT
HETATM    1  C   UNL     1     -12.846  11.727  63.774  1.00  0.00    -0.302 C  
HETATM    2  C   UNL     1     -12.044  12.932  63.391  1.00  0.00    -0.530 C  
HETATM    3  H   UNL     1     -12.270  14.759  62.779  1.00  0.00     0.000 HD 
HETATM    4  O   UNL     1     -12.779  13.994  63.023  1.00  0.00    -0.586 OA 
ENDROOT
BRANCH   2   5
HETATM    5  N   UNL     1     -10.751  12.933  63.432  1.00  0.00    -0.477 NA 
HETATM    6  H   UNL     1     -10.217  13.235  62.617  1.00  0.00     0.000 HD 
BRANCH   5   7
HETATM    7  C   UNL     1     -10.072  12.515  64.604  1.00  0.00    -0.233 A  
HETATM    8  C   UNL     1      -9.349  11.288  64.614  1.00  0.00    -0.135 A  
HETATM    9  C   UNL     1      -8.683  10.824  65.781  1.00  0.00    -0.194 A  
HETATM   10  I   UNL     1      -9.227  10.223  62.748  1.00  0.00    -0.288 I  
HETATM   11  C   UNL     1      -8.816  11.581  66.974  1.00  0.00    -0.173 A  
HETATM   12  O   UNL     1      -8.562  14.033  68.805  1.00  0.00    -0.133 OA 
HETATM   13  O   UNL     1     -10.809  13.902  68.584  1.00  0.00    -0.248 OA 
HETATM   14  I   UNL     1     -10.525  15.428  65.589  1.00  0.00    -0.463 I  
HETATM   15  C   UNL     1      -9.459  12.841  66.956  1.00  0.00    -0.233 A  
HETATM   16  I   UNL     1      -8.161  10.789  68.872  1.00  0.00    -0.081 I  
HETATM   17  C   UNL     1     -10.008  13.328  65.756  1.00  0.00    -0.251 A  
HETATM   18  C   UNL     1      -9.692  13.620  68.196  1.00  0.00    -0.229 C  
BRANCH   9  19
HETATM   19  C   UNL     1      -7.809   9.607  65.778  1.00  0.00    -0.106 C  
HETATM   20  H   UNL     1      -5.929   9.066  65.793  1.00  0.00     0.000 HD 
HETATM   21  O   UNL     1      -6.483   9.837  65.794  1.00  0.00    -0.075 OA 
BRANCH  19  22
HETATM   22  N   UNL     1      -8.283   8.410  65.708  1.00  0.00    -0.123 NA 
HETATM   23  H   UNL     1      -8.347   7.906  64.824  1.00  0.00     0.000 HD 
BRANCH  22  24
HETATM   24  C   UNL     1      -8.728   7.812  66.985  1.00  0.00    -0.129 C  
BRANCH  24  25
HETATM   25  C   UNL     1     -10.227   7.504  66.894  1.00  0.00    -0.289 C  
HETATM   26  O   UNL     1     -10.989   8.652  67.263  1.00  0.00    -0.434 OA 
HETATM   27  H   UNL     1     -11.918   8.461  67.207  1.00  0.00     0.000 HD 
ENDBRANCH  24  25
ENDBRANCH  22  24
ENDBRANCH  19  22
ENDBRANCH   9  19
ENDBRANCH   5   7
ENDBRANCH   2   5
TORSDOF 6
ENDMDL
MODEL       55
REMARK 921   NORMALIZED FREE ENERGY PREDICTED BY IDOCK:   -4.12 KCAL/MOL
REMARK 922        TOTAL FREE ENERGY PREDICTED BY IDOCK:   -6.08 KCAL/MOL
REMARK 923 INTER-LIGAND FREE ENERGY PREDICTED BY IDOCK:   -5.68 KCAL/MOL
REMARK 924 INTRA-LIGAND FREE ENERGY PREDICTED BY IDOCK:   -0.40 KCAL/MOL
REMARK 927      BINDING AFFINITY PREDICTED BY RF-SCORE:    0.00 PKD
ROOT
HETATM    1  C   UNL     1     -13.562  13.926  72.364  1.00  0.00    -0.676 C  
HETATM    2  C   UNL     1     -12.565  13.690  71.272  1.00  0.00    -0.351 C  
HETATM    3  H   UNL     1     -10.811  14.273  70.682  1.00  0.00     0.000 HD 
HETATM    4  O   UNL     1     -11.443  14.422  71.376  1.00  0.00    -0.105 OA 
ENDROOT
BRANCH   2   5
HETATM    5  N   UNL     1     -12.780  12.836  70.323  1.00  0.00     0.048 NA 
HETATM    6  H   UNL     1     -13.718  12.731  69.938  1.00  0.00     0.000 HD 
BRANCH   5   7
HETATM    7  C   UNL     1     -11.718  12.047  69.817  1.00  0.00    -0.319 A  
HETATM    8  C   UNL     1     -11.547  10.705  70.263  1.00  0.00    -0.336 A  
HETATM    9  C   UNL     1     -10.474   9.896  69.800  1.00  0.00    -0.292 A  
HETATM   10  I   UNL     1     -13.053   9.929  71.590  1.00  0.00    -0.522 I  
HETATM   11  C   UNL     1      -9.519  10.483  68.929  1.00  0.00    -0.193 A  
HETATM   12  O   UNL     1      -8.488  11.861  66.387  1.00  0.00    -0.145 OA 
HETATM   13  O   UNL     1      -8.172  13.501  67.913  1.00  0.00    -0.142 OA 
HETATM   14  I   UNL     1     -11.448  14.264  67.655  1.00  0.00    -0.427 I  
HETATM   15  C   UNL     1      -9.722  11.785  68.415  1.00  0.00    -0.197 A  
HETATM   16  I   UNL     1      -7.671   9.471  68.461  1.00  0.00    -0.082 I  
HETATM   17  C   UNL     1     -10.859  12.520  68.802  1.00  0.00    -0.239 A  
HETATM   18  C   UNL     1      -8.708  12.463  67.573  1.00  0.00    -0.179 C  
BRANCH   9  19
HETATM   19  C   UNL     1     -10.352   8.445  70.150  1.00  0.00    -0.211 C  
HETATM   20  H   UNL     1     -10.700   6.657  69.437  1.00  0.00     0.000 HD 
HETATM   21  O   UNL     1     -10.778   7.577  69.215  1.00  0.00    -0.226 OA 
BRANCH  19  22
HETATM   22  N   UNL     1      -9.918   8.040  71.295  1.00  0.00    -0.172 NA 
HETATM   23  H   UNL     1      -9.475   8.674  71.960  1.00  0.00     0.000 HD 
BRANCH  22  24
HETATM   24  C   UNL     1     -10.102   6.602  71.588  1.00  0.00    -0.184 C  
BRANCH  24  25
HETATM   25  C   UNL     1     -10.280   6.421  73.100  1.00  0.00    -0.205 C  
HETATM   26  O   UNL     1     -11.404   7.171  73.557  1.00  0.00    -0.526 OA 
HETATM   27  H   UNL     1     -11.515   7.059  74.493  1.00  0.00     0.000 HD 
ENDBRANCH  24  25
ENDBRANCH  22  24
ENDBRANCH  19  22
ENDBRANCH   9  19
ENDBRANCH   5   7
ENDBRANCH   2   5
TORSDOF 6
ENDMDL
MODEL       56
REMARK 921   NORMALIZED FREE ENERGY PREDICTED BY IDOCK:   -4.08 KCAL/MOL
REMARK 922        TOTAL FREE ENERGY PREDICTED BY IDOCK:   -6.02 KCAL/MOL
REMARK 923 INTER-LIGAND FREE ENERGY PREDICTED BY IDOCK:   -5.53 KCAL/MOL
REMARK 924 INTRA-LIGAND FREE ENERGY PREDICTED BY IDOCK:   -0.49 KCAL/MOL
REMARK 927      BINDING AFFINITY PREDICTED BY RF-SCORE:    0.00 PKD
ROOT
HETATM    1  C   UNL     1     -10.378   8.527  72.123  1.00  0.00    -0.409 C  
HETATM    2  C   UNL     1     -10.215   9.091  70.745  1.00  0.00    -0.244 C  
HETATM    3  H   UNL     1      -8.835   9.630  69.492  1.00  0.00     0.000 HD 
HETATM    4  O   UNL     1      -8.938   9.272  70.366  1.00  0.00    -0.200 OA 
ENDROOT
BRANCH   2   5
HETATM    5  N   UNL     1     -11.232   9.361  69.993  1.00  0.00    -0.344 NA 
HETATM    6  H   UNL     1     -12.008   8.702  69.931  1.00  0.00     0.000 HD 
BRANCH   5   7
HETATM    7  C   UNL     1     -11.275  10.570  69.254  1.00  0.00    -0.262 A  
HETATM    8  C   UNL     1     -10.911  10.580  67.877  1.00  0.00    -0.295 A  
HETATM    9  C   UNL     1     -10.911  11.780  67.114  1.00  0.00    -0.326 A  
HETATM   10  I   UNL     1     -10.462   8.675  66.981  1.00  0.00    -0.053 I  
HETATM   11  C   UNL     1     -11.214  12.996  67.780  1.00  0.00    -0.279 A  
HETATM   12  O   UNL     1     -12.908  14.991  69.386  1.00  0.00     0.124 OA 
HETATM   13  O   UNL     1     -11.273  14.529  70.879  1.00  0.00    -0.116 OA 
HETATM   14  I   UNL     1     -12.900  11.679  71.660  1.00  0.00     0.024 I  
HETATM   15  C   UNL     1     -11.657  12.989  69.123  1.00  0.00    -0.368 A  
HETATM   16  I   UNL     1     -10.890  14.901  66.816  1.00  0.00    -0.319 I  
HETATM   17  C   UNL     1     -11.758  11.770  69.818  1.00  0.00    -0.335 A  
HETATM   18  C   UNL     1     -11.900  14.243  69.876  1.00  0.00    -0.322 C  
BRANCH   9  19
HETATM   19  C   UNL     1     -10.663  11.794  65.637  1.00  0.00    -0.280 C  
HETATM   20  H   UNL     1     -11.598  11.914  63.923  1.00  0.00     0.000 HD 
HETATM   21  O   UNL     1     -11.755  11.905  64.859  1.00  0.00    -0.290 OA 
BRANCH  19  22
HETATM   22  N   UNL     1      -9.486  11.654  65.128  1.00  0.00    -0.378 NA 
HETATM   23  H   UNL     1      -8.645  11.941  65.628  1.00  0.00     0.000 HD 
BRANCH  22  24
HETATM   24  C   UNL     1      -9.430  11.053  63.779  1.00  0.00    -0.258 C  
BRANCH  24  25
HETATM   25  C   UNL     1      -8.444   9.879  63.799  1.00  0.00    -0.181 C  
HETATM   26  O   UNL     1      -9.029   8.732  63.185  1.00  0.00    -0.420 OA 
HETATM   27  H   UNL     1      -8.418   8.005  63.197  1.00  0.00     0.000 HD 
ENDBRANCH  24  25
ENDBRANCH  22  24
ENDBRANCH  19  22
ENDBRANCH   9  19
ENDBRANCH   5   7
ENDBRANCH   2   5
TORSDOF 6
ENDMDL
MODEL       57
REMARK 921   NORMALIZED FREE ENERGY PREDICTED BY IDOCK:   -4.07 KCAL/MOL
REMARK 922        TOTAL FREE ENERGY PREDICTED BY IDOCK:   -6.02 KCAL/MOL
REMARK 923 INTER-LIGAND FREE ENERGY PREDICTED BY IDOCK:   -5.49 KCAL/MOL
REMARK 924 INTRA-LIGAND FREE ENERGY PREDICTED BY IDOCK:   -0.53 KCAL/MOL
REMARK 927      BINDING AFFINITY PREDICTED BY RF-SCORE:    0.00 PKD
ROOT
HETATM    1  C   UNL     1     -12.973  14.061  65.475  1.00  0.00    -0.353 C  
HETATM    2  C   UNL     1     -12.119  14.833  64.518  1.00  0.00    -0.446 C  
HETATM    3  H   UNL     1     -12.240  16.249  63.198  1.00  0.00     0.000 HD 
HETATM    4  O   UNL     1     -12.782  15.760  63.806  1.00  0.00    -0.582 OA 
ENDROOT
BRANCH   2   5
HETATM    5  N   UNL     1     -10.847  14.619  64.411  1.00  0.00    -0.600 NA 
HETATM    6  H   UNL     1     -10.333  15.004  63.619  1.00  0.00     0.000 HD 
BRANCH   5   7
HETATM    7  C   UNL     1     -10.166  13.853  65.389  1.00  0.00    -0.337 A  
HETATM    8  C   UNL     1     -10.000  12.449  65.211  1.00  0.00    -0.215 A  
HETATM    9  C   UNL     1      -9.351  11.645  66.187  1.00  0.00    -0.237 A  
HETATM   10  I   UNL     1     -10.689  11.623  63.347  1.00  0.00    -0.256 I  
HETATM   11  C   UNL     1      -8.929  12.264  67.392  1.00  0.00    -0.183 A  
HETATM   12  O   UNL     1      -7.364  14.224  69.163  1.00  0.00    -0.126 OA 
HETATM   13  O   UNL     1      -9.474  14.983  69.458  1.00  0.00    -0.169 OA 
HETATM   14  I   UNL     1      -9.223  16.596  66.506  1.00  0.00    -0.342 I  
HETATM   15  C   UNL     1      -9.012  13.668  67.546  1.00  0.00    -0.209 A  
HETATM   16  I   UNL     1      -8.270  11.085  69.076  1.00  0.00     0.099 I  
HETATM   17  C   UNL     1      -9.555  14.452  66.511  1.00  0.00    -0.293 A  
HETATM   18  C   UNL     1      -8.662  14.340  68.820  1.00  0.00    -0.096 C  
BRANCH   9  19
HETATM   19  C   UNL     1      -9.047  10.195  65.962  1.00  0.00    -0.154 C  
HETATM   20  H   UNL     1      -9.840   8.415  66.134  1.00  0.00     0.000 HD 
HETATM   21  O   UNL     1     -10.032   9.334  66.276  1.00  0.00    -0.269 OA 
BRANCH  19  22
HETATM   22  N   UNL     1      -7.899   9.781  65.547  1.00  0.00    -0.115 NA 
HETATM   23  H   UNL     1      -7.034  10.008  66.037  1.00  0.00     0.000 HD 
BRANCH  22  24
HETATM   24  C   UNL     1      -7.911   8.957  64.320  1.00  0.00    -0.134 C  
BRANCH  24  25
HETATM   25  C   UNL     1      -7.161   9.705  63.211  1.00  0.00    -0.109 C  
HETATM   26  O   UNL     1      -6.406  10.780  63.766  1.00  0.00    -0.368 OA 
HETATM   27  H   UNL     1      -5.942  11.244  63.079  1.00  0.00     0.000 HD 
ENDBRANCH  24  25
ENDBRANCH  22  24
ENDBRANCH  19  22
ENDBRANCH   9  19
ENDBRANCH   5   7
ENDBRANCH   2   5
TORSDOF 6
ENDMDL
MODEL       58
REMARK 921   NORMALIZED FREE ENERGY PREDICTED BY IDOCK:   -4.07 KCAL/MOL
REMARK 922        TOTAL FREE ENERGY PREDICTED BY IDOCK:   -6.01 KCAL/MOL
REMARK 923 INTER-LIGAND FREE ENERGY PREDICTED BY IDOCK:   -5.54 KCAL/MOL
REMARK 924 INTRA-LIGAND FREE ENERGY PREDICTED BY IDOCK:   -0.47 KCAL/MOL
REMARK 927      BINDING AFFINITY PREDICTED BY RF-SCORE:    0.00 PKD
ROOT
HETATM    1  C   UNL     1      -9.855  13.991  67.567  1.00  0.00    -0.236 C  
HETATM    2  C   UNL     1     -11.341  13.934  67.397  1.00  0.00    -0.326 C  
HETATM    3  H   UNL     1     -12.918  15.054  67.542  1.00  0.00     0.000 HD 
HETATM    4  O   UNL     1     -11.974  15.091  67.650  1.00  0.00    -0.277 OA 
ENDROOT
BRANCH   2   5
HETATM    5  N   UNL     1     -11.944  12.852  67.022  1.00  0.00    -0.392 NA 
HETATM    6  H   UNL     1     -12.959  12.785  67.094  1.00  0.00     0.000 HD 
BRANCH   5   7
HETATM    7  C   UNL     1     -11.201  11.759  66.511  1.00  0.00    -0.321 A  
HETATM    8  C   UNL     1     -10.847  10.673  67.363  1.00  0.00    -0.296 A  
HETATM    9  C   UNL     1     -10.076   9.576  66.892  1.00  0.00    -0.295 A  
HETATM   10  I   UNL     1     -11.627  10.724  69.368  1.00  0.00    -0.378 I  
HETATM   11  C   UNL     1      -9.595   9.619  65.557  1.00  0.00    -0.283 A  
HETATM   12  O   UNL     1      -9.772   9.744  62.494  1.00  0.00    -0.048 OA 
HETATM   13  O   UNL     1      -8.836  11.753  62.945  1.00  0.00    -0.155 OA 
HETATM   14  I   UNL     1     -11.905  12.923  63.716  1.00  0.00    -0.564 I  
HETATM   15  C   UNL     1     -10.007  10.648  64.679  1.00  0.00    -0.401 A  
HETATM   16  I   UNL     1      -8.125   8.201  64.859  1.00  0.00    -0.092 I  
HETATM   17  C   UNL     1     -10.868  11.660  65.143  1.00  0.00    -0.288 A  
HETATM   18  C   UNL     1      -9.460  10.774  63.306  1.00  0.00    -0.326 C  
BRANCH   9  19
HETATM   19  C   UNL     1      -9.806   8.364  67.729  1.00  0.00    -0.174 C  
HETATM   20  H   UNL     1     -10.538   6.602  68.164  1.00  0.00     0.000 HD 
HETATM   21  O   UNL     1     -10.709   7.371  67.633  1.00  0.00    -0.237 OA 
BRANCH  19  22
HETATM   22  N   UNL     1      -8.805   8.286  68.538  1.00  0.00    -0.137 NA 
HETATM   23  H   UNL     1      -8.293   9.113  68.845  1.00  0.00     0.000 HD 
BRANCH  22  24
HETATM   24  C   UNL     1      -8.443   6.927  68.994  1.00  0.00    -0.128 C  
BRANCH  24  25
HETATM   25  C   UNL     1      -7.611   7.039  70.278  1.00  0.00    -0.087 C  
HETATM   26  O   UNL     1      -8.206   7.977  71.171  1.00  0.00    -0.098 OA 
HETATM   27  H   UNL     1      -7.691   8.047  71.966  1.00  0.00     0.000 HD 
ENDBRANCH  24  25
ENDBRANCH  22  24
ENDBRANCH  19  22
ENDBRANCH   9  19
ENDBRANCH   5   7
ENDBRANCH   2   5
TORSDOF 6
ENDMDL
MODEL       59
REMARK 921   NORMALIZED FREE ENERGY PREDICTED BY IDOCK:   -4.05 KCAL/MOL
REMARK 922        TOTAL FREE ENERGY PREDICTED BY IDOCK:   -6.00 KCAL/MOL
REMARK 923 INTER-LIGAND FREE ENERGY PREDICTED BY IDOCK:   -5.45 KCAL/MOL
REMARK 924 INTRA-LIGAND FREE ENERGY PREDICTED BY IDOCK:   -0.54 KCAL/MOL
REMARK 927      BINDING AFFINITY PREDICTED BY RF-SCORE:    0.00 PKD
ROOT
HETATM    1  C   UNL     1      -7.600  10.118  69.930  1.00  0.00    -0.174 C  
HETATM    2  C   UNL     1      -6.653  11.256  69.705  1.00  0.00    -0.130 C  
HETATM    3  H   UNL     1      -5.376  12.362  70.658  1.00  0.00     0.000 HD 
HETATM    4  O   UNL     1      -5.977  11.640  70.800  1.00  0.00    -0.335 OA 
ENDROOT
BRANCH   2   5
HETATM    5  N   UNL     1      -6.504  11.801  68.541  1.00  0.00    -0.053 NA 
HETATM    6  H   UNL     1      -5.569  12.025  68.201  1.00  0.00     0.000 HD 
BRANCH   5   7
HETATM    7  C   UNL     1      -7.634  12.088  67.735  1.00  0.00    -0.130 A  
HETATM    8  C   UNL     1      -8.243  13.375  67.790  1.00  0.00    -0.172 A  
HETATM    9  C   UNL     1      -9.396  13.687  67.020  1.00  0.00    -0.249 A  
HETATM   10  I   UNL     1      -7.271  14.854  69.015  1.00  0.00    -0.167 I  
HETATM   11  C   UNL     1      -9.981  12.655  66.240  1.00  0.00    -0.258 A  
HETATM   12  O   UNL     1     -10.122  10.498  64.060  1.00  0.00    -0.334 OA 
HETATM   13  O   UNL     1     -10.244   9.222  65.923  1.00  0.00    -0.245 OA 
HETATM   14  I   UNL     1      -6.893   9.477  66.221  1.00  0.00    -0.092 I  
HETATM   15  C   UNL     1      -9.340  11.401  66.113  1.00  0.00    -0.232 A  
HETATM   16  I   UNL     1     -11.922  12.913  65.330  1.00  0.00    -0.527 I  
HETATM   17  C   UNL     1      -8.134  11.160  66.797  1.00  0.00    -0.155 A  
HETATM   18  C   UNL     1      -9.962  10.273  65.379  1.00  0.00    -0.302 C  
BRANCH   9  19
HETATM   19  C   UNL     1      -9.973  15.068  66.959  1.00  0.00    -0.242 C  
HETATM   20  H   UNL     1     -11.306  16.216  67.816  1.00  0.00     0.000 HD 
HETATM   21  O   UNL     1     -10.940  15.341  67.855  1.00  0.00    -0.285 OA 
BRANCH  19  22
HETATM   22  N   UNL     1      -9.615  15.933  66.073  1.00  0.00    -0.326 NA 
HETATM   23  H   UNL     1      -8.667  15.961  65.698  1.00  0.00     0.000 HD 
BRANCH  22  24
HETATM   24  C   UNL     1     -10.660  16.882  65.631  1.00  0.00    -0.221 C  
BRANCH  24  25
HETATM   25  C   UNL     1     -10.331  18.275  66.182  1.00  0.00    -0.398 C  
HETATM   26  O   UNL     1     -10.778  18.389  67.532  1.00  0.00    -0.424 OA 
HETATM   27  H   UNL     1     -10.575  19.252  67.873  1.00  0.00     0.000 HD 
ENDBRANCH  24  25
ENDBRANCH  22  24
ENDBRANCH  19  22
ENDBRANCH   9  19
ENDBRANCH   5   7
ENDBRANCH   2   5
TORSDOF 6
ENDMDL
MODEL       60
REMARK 921   NORMALIZED FREE ENERGY PREDICTED BY IDOCK:   -4.04 KCAL/MOL
REMARK 922        TOTAL FREE ENERGY PREDICTED BY IDOCK:   -5.98 KCAL/MOL
REMARK 923 INTER-LIGAND FREE ENERGY PREDICTED BY IDOCK:   -6.07 KCAL/MOL
REMARK 924 INTRA-LIGAND FREE ENERGY PREDICTED BY IDOCK:    0.09 KCAL/MOL
REMARK 927      BINDING AFFINITY PREDICTED BY RF-SCORE:    0.00 PKD
ROOT
HETATM    1  C   UNL     1     -11.897  13.731  68.400  1.00  0.00    -0.411 C  
HETATM    2  C   UNL     1     -11.581  12.289  68.648  1.00  0.00    -0.323 C  
HETATM    3  H   UNL     1     -11.957  10.522  67.940  1.00  0.00     0.000 HD 
HETATM    4  O   UNL     1     -12.157  11.437  67.783  1.00  0.00    -0.637 OA 
ENDROOT
BRANCH   2   5
HETATM    5  N   UNL     1     -10.803  11.916  69.612  1.00  0.00    -0.450 NA 
HETATM    6  H   UNL     1     -10.517  12.588  70.323  1.00  0.00     0.000 HD 
BRANCH   5   7
HETATM    7  C   UNL     1     -10.346  10.576  69.685  1.00  0.00    -0.193 A  
HETATM    8  C   UNL     1     -11.072   9.612  70.442  1.00  0.00    -0.290 A  
HETATM    9  C   UNL     1     -10.626   8.268  70.562  1.00  0.00    -0.233 A  
HETATM   10  I   UNL     1     -12.933  10.264  71.306  1.00  0.00    -0.464 I  
HETATM   11  C   UNL     1      -9.386   7.918  69.967  1.00  0.00    -0.157 A  
HETATM   12  O   UNL     1      -7.355   7.520  67.699  1.00  0.00    -0.097 OA 
HETATM   13  O   UNL     1      -6.380   9.207  68.847  1.00  0.00    -0.044 OA 
HETATM   14  I   UNL     1      -8.485  11.357  67.322  1.00  0.00    -0.166 I  
HETATM   15  C   UNL     1      -8.698   8.841  69.145  1.00  0.00    -0.136 A  
HETATM   16  I   UNL     1      -8.444   6.023  70.393  1.00  0.00    -0.135 I  
HETATM   17  C   UNL     1      -9.227  10.131  68.950  1.00  0.00    -0.172 A  
HETATM   18  C   UNL     1      -7.362   8.543  68.577  1.00  0.00    -0.092 C  
BRANCH   9  19
HETATM   19  C   UNL     1     -11.440   7.208  71.239  1.00  0.00    -0.282 C  
HETATM   20  H   UNL     1     -12.470   5.588  70.863  1.00  0.00     0.000 HD 
HETATM   21  O   UNL     1     -11.954   6.260  70.434  1.00  0.00    -0.273 OA 
BRANCH  19  22
HETATM   22  N   UNL     1     -11.686   7.222  72.504  1.00  0.00    -0.464 NA 
HETATM   23  H   UNL     1     -12.635   7.148  72.870  1.00  0.00     0.000 HD 
BRANCH  22  24
HETATM   24  C   UNL     1     -10.512   7.351  73.394  1.00  0.00    -0.368 C  
BRANCH  24  25
HETATM   25  C   UNL     1     -10.185   5.976  73.988  1.00  0.00    -0.288 C  
HETATM   26  O   UNL     1     -11.368   5.184  74.078  1.00  0.00    -0.394 OA 
HETATM   27  H   UNL     1     -11.166   4.332  74.446  1.00  0.00     0.000 HD 
ENDBRANCH  24  25
ENDBRANCH  22  24
ENDBRANCH  19  22
ENDBRANCH   9  19
ENDBRANCH   5   7
ENDBRANCH   2   5
TORSDOF 6
ENDMDL
MODEL       61
REMARK 921   NORMALIZED FREE ENERGY PREDICTED BY IDOCK:   -4.04 KCAL/MOL
REMARK 922        TOTAL FREE ENERGY PREDICTED BY IDOCK:   -5.98 KCAL/MOL
REMARK 923 INTER-LIGAND FREE ENERGY PREDICTED BY IDOCK:   -5.61 KCAL/MOL
REMARK 924 INTRA-LIGAND FREE ENERGY PREDICTED BY IDOCK:   -0.36 KCAL/MOL
REMARK 927      BINDING AFFINITY PREDICTED BY RF-SCORE:    0.00 PKD
ROOT
HETATM    1  C   UNL     1      -7.754   8.593  66.931  1.00  0.00    -0.091 C  
HETATM    2  C   UNL     1      -7.860  10.079  67.078  1.00  0.00    -0.102 C  
HETATM    3  H   UNL     1      -7.787  11.706  66.024  1.00  0.00     0.000 HD 
HETATM    4  O   UNL     1      -7.721  10.763  65.930  1.00  0.00    -0.154 OA 
ENDROOT
BRANCH   2   5
HETATM    5  N   UNL     1      -8.081  10.638  68.225  1.00  0.00    -0.113 NA 
HETATM    6  H   UNL     1      -8.020  10.085  69.079  1.00  0.00     0.000 HD 
BRANCH   5   7
HETATM    7  C   UNL     1      -8.408  12.015  68.298  1.00  0.00    -0.163 A  
HETATM    8  C   UNL     1      -9.771  12.427  68.316  1.00  0.00    -0.218 A  
HETATM    9  C   UNL     1     -10.135  13.801  68.356  1.00  0.00    -0.241 A  
HETATM   10  I   UNL     1     -11.252  10.867  68.384  1.00  0.00    -0.362 I  
HETATM   11  C   UNL     1      -9.099  14.770  68.303  1.00  0.00    -0.183 A  
HETATM   12  O   UNL     1      -6.577  16.260  69.223  1.00  0.00    -0.172 OA 
HETATM   13  O   UNL     1      -5.822  15.283  67.328  1.00  0.00    -0.332 OA 
HETATM   14  I   UNL     1      -5.421  12.416  69.059  1.00  0.00    -0.072 I  
HETATM   15  C   UNL     1      -7.742  14.375  68.369  1.00  0.00    -0.132 A  
HETATM   16  I   UNL     1      -9.546  16.859  67.993  1.00  0.00    -0.274 I  
HETATM   17  C   UNL     1      -7.416  13.008  68.446  1.00  0.00    -0.128 A  
HETATM   18  C   UNL     1      -6.634  15.349  68.231  1.00  0.00    -0.121 C  
BRANCH   9  19
HETATM   19  C   UNL     1     -11.554  14.253  68.510  1.00  0.00    -0.320 C  
HETATM   20  H   UNL     1     -12.820  14.915  69.848  1.00  0.00     0.000 HD 
HETATM   21  O   UNL     1     -11.919  14.628  69.750  1.00  0.00    -0.293 OA 
BRANCH  19  22
HETATM   22  N   UNL     1     -12.399  14.236  67.537  1.00  0.00    -0.587 NA 
HETATM   23  H   UNL     1     -13.388  14.031  67.684  1.00  0.00     0.000 HD 
BRANCH  22  24
HETATM   24  C   UNL     1     -11.851  14.530  66.196  1.00  0.00    -0.336 C  
BRANCH  24  25
HETATM   25  C   UNL     1     -12.457  13.549  65.185  1.00  0.00    -0.451 C  
HETATM   26  O   UNL     1     -12.387  14.092  63.868  1.00  0.00    -0.769 OA 
HETATM   27  H   UNL     1     -12.762  13.485  63.242  1.00  0.00     0.000 HD 
ENDBRANCH  24  25
ENDBRANCH  22  24
ENDBRANCH  19  22
ENDBRANCH   9  19
ENDBRANCH   5   7
ENDBRANCH   2   5
TORSDOF 6
ENDMDL
MODEL       62
REMARK 921   NORMALIZED FREE ENERGY PREDICTED BY IDOCK:   -4.04 KCAL/MOL
REMARK 922        TOTAL FREE ENERGY PREDICTED BY IDOCK:   -5.97 KCAL/MOL
REMARK 923 INTER-LIGAND FREE ENERGY PREDICTED BY IDOCK:   -6.02 KCAL/MOL
REMARK 924 INTRA-LIGAND FREE ENERGY PREDICTED BY IDOCK:    0.04 KCAL/MOL
REMARK 927      BINDING AFFINITY PREDICTED BY RF-SCORE:    0.00 PKD
ROOT
HETATM    1  C   UNL     1      -8.912   4.133  64.519  1.00  0.00    -0.142 C  
HETATM    2  C   UNL     1      -9.546   4.600  65.792  1.00  0.00    -0.184 C  
HETATM    3  H   UNL     1     -11.288   4.789  66.625  1.00  0.00     0.000 HD 
HETATM    4  O   UNL     1     -10.885   4.492  65.817  1.00  0.00    -0.247 OA 
ENDROOT
BRANCH   2   5
HETATM    5  N   UNL     1      -8.843   5.054  66.779  1.00  0.00    -0.107 NA 
HETATM    6  H   UNL     1      -7.927   5.465  66.603  1.00  0.00     0.000 HD 
BRANCH   5   7
HETATM    7  C   UNL     1      -9.341   4.983  68.104  1.00  0.00    -0.126 A  
HETATM    8  C   UNL     1     -10.031   6.094  68.670  1.00  0.00    -0.148 A  
HETATM    9  C   UNL     1     -10.515   6.068  70.006  1.00  0.00    -0.313 A  
HETATM   10  I   UNL     1     -10.394   7.771  67.371  1.00  0.00    -0.339 I  
HETATM   11  C   UNL     1     -10.230   4.927  70.800  1.00  0.00    -0.206 A  
HETATM   12  O   UNL     1     -10.272   1.963  71.603  1.00  0.00    -0.132 OA 
HETATM   13  O   UNL     1      -8.077   2.243  71.137  1.00  0.00    -0.049 OA 
HETATM   14  I   UNL     1      -8.812   1.930  67.860  1.00  0.00    -0.210 I  
HETATM   15  C   UNL     1      -9.622   3.786  70.226  1.00  0.00    -0.257 A  
HETATM   16  I   UNL     1     -10.595   4.934  72.928  1.00  0.00    -0.325 I  
HETATM   17  C   UNL     1      -9.258   3.799  68.867  1.00  0.00    -0.156 A  
HETATM   18  C   UNL     1      -9.232   2.611  71.041  1.00  0.00    -0.129 C  
BRANCH   9  19
HETATM   19  C   UNL     1     -11.356   7.168  70.578  1.00  0.00    -0.297 C  
HETATM   20  H   UNL     1     -11.221   8.854  71.560  1.00  0.00     0.000 HD 
HETATM   21  O   UNL     1     -10.687   8.157  71.198  1.00  0.00    -0.216 OA 
BRANCH  19  22
HETATM   22  N   UNL     1     -12.645   7.152  70.535  1.00  0.00    -0.602 NA 
HETATM   23  H   UNL     1     -13.155   7.042  69.658  1.00  0.00     0.000 HD 
BRANCH  22  24
HETATM   24  C   UNL     1     -13.340   7.301  71.832  1.00  0.00    -0.223 C  
BRANCH  24  25
HETATM   25  C   UNL     1     -13.879   8.733  71.945  1.00  0.00    -0.442 C  
HETATM   26  O   UNL     1     -13.976   9.116  73.314  1.00  0.00    -1.164 OA 
HETATM   27  H   UNL     1     -14.309  10.003  73.384  1.00  0.00     0.000 HD 
ENDBRANCH  24  25
ENDBRANCH  22  24
ENDBRANCH  19  22
ENDBRANCH   9  19
ENDBRANCH   5   7
ENDBRANCH   2   5
TORSDOF 6
ENDMDL
MODEL       63
REMARK 921   NORMALIZED FREE ENERGY PREDICTED BY IDOCK:   -4.01 KCAL/MOL
REMARK 922        TOTAL FREE ENERGY PREDICTED BY IDOCK:   -5.93 KCAL/MOL
REMARK 923 INTER-LIGAND FREE ENERGY PREDICTED BY IDOCK:   -5.39 KCAL/MOL
REMARK 924 INTRA-LIGAND FREE ENERGY PREDICTED BY IDOCK:   -0.54 KCAL/MOL
REMARK 927      BINDING AFFINITY PREDICTED BY RF-SCORE:    0.00 PKD
ROOT
HETATM    1  C   UNL     1     -13.628  15.223  70.859  1.00  0.00    -0.402 C  
HETATM    2  C   UNL     1     -12.273  15.584  70.334  1.00  0.00    -0.406 C  
HETATM    3  H   UNL     1     -10.593  16.364  70.912  1.00  0.00     0.000 HD 
HETATM    4  O   UNL     1     -11.453  16.135  71.245  1.00  0.00    -0.418 OA 
ENDROOT
BRANCH   2   5
HETATM    5  N   UNL     1     -11.935  15.361  69.105  1.00  0.00    -0.500 NA 
HETATM    6  H   UNL     1     -12.633  15.433  68.365  1.00  0.00     0.000 HD 
BRANCH   5   7
HETATM    7  C   UNL     1     -10.598  15.017  68.782  1.00  0.00    -0.240 A  
HETATM    8  C   UNL     1     -10.200  13.650  68.743  1.00  0.00    -0.149 A  
HETATM    9  C   UNL     1      -8.861  13.271  68.455  1.00  0.00    -0.124 A  
HETATM   10  I   UNL     1     -11.748  12.184  69.040  1.00  0.00    -0.318 I  
HETATM   11  C   UNL     1      -7.898  14.298  68.276  1.00  0.00    -0.141 A  
HETATM   12  O   UNL     1      -6.607  16.764  66.980  1.00  0.00    -0.167 OA 
HETATM   13  O   UNL     1      -7.199  17.607  68.993  1.00  0.00    -0.256 OA 
HETATM   14  I   UNL     1     -10.345  17.965  67.831  1.00  0.00    -0.354 I  
HETATM   15  C   UNL     1      -8.295  15.654  68.229  1.00  0.00    -0.154 A  
HETATM   16  I   UNL     1      -5.789  13.843  68.197  1.00  0.00    -0.118 I  
HETATM   17  C   UNL     1      -9.650  15.992  68.403  1.00  0.00    -0.206 A  
HETATM   18  C   UNL     1      -7.310  16.758  68.130  1.00  0.00    -0.173 C  
BRANCH   9  19
HETATM   19  C   UNL     1      -8.450  11.841  68.277  1.00  0.00    -0.161 C  
HETATM   20  H   UNL     1      -8.175  10.481  66.898  1.00  0.00     0.000 HD 
HETATM   21  O   UNL     1      -8.436  11.388  67.011  1.00  0.00    -0.147 OA 
BRANCH  19  22
HETATM   22  N   UNL     1      -8.178  11.067  69.272  1.00  0.00    -0.370 NA 
HETATM   23  H   UNL     1      -7.746  11.418  70.127  1.00  0.00     0.000 HD 
BRANCH  22  24
HETATM   24  C   UNL     1      -8.529   9.641  69.100  1.00  0.00    -0.143 C  
BRANCH  24  25
HETATM   25  C   UNL     1      -9.419   9.204  70.269  1.00  0.00    -0.219 C  
HETATM   26  O   UNL     1     -10.586   8.546  69.782  1.00  0.00    -0.222 OA 
HETATM   27  H   UNL     1     -11.137   8.275  70.506  1.00  0.00     0.000 HD 
ENDBRANCH  24  25
ENDBRANCH  22  24
ENDBRANCH  19  22
ENDBRANCH   9  19
ENDBRANCH   5   7
ENDBRANCH   2   5
TORSDOF 6
ENDMDL
MODEL       64
REMARK 921   NORMALIZED FREE ENERGY PREDICTED BY IDOCK:   -4.00 KCAL/MOL
REMARK 922        TOTAL FREE ENERGY PREDICTED BY IDOCK:   -5.93 KCAL/MOL
REMARK 923 INTER-LIGAND FREE ENERGY PREDICTED BY IDOCK:   -5.86 KCAL/MOL
REMARK 924 INTRA-LIGAND FREE ENERGY PREDICTED BY IDOCK:   -0.07 KCAL/MOL
REMARK 927      BINDING AFFINITY PREDICTED BY RF-SCORE:    0.00 PKD
ROOT
HETATM    1  C   UNL     1      -9.240   3.681  67.653  1.00  0.00    -0.225 C  
HETATM    2  C   UNL     1      -9.652   5.111  67.494  1.00  0.00    -0.140 C  
HETATM    3  H   UNL     1     -10.982   6.205  66.599  1.00  0.00     0.000 HD 
HETATM    4  O   UNL     1     -10.720   5.297  66.700  1.00  0.00    -0.291 OA 
ENDROOT
BRANCH   2   5
HETATM    5  N   UNL     1      -9.026   6.073  68.093  1.00  0.00    -0.114 NA 
HETATM    6  H   UNL     1      -8.179   5.875  68.624  1.00  0.00     0.000 HD 
BRANCH   5   7
HETATM    7  C   UNL     1      -9.514   7.401  68.014  1.00  0.00    -0.141 A  
HETATM    8  C   UNL     1      -9.198   8.215  66.888  1.00  0.00    -0.160 A  
HETATM    9  C   UNL     1      -9.643   9.561  66.791  1.00  0.00    -0.229 A  
HETATM   10  I   UNL     1      -8.101   7.273  65.293  1.00  0.00    -0.066 I  
HETATM   11  C   UNL     1     -10.357  10.110  67.888  1.00  0.00    -0.194 A  
HETATM   12  O   UNL     1     -12.637  10.370  69.928  1.00  0.00    -0.187 OA 
HETATM   13  O   UNL     1     -10.926   9.776  71.282  1.00  0.00    -0.351 OA 
HETATM   14  I   UNL     1     -11.398   6.571  70.342  1.00  0.00    -0.392 I  
HETATM   15  C   UNL     1     -10.749   9.292  68.972  1.00  0.00    -0.189 A  
HETATM   16  I   UNL     1     -10.759  12.228  68.003  1.00  0.00    -0.304 I  
HETATM   17  C   UNL     1     -10.392   7.930  68.984  1.00  0.00    -0.214 A  
HETATM   18  C   UNL     1     -11.420   9.846  70.172  1.00  0.00    -0.248 C  
BRANCH   9  19
HETATM   19  C   UNL     1      -9.437  10.390  65.561  1.00  0.00    -0.215 C  
HETATM   20  H   UNL     1      -8.138  11.580  64.710  1.00  0.00     0.000 HD 
HETATM   21  O   UNL     1      -8.269  11.055  65.490  1.00  0.00    -0.105 OA 
BRANCH  19  22
HETATM   22  N   UNL     1     -10.337  10.512  64.646  1.00  0.00    -0.303 NA 
HETATM   23  H   UNL     1     -10.982   9.756  64.418  1.00  0.00     0.000 HD 
BRANCH  22  24
HETATM   24  C   UNL     1     -10.378  11.814  63.946  1.00  0.00    -0.385 C  
BRANCH  24  25
HETATM   25  C   UNL     1     -11.819  12.340  63.960  1.00  0.00    -0.444 C  
HETATM   26  O   UNL     1     -12.634  11.570  63.080  1.00  0.00    -0.958 OA 
HETATM   27  H   UNL     1     -13.526  11.895  63.089  1.00  0.00     0.000 HD 
ENDBRANCH  24  25
ENDBRANCH  22  24
ENDBRANCH  19  22
ENDBRANCH   9  19
ENDBRANCH   5   7
ENDBRANCH   2   5
TORSDOF 6
ENDMDL
MODEL       65
REMARK 921   NORMALIZED FREE ENERGY PREDICTED BY IDOCK:   -4.00 KCAL/MOL
REMARK 922        TOTAL FREE ENERGY PREDICTED BY IDOCK:   -5.92 KCAL/MOL
REMARK 923 INTER-LIGAND FREE ENERGY PREDICTED BY IDOCK:   -5.92 KCAL/MOL
REMARK 924 INTRA-LIGAND FREE ENERGY PREDICTED BY IDOCK:    0.00 KCAL/MOL
REMARK 927      BINDING AFFINITY PREDICTED BY RF-SCORE:    0.00 PKD
ROOT
HETATM    1  C   UNL     1      -8.153   8.842  62.494  1.00  0.00    -0.158 C  
HETATM    2  C   UNL     1      -8.404   9.278  63.904  1.00  0.00    -0.179 C  
HETATM    3  H   UNL     1      -7.540  10.215  65.367  1.00  0.00     0.000 HD 
HETATM    4  O   UNL     1      -7.381   9.939  64.472  1.00  0.00    -0.130 OA 
ENDROOT
BRANCH   2   5
HETATM    5  N   UNL     1      -9.526   9.041  64.503  1.00  0.00    -0.239 NA 
HETATM    6  H   UNL     1     -10.117   8.272  64.188  1.00  0.00     0.000 HD 
BRANCH   5   7
HETATM    7  C   UNL     1      -9.938   9.845  65.595  1.00  0.00    -0.283 A  
HETATM    8  C   UNL     1      -9.700   9.414  66.932  1.00  0.00    -0.186 A  
HETATM    9  C   UNL     1     -10.128  10.180  68.050  1.00  0.00    -0.186 A  
HETATM   10  I   UNL     1      -8.570   7.598  67.175  1.00  0.00    -0.136 I  
HETATM   11  C   UNL     1     -10.873  11.363  67.805  1.00  0.00    -0.231 A  
HETATM   12  O   UNL     1     -11.420  14.179  66.711  1.00  0.00    -0.337 OA 
HETATM   13  O   UNL     1     -12.871  12.958  65.478  1.00  0.00    -0.531 OA 
HETATM   14  I   UNL     1     -10.306  12.083  63.470  1.00  0.00    -0.305 I  
HETATM   15  C   UNL     1     -11.043  11.845  66.487  1.00  0.00    -0.357 A  
HETATM   16  I   UNL     1     -11.876  12.397  69.413  1.00  0.00    -0.201 I  
HETATM   17  C   UNL     1     -10.505  11.123  65.405  1.00  0.00    -0.259 A  
HETATM   18  C   UNL     1     -11.884  13.028  66.186  1.00  0.00    -0.409 C  
BRANCH   9  19
HETATM   19  C   UNL     1      -9.774   9.814  69.458  1.00  0.00    -0.212 C  
HETATM   20  H   UNL     1      -8.286   9.856  70.729  1.00  0.00     0.000 HD 
HETATM   21  O   UNL     1      -8.511  10.087  69.835  1.00  0.00    -0.189 OA 
BRANCH  19  22
HETATM   22  N   UNL     1     -10.600   9.224  70.253  1.00  0.00    -0.219 NA 
HETATM   23  H   UNL     1     -11.442   9.686  70.597  1.00  0.00     0.000 HD 
BRANCH  22  24
HETATM   24  C   UNL     1     -10.255   7.838  70.636  1.00  0.00    -0.199 C  
BRANCH  24  25
HETATM   25  C   UNL     1     -11.502   6.957  70.492  1.00  0.00    -0.342 C  
HETATM   26  O   UNL     1     -11.762   6.692  69.115  1.00  0.00    -0.629 OA 
HETATM   27  H   UNL     1     -12.534   6.147  69.026  1.00  0.00     0.000 HD 
ENDBRANCH  24  25
ENDBRANCH  22  24
ENDBRANCH  19  22
ENDBRANCH   9  19
ENDBRANCH   5   7
ENDBRANCH   2   5
TORSDOF 6
ENDMDL
MODEL       66
REMARK 921   NORMALIZED FREE ENERGY PREDICTED BY IDOCK:   -3.99 KCAL/MOL
REMARK 922        TOTAL FREE ENERGY PREDICTED BY IDOCK:   -5.91 KCAL/MOL
REMARK 923 INTER-LIGAND FREE ENERGY PREDICTED BY IDOCK:   -5.35 KCAL/MOL
REMARK 924 INTRA-LIGAND FREE ENERGY PREDICTED BY IDOCK:   -0.55 KCAL/MOL
REMARK 927      BINDING AFFINITY PREDICTED BY RF-SCORE:    0.00 PKD
ROOT
HETATM    1  C   UNL     1     -10.826   6.208  66.952  1.00  0.00    -0.411 C  
HETATM    2  C   UNL     1      -9.364   6.235  67.271  1.00  0.00    -0.118 C  
HETATM    3  H   UNL     1      -7.857   5.042  67.534  1.00  0.00     0.000 HD 
HETATM    4  O   UNL     1      -8.785   5.024  67.331  1.00  0.00    -0.105 OA 
ENDROOT
BRANCH   2   5
HETATM    5  N   UNL     1      -8.726   7.346  67.457  1.00  0.00    -0.124 NA 
HETATM    6  H   UNL     1      -7.995   7.399  68.165  1.00  0.00     0.000 HD 
BRANCH   5   7
HETATM    7  C   UNL     1      -9.039   8.489  66.680  1.00  0.00    -0.165 A  
HETATM    8  C   UNL     1      -9.815   9.545  67.239  1.00  0.00    -0.177 A  
HETATM    9  C   UNL     1     -10.174  10.691  66.479  1.00  0.00    -0.288 A  
HETATM   10  I   UNL     1     -10.327   9.369  69.323  1.00  0.00    -0.247 I  
HETATM   11  C   UNL     1      -9.802  10.729  65.110  1.00  0.00    -0.277 A  
HETATM   12  O   UNL     1      -7.901  10.745  62.699  1.00  0.00    -0.141 OA 
HETATM   13  O   UNL     1      -8.931   8.752  62.410  1.00  0.00    -0.157 OA 
HETATM   14  I   UNL     1      -6.863   7.435  64.727  1.00  0.00    -0.055 I  
HETATM   15  C   UNL     1      -8.963   9.730  64.565  1.00  0.00    -0.278 A  
HETATM   16  I   UNL     1     -10.602  12.233  63.783  1.00  0.00    -0.467 I  
HETATM   17  C   UNL     1      -8.527   8.666  65.377  1.00  0.00    -0.172 A  
HETATM   18  C   UNL     1      -8.625   9.690  63.122  1.00  0.00    -0.208 C  
BRANCH   9  19
HETATM   19  C   UNL     1     -10.872  11.870  67.083  1.00  0.00    -0.255 C  
HETATM   20  H   UNL     1     -12.658  12.605  67.395  1.00  0.00     0.000 HD 
HETATM   21  O   UNL     1     -12.216  11.857  67.012  1.00  0.00    -0.492 OA 
BRANCH  19  22
HETATM   22  N   UNL     1     -10.236  12.870  67.592  1.00  0.00    -0.217 NA 
HETATM   23  H   UNL     1      -9.390  12.744  68.148  1.00  0.00     0.000 HD 
BRANCH  22  24
HETATM   24  C   UNL     1     -10.804  14.207  67.321  1.00  0.00    -0.285 C  
BRANCH  24  25
HETATM   25  C   UNL     1     -10.800  15.022  68.621  1.00  0.00    -0.249 C  
HETATM   26  O   UNL     1     -12.105  15.044  69.193  1.00  0.00    -0.466 OA 
HETATM   27  H   UNL     1     -12.103  15.548  69.998  1.00  0.00     0.000 HD 
ENDBRANCH  24  25
ENDBRANCH  22  24
ENDBRANCH  19  22
ENDBRANCH   9  19
ENDBRANCH   5   7
ENDBRANCH   2   5
TORSDOF 6
ENDMDL
MODEL       67
REMARK 921   NORMALIZED FREE ENERGY PREDICTED BY IDOCK:   -3.98 KCAL/MOL
REMARK 922        TOTAL FREE ENERGY PREDICTED BY IDOCK:   -5.89 KCAL/MOL
REMARK 923 INTER-LIGAND FREE ENERGY PREDICTED BY IDOCK:   -5.29 KCAL/MOL
REMARK 924 INTRA-LIGAND FREE ENERGY PREDICTED BY IDOCK:   -0.60 KCAL/MOL
REMARK 927      BINDING AFFINITY PREDICTED BY RF-SCORE:    0.00 PKD
ROOT
HETATM    1  C   UNL     1      -7.528   8.232  65.993  1.00  0.00    -0.077 C  
HETATM    2  C   UNL     1      -8.364   7.775  67.148  1.00  0.00    -0.118 C  
HETATM    3  H   UNL     1      -9.867   6.618  67.555  1.00  0.00     0.000 HD 
HETATM    4  O   UNL     1      -9.337   6.908  66.822  1.00  0.00    -0.147 OA 
ENDROOT
BRANCH   2   5
HETATM    5  N   UNL     1      -8.141   8.183  68.356  1.00  0.00    -0.126 NA 
HETATM    6  H   UNL     1      -7.183   8.315  68.679  1.00  0.00     0.000 HD 
BRANCH   5   7
HETATM    7  C   UNL     1      -9.224   8.447  69.232  1.00  0.00    -0.154 A  
HETATM    8  C   UNL     1      -9.555   7.518  70.261  1.00  0.00    -0.165 A  
HETATM    9  C   UNL     1     -10.653   7.735  71.136  1.00  0.00    -0.235 A  
HETATM   10  I   UNL     1      -8.249   5.822  70.490  1.00  0.00    -0.122 I  
HETATM   11  C   UNL     1     -11.470   8.875  70.917  1.00  0.00    -0.288 A  
HETATM   12  O   UNL     1     -12.143  11.860  70.665  1.00  0.00    -0.373 OA 
HETATM   13  O   UNL     1     -12.440  11.180  68.529  1.00  0.00    -0.452 OA 
HETATM   14  I   UNL     1      -9.098  11.337  68.097  1.00  0.00    -0.178 I  
HETATM   15  C   UNL     1     -11.104   9.846  69.955  1.00  0.00    -0.335 A  
HETATM   16  I   UNL     1     -13.355   9.106  71.942  1.00  0.00    -0.585 I  
HETATM   17  C   UNL     1      -9.943   9.660  69.182  1.00  0.00    -0.185 A  
HETATM   18  C   UNL     1     -11.974  11.004  69.639  1.00  0.00    -0.353 C  
BRANCH   9  19
HETATM   19  C   UNL     1     -10.939   6.843  72.305  1.00  0.00    -0.242 C  
HETATM   20  H   UNL     1     -10.705   6.729  74.244  1.00  0.00     0.000 HD 
HETATM   21  O   UNL     1     -10.524   7.294  73.503  1.00  0.00    -0.349 OA 
BRANCH  19  22
HETATM   22  N   UNL     1     -11.496   5.687  72.179  1.00  0.00    -0.227 NA 
HETATM   23  H   UNL     1     -11.983   5.414  71.325  1.00  0.00     0.000 HD 
BRANCH  22  24
HETATM   24  C   UNL     1     -11.388   4.783  73.343  1.00  0.00    -0.312 C  
BRANCH  24  25
HETATM   25  C   UNL     1     -10.506   3.587  72.964  1.00  0.00    -0.166 C  
HETATM   26  O   UNL     1      -9.207   3.733  73.532  1.00  0.00    -0.097 OA 
HETATM   27  H   UNL     1      -8.661   2.993  73.298  1.00  0.00     0.000 HD 
ENDBRANCH  24  25
ENDBRANCH  22  24
ENDBRANCH  19  22
ENDBRANCH   9  19
ENDBRANCH   5   7
ENDBRANCH   2   5
TORSDOF 6
ENDMDL
MODEL       68
REMARK 921   NORMALIZED FREE ENERGY PREDICTED BY IDOCK:   -3.98 KCAL/MOL
REMARK 922        TOTAL FREE ENERGY PREDICTED BY IDOCK:   -5.89 KCAL/MOL
REMARK 923 INTER-LIGAND FREE ENERGY PREDICTED BY IDOCK:   -6.88 KCAL/MOL
REMARK 924 INTRA-LIGAND FREE ENERGY PREDICTED BY IDOCK:    0.99 KCAL/MOL
REMARK 927      BINDING AFFINITY PREDICTED BY RF-SCORE:    0.00 PKD
ROOT
HETATM    1  C   UNL     1     -13.821  15.830  72.295  1.00  0.00    -0.481 C  
HETATM    2  C   UNL     1     -12.704  15.705  71.306  1.00  0.00    -0.475 C  
HETATM    3  H   UNL     1     -10.791  15.987  71.152  1.00  0.00     0.000 HD 
HETATM    4  O   UNL     1     -11.500  16.066  71.780  1.00  0.00    -0.413 OA 
ENDROOT
BRANCH   2   5
HETATM    5  N   UNL     1     -12.901  15.270  70.103  1.00  0.00    -0.650 NA 
HETATM    6  H   UNL     1     -13.637  15.681  69.529  1.00  0.00     0.000 HD 
BRANCH   5   7
HETATM    7  C   UNL     1     -12.100  14.225  69.581  1.00  0.00    -0.346 A  
HETATM    8  C   UNL     1     -11.152  14.495  68.552  1.00  0.00    -0.256 A  
HETATM    9  C   UNL     1     -10.356  13.465  67.982  1.00  0.00    -0.242 A  
HETATM   10  I   UNL     1     -10.913  16.555  67.974  1.00  0.00    -0.094 I  
HETATM   11  C   UNL     1     -10.577  12.131  68.413  1.00  0.00    -0.226 A  
HETATM   12  O   UNL     1     -10.719   9.791  70.396  1.00  0.00    -0.264 OA 
HETATM   13  O   UNL     1     -12.906  10.032  69.872  1.00  0.00     0.140 OA 
HETATM   14  I   UNL     1     -13.064  12.603  72.051  1.00  0.00     0.004 I  
HETATM   15  C   UNL     1     -11.453  11.861  69.491  1.00  0.00    -0.357 A  
HETATM   16  I   UNL     1      -9.692  10.463  67.367  1.00  0.00    -0.222 I  
HETATM   17  C   UNL     1     -12.142  12.918  70.113  1.00  0.00    -0.302 A  
HETATM   18  C   UNL     1     -11.774  10.476  69.912  1.00  0.00    -0.294 C  
BRANCH   9  19
HETATM   19  C   UNL     1      -9.262  13.745  66.997  1.00  0.00    -0.251 C  
HETATM   20  H   UNL     1      -7.362  14.201  66.899  1.00  0.00     0.000 HD 
HETATM   21  O   UNL     1      -8.055  14.023  67.523  1.00  0.00    -0.161 OA 
BRANCH  19  22
HETATM   22  N   UNL     1      -9.464  13.776  65.724  1.00  0.00    -0.509 NA 
HETATM   23  H   UNL     1      -8.819  13.343  65.065  1.00  0.00     0.000 HD 
BRANCH  22  24
HETATM   24  C   UNL     1     -10.687  14.478  65.278  1.00  0.00    -0.376 C  
BRANCH  24  25
HETATM   25  C   UNL     1     -11.592  13.481  64.544  1.00  0.00    -0.381 C  
HETATM   26  O   UNL     1     -12.945  13.641  64.964  1.00  0.00    -0.724 OA 
HETATM   27  H   UNL     1     -13.505  13.024  64.509  1.00  0.00     0.000 HD 
ENDBRANCH  24  25
ENDBRANCH  22  24
ENDBRANCH  19  22
ENDBRANCH   9  19
ENDBRANCH   5   7
ENDBRANCH   2   5
TORSDOF 6
ENDMDL
MODEL       69
REMARK 921   NORMALIZED FREE ENERGY PREDICTED BY IDOCK:   -3.96 KCAL/MOL
REMARK 922        TOTAL FREE ENERGY PREDICTED BY IDOCK:   -5.87 KCAL/MOL
REMARK 923 INTER-LIGAND FREE ENERGY PREDICTED BY IDOCK:   -5.36 KCAL/MOL
REMARK 924 INTRA-LIGAND FREE ENERGY PREDICTED BY IDOCK:   -0.51 KCAL/MOL
REMARK 927      BINDING AFFINITY PREDICTED BY RF-SCORE:    0.00 PKD
ROOT
HETATM    1  C   UNL     1      -8.842   9.004  65.980  1.00  0.00    -0.208 C  
HETATM    2  C   UNL     1      -7.698   9.886  66.372  1.00  0.00    -0.104 C  
HETATM    3  H   UNL     1      -6.181  10.817  65.599  1.00  0.00     0.000 HD 
HETATM    4  O   UNL     1      -6.907  10.257  65.351  1.00  0.00    -0.132 OA 
ENDROOT
BRANCH   2   5
HETATM    5  N   UNL     1      -7.512  10.261  67.597  1.00  0.00    -0.089 NA 
HETATM    6  H   UNL     1      -6.581  10.541  67.906  1.00  0.00     0.000 HD 
BRANCH   5   7
HETATM    7  C   UNL     1      -8.595  10.284  68.510  1.00  0.00    -0.126 A  
HETATM    8  C   UNL     1      -8.673   9.318  69.553  1.00  0.00    -0.146 A  
HETATM    9  C   UNL     1      -9.762   9.292  70.466  1.00  0.00    -0.316 A  
HETATM   10  I   UNL     1      -7.011   7.964  69.742  1.00  0.00    -0.051 I  
HETATM   11  C   UNL     1     -10.822  10.215  70.271  1.00  0.00    -0.310 A  
HETATM   12  O   UNL     1     -12.161  12.968  70.032  1.00  0.00    -0.326 OA 
HETATM   13  O   UNL     1     -12.368  12.212  67.910  1.00  0.00    -0.310 OA 
HETATM   14  I   UNL     1      -9.164  13.115  67.359  1.00  0.00    -0.244 I  
HETATM   15  C   UNL     1     -10.717  11.232  69.293  1.00  0.00    -0.221 A  
HETATM   16  I   UNL     1     -12.675  10.027  71.363  1.00  0.00    -0.593 I  
HETATM   17  C   UNL     1      -9.572  11.303  68.479  1.00  0.00    -0.198 A  
HETATM   18  C   UNL     1     -11.837  12.159  69.003  1.00  0.00    -0.306 C  
BRANCH   9  19
HETATM   19  C   UNL     1      -9.799   8.373  71.649  1.00  0.00    -0.221 C  
HETATM   20  H   UNL     1      -9.234   8.250  73.518  1.00  0.00     0.000 HD 
HETATM   21  O   UNL     1      -9.211   8.833  72.768  1.00  0.00    -0.305 OA 
BRANCH  19  22
HETATM   22  N   UNL     1     -10.309   7.190  71.594  1.00  0.00    -0.198 NA 
HETATM   23  H   UNL     1     -10.883   6.886  70.808  1.00  0.00     0.000 HD 
BRANCH  22  24
HETATM   24  C   UNL     1     -10.013   6.302  72.739  1.00  0.00    -0.172 C  
BRANCH  24  25
HETATM   25  C   UNL     1     -11.285   5.531  73.111  1.00  0.00    -0.267 C  
HETATM   26  O   UNL     1     -12.406   6.057  72.405  1.00  0.00    -0.516 OA 
HETATM   27  H   UNL     1     -13.193   5.579  72.635  1.00  0.00     0.000 HD 
ENDBRANCH  24  25
ENDBRANCH  22  24
ENDBRANCH  19  22
ENDBRANCH   9  19
ENDBRANCH   5   7
ENDBRANCH   2   5
TORSDOF 6
ENDMDL
MODEL       70
REMARK 921   NORMALIZED FREE ENERGY PREDICTED BY IDOCK:   -3.95 KCAL/MOL
REMARK 922        TOTAL FREE ENERGY PREDICTED BY IDOCK:   -5.86 KCAL/MOL
REMARK 923 INTER-LIGAND FREE ENERGY PREDICTED BY IDOCK:   -5.35 KCAL/MOL
REMARK 924 INTRA-LIGAND FREE ENERGY PREDICTED BY IDOCK:   -0.51 KCAL/MOL
REMARK 927      BINDING AFFINITY PREDICTED BY RF-SCORE:    0.00 PKD
ROOT
HETATM    1  C   UNL     1     -13.396  15.217  70.734  1.00  0.00    -0.389 C  
HETATM    2  C   UNL     1     -12.037  15.636  70.266  1.00  0.00    -0.385 C  
HETATM    3  H   UNL     1     -10.363  16.344  70.944  1.00  0.00     0.000 HD 
HETATM    4  O   UNL     1     -11.225  16.077  71.242  1.00  0.00    -0.345 OA 
ENDROOT
BRANCH   2   5
HETATM    5  N   UNL     1     -11.689  15.560  69.022  1.00  0.00    -0.367 NA 
HETATM    6  H   UNL     1     -12.385  15.705  68.291  1.00  0.00     0.000 HD 
BRANCH   5   7
HETATM    7  C   UNL     1     -10.346  15.275  68.671  1.00  0.00    -0.232 A  
HETATM    8  C   UNL     1      -9.938  13.932  68.430  1.00  0.00    -0.233 A  
HETATM    9  C   UNL     1      -8.593  13.607  68.108  1.00  0.00    -0.176 A  
HETATM   10  I   UNL     1     -11.480  12.431  68.477  1.00  0.00    -0.421 I  
HETATM   11  C   UNL     1      -7.634  14.654  68.102  1.00  0.00    -0.122 A  
HETATM   12  O   UNL     1      -6.341  17.294  67.217  1.00  0.00    -0.132 OA 
HETATM   13  O   UNL     1      -6.967  17.818  69.326  1.00  0.00    -0.238 OA 
HETATM   14  I   UNL     1     -10.099  18.335  68.184  1.00  0.00    -0.417 I  
HETATM   15  C   UNL     1      -8.040  16.000  68.257  1.00  0.00    -0.150 A  
HETATM   16  I   UNL     1      -5.521  14.225  67.988  1.00  0.00     0.003 I  
HETATM   17  C   UNL     1      -9.400  16.300  68.459  1.00  0.00    -0.213 A  
HETATM   18  C   UNL     1      -7.061  17.110  68.341  1.00  0.00    -0.206 C  
BRANCH   9  19
HETATM   19  C   UNL     1      -8.170  12.223  67.721  1.00  0.00    -0.161 C  
HETATM   20  H   UNL     1      -7.552  10.534  68.491  1.00  0.00     0.000 HD 
HETATM   21  O   UNL     1      -7.820  11.411  68.736  1.00  0.00    -0.136 OA 
BRANCH  19  22
HETATM   22  N   UNL     1      -8.087  11.839  66.493  1.00  0.00    -0.347 NA 
HETATM   23  H   UNL     1      -7.611  12.396  65.784  1.00  0.00     0.000 HD 
BRANCH  22  24
HETATM   24  C   UNL     1      -8.723  10.542  66.175  1.00  0.00    -0.158 C  
BRANCH  24  25
HETATM   25  C   UNL     1      -8.401  10.174  64.721  1.00  0.00    -0.165 C  
HETATM   26  O   UNL     1      -8.418  11.341  63.902  1.00  0.00    -0.356 OA 
HETATM   27  H   UNL     1      -8.219  11.114  63.002  1.00  0.00     0.000 HD 
ENDBRANCH  24  25
ENDBRANCH  22  24
ENDBRANCH  19  22
ENDBRANCH   9  19
ENDBRANCH   5   7
ENDBRANCH   2   5
TORSDOF 6
ENDMDL
MODEL       71
REMARK 921   NORMALIZED FREE ENERGY PREDICTED BY IDOCK:   -3.95 KCAL/MOL
REMARK 922        TOTAL FREE ENERGY PREDICTED BY IDOCK:   -5.85 KCAL/MOL
REMARK 923 INTER-LIGAND FREE ENERGY PREDICTED BY IDOCK:   -5.76 KCAL/MOL
REMARK 924 INTRA-LIGAND FREE ENERGY PREDICTED BY IDOCK:   -0.09 KCAL/MOL
REMARK 927      BINDING AFFINITY PREDICTED BY RF-SCORE:    0.00 PKD
ROOT
HETATM    1  C   UNL     1      -8.210   5.927  65.104  1.00  0.00    -0.141 C  
HETATM    2  C   UNL     1      -8.684   6.950  66.089  1.00  0.00    -0.145 C  
HETATM    3  H   UNL     1      -8.019   8.098  67.505  1.00  0.00     0.000 HD 
HETATM    4  O   UNL     1      -7.719   7.448  66.880  1.00  0.00    -0.105 OA 
ENDROOT
BRANCH   2   5
HETATM    5  N   UNL     1      -9.922   7.321  66.147  1.00  0.00    -0.428 NA 
HETATM    6  H   UNL     1     -10.613   6.882  65.539  1.00  0.00     0.000 HD 
BRANCH   5   7
HETATM    7  C   UNL     1     -10.324   8.334  67.053  1.00  0.00    -0.323 A  
HETATM    8  C   UNL     1     -10.590   8.012  68.415  1.00  0.00    -0.102 A  
HETATM    9  C   UNL     1     -11.025   8.997  69.343  1.00  0.00    -0.082 A  
HETATM   10  I   UNL     1     -10.201   5.984  69.023  1.00  0.00    -0.343 I  
HETATM   11  C   UNL     1     -11.263  10.311  68.862  1.00  0.00    -0.207 A  
HETATM   12  O   UNL     1     -10.582  13.013  67.573  1.00  0.00    -0.228 OA 
HETATM   13  O   UNL     1     -11.976  12.143  66.018  1.00  0.00    -0.578 OA 
HETATM   14  I   UNL     1      -9.396  10.314  64.844  1.00  0.00    -0.388 I  
HETATM   15  C   UNL     1     -10.924  10.663  67.535  1.00  0.00    -0.371 A  
HETATM   16  I   UNL     1     -12.264  11.779  70.089  1.00  0.00    -0.153 I  
HETATM   17  C   UNL     1     -10.384   9.692  66.672  1.00  0.00    -0.208 A  
HETATM   18  C   UNL     1     -11.236  11.999  66.973  1.00  0.00    -0.320 C  
BRANCH   9  19
HETATM   19  C   UNL     1     -11.182   8.711  70.805  1.00  0.00    -0.261 C  
HETATM   20  H   UNL     1     -12.487   8.068  72.114  1.00  0.00     0.000 HD 
HETATM   21  O   UNL     1     -12.387   8.249  71.187  1.00  0.00    -0.289 OA 
BRANCH  19  22
HETATM   22  N   UNL     1     -10.248   8.942  71.663  1.00  0.00    -0.319 NA 
HETATM   23  H   UNL     1      -9.693   9.797  71.640  1.00  0.00     0.000 HD 
BRANCH  22  24
HETATM   24  C   UNL     1     -10.029   7.893  72.682  1.00  0.00    -0.266 C  
BRANCH  24  25
HETATM   25  C   UNL     1      -8.531   7.816  73.002  1.00  0.00    -0.156 C  
HETATM   26  O   UNL     1      -7.820   8.817  72.277  1.00  0.00    -0.343 OA 
HETATM   27  H   UNL     1      -6.892   8.769  72.475  1.00  0.00     0.000 HD 
ENDBRANCH  24  25
ENDBRANCH  22  24
ENDBRANCH  19  22
ENDBRANCH   9  19
ENDBRANCH   5   7
ENDBRANCH   2   5
TORSDOF 6
ENDMDL
MODEL       72
REMARK 921   NORMALIZED FREE ENERGY PREDICTED BY IDOCK:   -3.94 KCAL/MOL
REMARK 922        TOTAL FREE ENERGY PREDICTED BY IDOCK:   -5.85 KCAL/MOL
REMARK 923 INTER-LIGAND FREE ENERGY PREDICTED BY IDOCK:   -5.49 KCAL/MOL
REMARK 924 INTRA-LIGAND FREE ENERGY PREDICTED BY IDOCK:   -0.36 KCAL/MOL
REMARK 927      BINDING AFFINITY PREDICTED BY RF-SCORE:    0.00 PKD
ROOT
HETATM    1  C   UNL     1     -12.005  14.309  67.163  1.00  0.00    -0.449 C  
HETATM    2  C   UNL     1     -11.691  12.913  67.602  1.00  0.00    -0.370 C  
HETATM    3  H   UNL     1     -12.010  11.068  67.094  1.00  0.00     0.000 HD 
HETATM    4  O   UNL     1     -12.209  11.954  66.816  1.00  0.00    -0.489 OA 
ENDROOT
BRANCH   2   5
HETATM    5  N   UNL     1     -10.967  12.671  68.646  1.00  0.00    -0.247 NA 
HETATM    6  H   UNL     1     -10.411  13.418  69.063  1.00  0.00     0.000 HD 
BRANCH   5   7
HETATM    7  C   UNL     1     -10.941  11.373  69.214  1.00  0.00    -0.229 A  
HETATM    8  C   UNL     1      -9.965  10.426  68.791  1.00  0.00    -0.188 A  
HETATM    9  C   UNL     1      -9.931   9.106  69.316  1.00  0.00    -0.187 A  
HETATM   10  I   UNL     1      -8.482  11.123  67.396  1.00  0.00    -0.148 I  
HETATM   11  C   UNL     1     -10.947   8.721  70.229  1.00  0.00    -0.235 A  
HETATM   12  O   UNL     1     -12.611   8.818  72.808  1.00  0.00    -0.316 OA 
HETATM   13  O   UNL     1     -14.157   9.454  71.285  1.00  0.00    -0.210 OA 
HETATM   14  I   UNL     1     -12.845  12.561  71.366  1.00  0.00     0.051 I  
HETATM   15  C   UNL     1     -11.869   9.674  70.720  1.00  0.00    -0.378 A  
HETATM   16  I   UNL     1     -11.203   6.655  70.802  1.00  0.00    -0.432 I  
HETATM   17  C   UNL     1     -11.805  11.005  70.268  1.00  0.00    -0.367 A  
HETATM   18  C   UNL     1     -12.995   9.293  71.606  1.00  0.00    -0.374 C  
BRANCH   9  19
HETATM   19  C   UNL     1      -8.836   8.137  68.987  1.00  0.00    -0.144 C  
HETATM   20  H   UNL     1      -8.305   6.818  67.643  1.00  0.00     0.000 HD 
HETATM   21  O   UNL     1      -8.998   7.432  67.852  1.00  0.00    -0.132 OA 
BRANCH  19  22
HETATM   22  N   UNL     1      -7.825   7.941  69.762  1.00  0.00    -0.102 NA 
HETATM   23  H   UNL     1      -7.242   7.107  69.688  1.00  0.00     0.000 HD 
BRANCH  22  24
HETATM   24  C   UNL     1      -7.558   8.996  70.763  1.00  0.00    -0.120 C  
BRANCH  24  25
HETATM   25  C   UNL     1      -7.861   8.443  72.160  1.00  0.00    -0.119 C  
HETATM   26  O   UNL     1      -6.826   8.810  73.071  1.00  0.00    -0.303 OA 
HETATM   27  H   UNL     1      -7.014   8.467  73.936  1.00  0.00     0.000 HD 
ENDBRANCH  24  25
ENDBRANCH  22  24
ENDBRANCH  19  22
ENDBRANCH   9  19
ENDBRANCH   5   7
ENDBRANCH   2   5
TORSDOF 6
ENDMDL
MODEL       73
REMARK 921   NORMALIZED FREE ENERGY PREDICTED BY IDOCK:   -3.94 KCAL/MOL
REMARK 922        TOTAL FREE ENERGY PREDICTED BY IDOCK:   -5.83 KCAL/MOL
REMARK 923 INTER-LIGAND FREE ENERGY PREDICTED BY IDOCK:   -5.13 KCAL/MOL
REMARK 924 INTRA-LIGAND FREE ENERGY PREDICTED BY IDOCK:   -0.71 KCAL/MOL
REMARK 927      BINDING AFFINITY PREDICTED BY RF-SCORE:    0.00 PKD
ROOT
HETATM    1  C   UNL     1      -6.280  16.373  67.176  1.00  0.00    -0.203 C  
HETATM    2  C   UNL     1      -7.180  16.474  68.367  1.00  0.00    -0.169 C  
HETATM    3  H   UNL     1      -7.871  17.778  69.626  1.00  0.00     0.000 HD 
HETATM    4  O   UNL     1      -7.299  17.714  68.870  1.00  0.00    -0.258 OA 
ENDROOT
BRANCH   2   5
HETATM    5  N   UNL     1      -7.796  15.442  68.848  1.00  0.00    -0.161 NA 
HETATM    6  H   UNL     1      -7.781  15.264  69.852  1.00  0.00     0.000 HD 
BRANCH   5   7
HETATM    7  C   UNL     1      -8.490  14.557  67.986  1.00  0.00    -0.161 A  
HETATM    8  C   UNL     1      -8.034  13.218  67.816  1.00  0.00    -0.166 A  
HETATM    9  C   UNL     1      -8.686  12.313  66.936  1.00  0.00    -0.197 A  
HETATM   10  I   UNL     1      -6.371  12.601  69.036  1.00  0.00    -0.095 I  
HETATM   11  C   UNL     1      -9.773  12.798  66.162  1.00  0.00    -0.246 A  
HETATM   12  O   UNL     1     -12.541  14.019  65.634  1.00  0.00    -0.497 OA 
HETATM   13  O   UNL     1     -11.198  15.670  64.866  1.00  0.00    -0.401 OA 
HETATM   14  I   UNL     1     -10.755  16.684  68.053  1.00  0.00    -0.245 I  
HETATM   15  C   UNL     1     -10.288  14.097  66.382  1.00  0.00    -0.287 A  
HETATM   16  I   UNL     1     -10.595  11.630  64.544  1.00  0.00    -0.427 I  
HETATM   17  C   UNL     1      -9.691  14.931  67.346  1.00  0.00    -0.217 A  
HETATM   18  C   UNL     1     -11.364  14.669  65.537  1.00  0.00    -0.341 C  
BRANCH   9  19
HETATM   19  C   UNL     1      -8.307  10.867  66.842  1.00  0.00    -0.133 C  
HETATM   20  H   UNL     1      -7.137   9.646  65.858  1.00  0.00     0.000 HD 
HETATM   21  O   UNL     1      -7.378  10.563  65.918  1.00  0.00    -0.137 OA 
BRANCH  19  22
HETATM   22  N   UNL     1      -8.869   9.953  67.556  1.00  0.00    -0.128 NA 
HETATM   23  H   UNL     1      -9.546  10.178  68.285  1.00  0.00     0.000 HD 
BRANCH  22  24
HETATM   24  C   UNL     1      -8.475   8.560  67.255  1.00  0.00    -0.123 C  
BRANCH  24  25
HETATM   25  C   UNL     1      -9.492   7.956  66.278  1.00  0.00    -0.151 C  
HETATM   26  O   UNL     1      -9.025   8.088  64.937  1.00  0.00    -0.381 OA 
HETATM   27  H   UNL     1      -9.654   7.714  64.332  1.00  0.00     0.000 HD 
ENDBRANCH  24  25
ENDBRANCH  22  24
ENDBRANCH  19  22
ENDBRANCH   9  19
ENDBRANCH   5   7
ENDBRANCH   2   5
TORSDOF 6
ENDMDL
MODEL       74
REMARK 921   NORMALIZED FREE ENERGY PREDICTED BY IDOCK:   -3.93 KCAL/MOL
REMARK 922        TOTAL FREE ENERGY PREDICTED BY IDOCK:   -5.83 KCAL/MOL
REMARK 923 INTER-LIGAND FREE ENERGY PREDICTED BY IDOCK:   -5.53 KCAL/MOL
REMARK 924 INTRA-LIGAND FREE ENERGY PREDICTED BY IDOCK:   -0.30 KCAL/MOL
REMARK 927      BINDING AFFINITY PREDICTED BY RF-SCORE:    0.00 PKD
ROOT
HETATM    1  C   UNL     1     -10.116   7.178  73.872  1.00  0.00    -0.359 C  
HETATM    2  C   UNL     1     -10.211   8.051  72.660  1.00  0.00    -0.316 C  
HETATM    3  H   UNL     1      -9.258   9.476  71.752  1.00  0.00     0.000 HD 
HETATM    4  O   UNL     1      -9.197   8.921  72.521  1.00  0.00    -0.334 OA 
ENDROOT
BRANCH   2   5
HETATM    5  N   UNL     1     -11.191   7.951  71.820  1.00  0.00    -0.251 NA 
HETATM    6  H   UNL     1     -12.090   7.583  72.131  1.00  0.00     0.000 HD 
BRANCH   5   7
HETATM    7  C   UNL     1     -11.020   8.350  70.471  1.00  0.00    -0.242 A  
HETATM    8  C   UNL     1     -10.543   7.418  69.504  1.00  0.00    -0.237 A  
HETATM    9  C   UNL     1     -10.330   7.793  68.150  1.00  0.00    -0.248 A  
HETATM   10  I   UNL     1     -10.260   5.392  70.172  1.00  0.00    -0.324 I  
HETATM   11  C   UNL     1     -10.534   9.150  67.790  1.00  0.00    -0.247 A  
HETATM   12  O   UNL     1     -12.098  11.765  67.404  1.00  0.00    -0.595 OA 
HETATM   13  O   UNL     1     -10.665  12.369  69.047  1.00  0.00    -0.192 OA 
HETATM   14  I   UNL     1     -12.694  10.844  71.270  1.00  0.00    -0.405 I  
HETATM   15  C   UNL     1     -11.087  10.064  68.718  1.00  0.00    -0.219 A  
HETATM   16  I   UNL     1      -9.896   9.899  65.869  1.00  0.00    -0.278 I  
HETATM   17  C   UNL     1     -11.397   9.633  70.021  1.00  0.00    -0.195 A  
HETATM   18  C   UNL     1     -11.235  11.505  68.407  1.00  0.00    -0.255 C  
BRANCH   9  19
HETATM   19  C   UNL     1      -9.958   6.802  67.091  1.00  0.00    -0.167 C  
HETATM   20  H   UNL     1     -10.670   5.275  66.096  1.00  0.00     0.000 HD 
HETATM   21  O   UNL     1     -10.906   5.903  66.768  1.00  0.00    -0.308 OA 
BRANCH  19  22
HETATM   22  N   UNL     1      -8.786   6.765  66.553  1.00  0.00    -0.138 NA 
HETATM   23  H   UNL     1      -8.603   7.159  65.631  1.00  0.00     0.000 HD 
BRANCH  22  24
HETATM   24  C   UNL     1      -7.725   6.117  67.353  1.00  0.00    -0.094 C  
BRANCH  24  25
HETATM   25  C   UNL     1      -6.677   7.170  67.735  1.00  0.00    -0.064 C  
HETATM   26  O   UNL     1      -6.921   7.653  69.054  1.00  0.00    -0.065 OA 
HETATM   27  H   UNL     1      -6.272   8.304  69.290  1.00  0.00     0.000 HD 
ENDBRANCH  24  25
ENDBRANCH  22  24
ENDBRANCH  19  22
ENDBRANCH   9  19
ENDBRANCH   5   7
ENDBRANCH   2   5
TORSDOF 6
ENDMDL
MODEL       75
REMARK 921   NORMALIZED FREE ENERGY PREDICTED BY IDOCK:   -3.92 KCAL/MOL
REMARK 922        TOTAL FREE ENERGY PREDICTED BY IDOCK:   -5.82 KCAL/MOL
REMARK 923 INTER-LIGAND FREE ENERGY PREDICTED BY IDOCK:   -5.69 KCAL/MOL
REMARK 924 INTRA-LIGAND FREE ENERGY PREDICTED BY IDOCK:   -0.12 KCAL/MOL
REMARK 927      BINDING AFFINITY PREDICTED BY RF-SCORE:    0.00 PKD
ROOT
HETATM    1  C   UNL     1     -12.694   9.871  71.964  1.00  0.00    -0.456 C  
HETATM    2  C   UNL     1     -12.600  10.595  70.657  1.00  0.00    -0.365 C  
HETATM    3  H   UNL     1     -13.600  10.884  69.020  1.00  0.00     0.000 HD 
HETATM    4  O   UNL     1     -13.661  10.425  69.850  1.00  0.00     0.255 OA 
ENDROOT
BRANCH   2   5
HETATM    5  N   UNL     1     -11.578  11.330  70.355  1.00  0.00    -0.472 NA 
HETATM    6  H   UNL     1     -11.160  11.934  71.062  1.00  0.00     0.000 HD 
BRANCH   5   7
HETATM    7  C   UNL     1     -11.038  11.299  69.045  1.00  0.00    -0.244 A  
HETATM    8  C   UNL     1     -11.004  12.485  68.257  1.00  0.00    -0.240 A  
HETATM    9  C   UNL     1     -10.498  12.484  66.929  1.00  0.00    -0.244 A  
HETATM   10  I   UNL     1     -11.660  14.299  69.212  1.00  0.00    -0.409 I  
HETATM   11  C   UNL     1     -10.090  11.245  66.369  1.00  0.00    -0.220 A  
HETATM   12  O   UNL     1      -8.444   8.665  66.119  1.00  0.00    -0.120 OA 
HETATM   13  O   UNL     1     -10.481   7.819  66.619  1.00  0.00    -0.292 OA 
HETATM   14  I   UNL     1      -9.892   8.528  69.864  1.00  0.00    -0.214 I  
HETATM   15  C   UNL     1     -10.040  10.078  67.166  1.00  0.00    -0.265 A  
HETATM   16  I   UNL     1      -9.655  11.067  64.262  1.00  0.00    -0.312 I  
HETATM   17  C   UNL     1     -10.438  10.137  68.515  1.00  0.00    -0.195 A  
HETATM   18  C   UNL     1      -9.701   8.752  66.597  1.00  0.00    -0.242 C  
BRANCH   9  19
HETATM   19  C   UNL     1     -10.330  13.740  66.131  1.00  0.00    -0.301 C  
HETATM   20  H   UNL     1     -11.356  15.091  65.156  1.00  0.00     0.000 HD 
HETATM   21  O   UNL     1     -11.463  14.295  65.663  1.00  0.00    -0.318 OA 
BRANCH  19  22
HETATM   22  N   UNL     1      -9.174  14.239  65.854  1.00  0.00    -0.514 NA 
HETATM   23  H   UNL     1      -8.750  14.141  64.932  1.00  0.00     0.000 HD 
BRANCH  22  24
HETATM   24  C   UNL     1      -8.499  14.962  66.954  1.00  0.00    -0.223 C  
BRANCH  24  25
HETATM   25  C   UNL     1      -7.549  13.997  67.673  1.00  0.00    -0.179 C  
HETATM   26  O   UNL     1      -7.308  14.444  69.006  1.00  0.00    -0.123 OA 
HETATM   27  H   UNL     1      -6.720  13.847  69.451  1.00  0.00     0.000 HD 
ENDBRANCH  24  25
ENDBRANCH  22  24
ENDBRANCH  19  22
ENDBRANCH   9  19
ENDBRANCH   5   7
ENDBRANCH   2   5
TORSDOF 6
ENDMDL
MODEL       76
REMARK 921   NORMALIZED FREE ENERGY PREDICTED BY IDOCK:   -3.89 KCAL/MOL
REMARK 922        TOTAL FREE ENERGY PREDICTED BY IDOCK:   -5.78 KCAL/MOL
REMARK 923 INTER-LIGAND FREE ENERGY PREDICTED BY IDOCK:   -5.63 KCAL/MOL
REMARK 924 INTRA-LIGAND FREE ENERGY PREDICTED BY IDOCK:   -0.15 KCAL/MOL
REMARK 927      BINDING AFFINITY PREDICTED BY RF-SCORE:    0.00 PKD
ROOT
HETATM    1  C   UNL     1      -7.889  10.428  69.597  1.00  0.00    -0.138 C  
HETATM    2  C   UNL     1      -6.915  11.556  69.457  1.00  0.00    -0.034 C  
HETATM    3  H   UNL     1      -5.560  12.510  70.466  1.00  0.00     0.000 HD 
HETATM    4  O   UNL     1      -6.178  11.793  70.555  1.00  0.00    -0.267 OA 
ENDROOT
BRANCH   2   5
HETATM    5  N   UNL     1      -6.799  12.226  68.356  1.00  0.00    -0.069 NA 
HETATM    6  H   UNL     1      -5.879  12.542  68.048  1.00  0.00     0.000 HD 
BRANCH   5   7
HETATM    7  C   UNL     1      -7.943  12.524  67.575  1.00  0.00    -0.175 A  
HETATM    8  C   UNL     1      -8.695  13.707  67.829  1.00  0.00    -0.184 A  
HETATM    9  C   UNL     1      -9.866  14.020  67.087  1.00  0.00    -0.240 A  
HETATM   10  I   UNL     1      -7.912  15.049  69.319  1.00  0.00    -0.044 I  
HETATM   11  C   UNL     1     -10.320  13.081  66.124  1.00  0.00    -0.278 A  
HETATM   12  O   UNL     1     -10.188  11.332  63.604  1.00  0.00    -0.320 OA 
HETATM   13  O   UNL     1     -10.189   9.747  65.218  1.00  0.00    -0.216 OA 
HETATM   14  I   UNL     1      -6.893  10.311  65.662  1.00  0.00    -0.089 I  
HETATM   15  C   UNL     1      -9.540  11.946  65.805  1.00  0.00    -0.241 A  
HETATM   16  I   UNL     1     -12.266  13.279  65.210  1.00  0.00    -0.547 I  
HETATM   17  C   UNL     1      -8.323  11.723  66.477  1.00  0.00    -0.093 A  
HETATM   18  C   UNL     1     -10.021  10.901  64.870  1.00  0.00    -0.303 C  
BRANCH   9  19
HETATM   19  C   UNL     1     -10.595  15.320  67.244  1.00  0.00    -0.290 C  
HETATM   20  H   UNL     1     -10.566  17.180  66.641  1.00  0.00     0.000 HD 
HETATM   21  O   UNL     1     -10.104  16.357  66.541  1.00  0.00    -0.270 OA 
BRANCH  19  22
HETATM   22  N   UNL     1     -11.597  15.463  68.043  1.00  0.00    -0.331 NA 
HETATM   23  H   UNL     1     -12.369  16.096  67.832  1.00  0.00     0.000 HD 
BRANCH  22  24
HETATM   24  C   UNL     1     -11.561  14.657  69.281  1.00  0.00    -0.302 C  
BRANCH  24  25
HETATM   25  C   UNL     1     -12.088  15.507  70.443  1.00  0.00    -0.392 C  
HETATM   26  O   UNL     1     -13.499  15.675  70.331  1.00  0.00    -0.804 OA 
HETATM   27  H   UNL     1     -13.826  16.202  71.051  1.00  0.00     0.000 HD 
ENDBRANCH  24  25
ENDBRANCH  22  24
ENDBRANCH  19  22
ENDBRANCH   9  19
ENDBRANCH   5   7
ENDBRANCH   2   5
TORSDOF 6
ENDMDL
MODEL       77
REMARK 921   NORMALIZED FREE ENERGY PREDICTED BY IDOCK:   -3.87 KCAL/MOL
REMARK 922        TOTAL FREE ENERGY PREDICTED BY IDOCK:   -5.74 KCAL/MOL
REMARK 923 INTER-LIGAND FREE ENERGY PREDICTED BY IDOCK:   -5.16 KCAL/MOL
REMARK 924 INTRA-LIGAND FREE ENERGY PREDICTED BY IDOCK:   -0.58 KCAL/MOL
REMARK 927      BINDING AFFINITY PREDICTED BY RF-SCORE:    0.00 PKD
ROOT
HETATM    1  C   UNL     1      -7.926   8.342  69.265  1.00  0.00    -0.114 C  
HETATM    2  C   UNL     1      -8.274   9.759  68.932  1.00  0.00    -0.117 C  
HETATM    3  H   UNL     1      -9.530  11.156  69.419  1.00  0.00     0.000 HD 
HETATM    4  O   UNL     1      -9.309  10.256  69.630  1.00  0.00    -0.205 OA 
ENDROOT
BRANCH   2   5
HETATM    5  N   UNL     1      -7.610  10.437  68.051  1.00  0.00    -0.091 NA 
HETATM    6  H   UNL     1      -6.707  10.097  67.724  1.00  0.00     0.000 HD 
BRANCH   5   7
HETATM    7  C   UNL     1      -8.135  11.650  67.540  1.00  0.00    -0.144 A  
HETATM    8  C   UNL     1      -7.603  12.899  67.972  1.00  0.00    -0.137 A  
HETATM    9  C   UNL     1      -8.125  14.135  67.504  1.00  0.00    -0.199 A  
HETATM   10  I   UNL     1      -5.902  12.821  69.289  1.00  0.00    -0.110 I  
HETATM   11  C   UNL     1      -9.252  14.102  66.641  1.00  0.00    -0.252 A  
HETATM   12  O   UNL     1     -10.854  13.411  64.114  1.00  0.00    -0.390 OA 
HETATM   13  O   UNL     1     -11.942  12.166  65.657  1.00  0.00    -0.503 OA 
HETATM   14  I   UNL     1      -9.498   9.854  65.400  1.00  0.00    -0.341 I  
HETATM   15  C   UNL     1      -9.736  12.871  66.139  1.00  0.00    -0.250 A  
HETATM   16  I   UNL     1     -10.342  15.903  66.166  1.00  0.00    -0.361 I  
HETATM   17  C   UNL     1      -9.121  11.667  66.531  1.00  0.00    -0.197 A  
HETATM   18  C   UNL     1     -10.959  12.790  65.306  1.00  0.00    -0.284 C  
BRANCH   9  19
HETATM   19  C   UNL     1      -7.498  15.453  67.840  1.00  0.00    -0.140 C  
HETATM   20  H   UNL     1      -7.476  16.836  69.224  1.00  0.00     0.000 HD 
HETATM   21  O   UNL     1      -7.874  16.000  69.011  1.00  0.00    -0.196 OA 
BRANCH  19  22
HETATM   22  N   UNL     1      -6.691  16.063  67.041  1.00  0.00    -0.264 NA 
HETATM   23  H   UNL     1      -6.461  15.692  66.119  1.00  0.00     0.000 HD 
BRANCH  22  24
HETATM   24  C   UNL     1      -6.117  17.331  67.541  1.00  0.00    -0.145 C  
BRANCH  24  25
HETATM   25  C   UNL     1      -6.740  18.498  66.766  1.00  0.00    -0.189 C  
HETATM   26  O   UNL     1      -7.190  18.056  65.487  1.00  0.00    -0.532 OA 
HETATM   27  H   UNL     1      -7.576  18.779  65.007  1.00  0.00     0.000 HD 
ENDBRANCH  24  25
ENDBRANCH  22  24
ENDBRANCH  19  22
ENDBRANCH   9  19
ENDBRANCH   5   7
ENDBRANCH   2   5
TORSDOF 6
ENDMDL
MODEL       78
REMARK 921   NORMALIZED FREE ENERGY PREDICTED BY IDOCK:   -3.82 KCAL/MOL
REMARK 922        TOTAL FREE ENERGY PREDICTED BY IDOCK:   -5.68 KCAL/MOL
REMARK 923 INTER-LIGAND FREE ENERGY PREDICTED BY IDOCK:   -5.48 KCAL/MOL
REMARK 924 INTRA-LIGAND FREE ENERGY PREDICTED BY IDOCK:   -0.20 KCAL/MOL
REMARK 927      BINDING AFFINITY PREDICTED BY RF-SCORE:    0.00 PKD
ROOT
HETATM    1  C   UNL     1     -11.157   8.329  72.258  1.00  0.00    -0.429 C  
HETATM    2  C   UNL     1     -10.568   8.761  70.952  1.00  0.00    -0.220 C  
HETATM    3  H   UNL     1      -8.985   9.611  70.221  1.00  0.00     0.000 HD 
HETATM    4  O   UNL     1      -9.358   9.337  71.051  1.00  0.00    -0.259 OA 
ENDROOT
BRANCH   2   5
HETATM    5  N   UNL     1     -11.184   8.573  69.829  1.00  0.00    -0.445 NA 
HETATM    6  H   UNL     1     -12.129   8.190  69.826  1.00  0.00     0.000 HD 
BRANCH   5   7
HETATM    7  C   UNL     1     -10.551   8.896  68.603  1.00  0.00    -0.147 A  
HETATM    8  C   UNL     1     -10.689  10.200  68.048  1.00  0.00    -0.260 A  
HETATM    9  C   UNL     1     -10.094  10.549  66.805  1.00  0.00    -0.270 A  
HETATM   10  I   UNL     1     -11.754  11.647  69.233  1.00  0.00    -0.404 I  
HETATM   11  C   UNL     1      -9.412   9.536  66.081  1.00  0.00    -0.221 A  
HETATM   12  O   UNL     1      -7.282   7.386  65.558  1.00  0.00    -0.063 OA 
HETATM   13  O   UNL     1      -9.148   6.113  65.670  1.00  0.00    -0.107 OA 
HETATM   14  I   UNL     1      -8.954   6.264  69.035  1.00  0.00    -0.121 I  
HETATM   15  C   UNL     1      -9.197   8.263  66.658  1.00  0.00    -0.224 A  
HETATM   16  I   UNL     1      -8.793   9.855  64.038  1.00  0.00    -0.278 I  
HETATM   17  C   UNL     1      -9.699   7.984  67.943  1.00  0.00    -0.160 A  
HETATM   18  C   UNL     1      -8.565   7.155  65.902  1.00  0.00    -0.148 C  
BRANCH   9  19
HETATM   19  C   UNL     1     -10.113  11.947  66.268  1.00  0.00    -0.220 C  
HETATM   20  H   UNL     1     -11.183  13.153  65.161  1.00  0.00     0.000 HD 
HETATM   21  O   UNL     1     -11.171  12.267  65.501  1.00  0.00    -0.310 OA 
BRANCH  19  22
HETATM   22  N   UNL     1      -9.154  12.784  66.474  1.00  0.00    -0.376 NA 
HETATM   23  H   UNL     1      -8.175  12.497  66.463  1.00  0.00     0.000 HD 
BRANCH  22  24
HETATM   24  C   UNL     1      -9.557  14.184  66.726  1.00  0.00    -0.282 C  
BRANCH  24  25
HETATM   25  C   UNL     1      -8.858  14.681  67.997  1.00  0.00    -0.169 C  
HETATM   26  O   UNL     1      -8.568  13.585  68.861  1.00  0.00    -0.364 OA 
HETATM   27  H   UNL     1      -8.136  13.893  69.648  1.00  0.00     0.000 HD 
ENDBRANCH  24  25
ENDBRANCH  22  24
ENDBRANCH  19  22
ENDBRANCH   9  19
ENDBRANCH   5   7
ENDBRANCH   2   5
TORSDOF 6
ENDMDL
MODEL       79
REMARK 921   NORMALIZED FREE ENERGY PREDICTED BY IDOCK:   -3.79 KCAL/MOL
REMARK 922        TOTAL FREE ENERGY PREDICTED BY IDOCK:   -5.64 KCAL/MOL
REMARK 923 INTER-LIGAND FREE ENERGY PREDICTED BY IDOCK:   -5.16 KCAL/MOL
REMARK 924 INTRA-LIGAND FREE ENERGY PREDICTED BY IDOCK:   -0.49 KCAL/MOL
REMARK 927      BINDING AFFINITY PREDICTED BY RF-SCORE:    0.00 PKD
ROOT
HETATM    1  C   UNL     1      -7.173  14.874  67.730  1.00  0.00    -0.190 C  
HETATM    2  C   UNL     1      -8.221  14.514  68.737  1.00  0.00    -0.146 C  
HETATM    3  H   UNL     1      -9.194  15.271  70.235  1.00  0.00     0.000 HD 
HETATM    4  O   UNL     1      -8.529  15.500  69.596  1.00  0.00    -0.244 OA 
ENDROOT
BRANCH   2   5
HETATM    5  N   UNL     1      -8.782  13.347  68.752  1.00  0.00    -0.371 NA 
HETATM    6  H   UNL     1      -9.083  12.940  69.637  1.00  0.00     0.000 HD 
BRANCH   5   7
HETATM    7  C   UNL     1      -8.980  12.633  67.545  1.00  0.00    -0.187 A  
HETATM    8  C   UNL     1      -8.140  11.529  67.220  1.00  0.00    -0.153 A  
HETATM    9  C   UNL     1      -8.290  10.811  66.003  1.00  0.00    -0.163 A  
HETATM   10  I   UNL     1      -6.702  10.938  68.708  1.00  0.00    -0.084 I  
HETATM   11  C   UNL     1      -9.258  11.267  65.070  1.00  0.00    -0.129 A  
HETATM   12  O   UNL     1     -12.056  11.987  64.029  1.00  0.00    -0.408 OA 
HETATM   13  O   UNL     1     -11.090  14.032  64.095  1.00  0.00    -0.257 OA 
HETATM   14  I   UNL     1     -11.702  14.128  67.411  1.00  0.00    -0.404 I  
HETATM   15  C   UNL     1     -10.153  12.306  65.415  1.00  0.00    -0.292 A  
HETATM   16  I   UNL     1      -9.320  10.484  63.059  1.00  0.00    -0.369 I  
HETATM   17  C   UNL     1     -10.055  12.922  66.677  1.00  0.00    -0.245 A  
HETATM   18  C   UNL     1     -11.119  12.866  64.440  1.00  0.00    -0.361 C  
BRANCH   9  19
HETATM   19  C   UNL     1      -7.509   9.569  65.700  1.00  0.00    -0.094 C  
HETATM   20  H   UNL     1      -5.743   8.969  65.109  1.00  0.00     0.000 HD 
HETATM   21  O   UNL     1      -6.238   9.757  65.301  1.00  0.00    -0.074 OA 
BRANCH  19  22
HETATM   22  N   UNL     1      -8.027   8.389  65.761  1.00  0.00    -0.103 NA 
HETATM   23  H   UNL     1      -7.982   7.739  64.977  1.00  0.00     0.000 HD 
BRANCH  22  24
HETATM   24  C   UNL     1      -8.691   8.036  67.035  1.00  0.00    -0.128 C  
BRANCH  24  25
HETATM   25  C   UNL     1     -10.173   7.755  66.761  1.00  0.00    -0.276 C  
HETATM   26  O   UNL     1     -10.945   7.996  67.935  1.00  0.00    -0.477 OA 
HETATM   27  H   UNL     1     -11.863   7.822  67.766  1.00  0.00     0.000 HD 
ENDBRANCH  24  25
ENDBRANCH  22  24
ENDBRANCH  19  22
ENDBRANCH   9  19
ENDBRANCH   5   7
ENDBRANCH   2   5
TORSDOF 6
ENDMDL
MODEL       80
REMARK 921   NORMALIZED FREE ENERGY PREDICTED BY IDOCK:   -3.77 KCAL/MOL
REMARK 922        TOTAL FREE ENERGY PREDICTED BY IDOCK:   -5.62 KCAL/MOL
REMARK 923 INTER-LIGAND FREE ENERGY PREDICTED BY IDOCK:   -5.43 KCAL/MOL
REMARK 924 INTRA-LIGAND FREE ENERGY PREDICTED BY IDOCK:   -0.19 KCAL/MOL
REMARK 927      BINDING AFFINITY PREDICTED BY RF-SCORE:    0.00 PKD
ROOT
HETATM    1  C   UNL     1      -9.780   8.875  71.538  1.00  0.00    -0.372 C  
HETATM    2  C   UNL     1     -10.210   8.465  70.165  1.00  0.00    -0.195 C  
HETATM    3  H   UNL     1      -9.688   7.293  68.710  1.00  0.00     0.000 HD 
HETATM    4  O   UNL     1      -9.415   7.553  69.582  1.00  0.00    -0.157 OA 
ENDROOT
BRANCH   2   5
HETATM    5  N   UNL     1     -11.273   8.951  69.608  1.00  0.00    -0.436 NA 
HETATM    6  H   UNL     1     -11.952   8.324  69.177  1.00  0.00     0.000 HD 
BRANCH   5   7
HETATM    7  C   UNL     1     -11.497  10.350  69.594  1.00  0.00    -0.262 A  
HETATM    8  C   UNL     1     -10.944  11.154  68.556  1.00  0.00    -0.220 A  
HETATM    9  C   UNL     1     -11.122  12.564  68.529  1.00  0.00    -0.297 A  
HETATM   10  I   UNL     1      -9.914  10.117  66.976  1.00  0.00    -0.291 I  
HETATM   11  C   UNL     1     -11.809  13.173  69.612  1.00  0.00    -0.324 A  
HETATM   12  O   UNL     1     -14.160  13.741  71.502  1.00  0.00    -0.215 OA 
HETATM   13  O   UNL     1     -12.706  12.751  72.924  1.00  0.00     0.326 OA 
HETATM   14  I   UNL     1     -13.688   9.757  71.718  1.00  0.00    -0.067 I  
HETATM   15  C   UNL     1     -12.434  12.381  70.602  1.00  0.00    -0.320 A  
HETATM   16  I   UNL     1     -11.818  15.318  69.856  1.00  0.00    -0.423 I  
HETATM   17  C   UNL     1     -12.338  10.978  70.538  1.00  0.00    -0.373 A  
HETATM   18  C   UNL     1     -13.086  12.981  71.791  1.00  0.00    -0.373 C  
BRANCH   9  19
HETATM   19  C   UNL     1     -10.665  13.410  67.381  1.00  0.00    -0.262 C  
HETATM   20  H   UNL     1     -11.075  13.815  65.512  1.00  0.00     0.000 HD 
HETATM   21  O   UNL     1     -11.364  13.278  66.239  1.00  0.00    -0.295 OA 
BRANCH  19  22
HETATM   22  N   UNL     1      -9.633  14.180  67.452  1.00  0.00    -0.224 NA 
HETATM   23  H   UNL     1      -9.716  15.179  67.643  1.00  0.00     0.000 HD 
BRANCH  22  24
HETATM   24  C   UNL     1      -8.322  13.530  67.241  1.00  0.00    -0.179 C  
BRANCH  24  25
HETATM   25  C   UNL     1      -7.352  14.000  68.332  1.00  0.00    -0.113 C  
HETATM   26  O   UNL     1      -8.077  14.503  69.452  1.00  0.00    -0.355 OA 
HETATM   27  H   UNL     1      -7.477  14.794  70.128  1.00  0.00     0.000 HD 
ENDBRANCH  24  25
ENDBRANCH  22  24
ENDBRANCH  19  22
ENDBRANCH   9  19
ENDBRANCH   5   7
ENDBRANCH   2   5
TORSDOF 6
ENDMDL
MODEL       81
REMARK 921   NORMALIZED FREE ENERGY PREDICTED BY IDOCK:   -3.77 KCAL/MOL
REMARK 922        TOTAL FREE ENERGY PREDICTED BY IDOCK:   -5.61 KCAL/MOL
REMARK 923 INTER-LIGAND FREE ENERGY PREDICTED BY IDOCK:   -5.22 KCAL/MOL
REMARK 924 INTRA-LIGAND FREE ENERGY PREDICTED BY IDOCK:   -0.39 KCAL/MOL
REMARK 927      BINDING AFFINITY PREDICTED BY RF-SCORE:    0.00 PKD
ROOT
HETATM    1  C   UNL     1      -6.217  18.661  68.463  1.00  0.00    -0.222 C  
HETATM    2  C   UNL     1      -6.836  17.509  67.734  1.00  0.00    -0.174 C  
HETATM    3  H   UNL     1      -6.912  16.710  65.968  1.00  0.00     0.000 HD 
HETATM    4  O   UNL     1      -6.519  17.441  66.430  1.00  0.00    -0.210 OA 
ENDROOT
BRANCH   2   5
HETATM    5  N   UNL     1      -7.600  16.653  68.333  1.00  0.00    -0.187 NA 
HETATM    6  H   UNL     1      -7.645  16.637  69.351  1.00  0.00     0.000 HD 
BRANCH   5   7
HETATM    7  C   UNL     1      -8.374  15.735  67.579  1.00  0.00    -0.166 A  
HETATM    8  C   UNL     1      -8.034  14.352  67.567  1.00  0.00    -0.192 A  
HETATM    9  C   UNL     1      -8.768  13.410  66.797  1.00  0.00    -0.093 A  
HETATM   10  I   UNL     1      -6.418  13.743  68.852  1.00  0.00    -0.119 I  
HETATM   11  C   UNL     1      -9.817  13.892  65.971  1.00  0.00    -0.289 A  
HETATM   12  O   UNL     1     -12.477  15.273  65.302  1.00  0.00     0.222 OA 
HETATM   13  O   UNL     1     -11.007  16.703  64.348  1.00  0.00    -0.924 OA 
HETATM   14  I   UNL     1     -10.451  18.041  67.395  1.00  0.00    -0.274 I  
HETATM   15  C   UNL     1     -10.218  15.247  66.038  1.00  0.00    -0.335 A  
HETATM   16  I   UNL     1     -10.749  12.617  64.500  1.00  0.00    -0.463 I  
HETATM   17  C   UNL     1      -9.545  16.133  66.899  1.00  0.00    -0.230 A  
HETATM   18  C   UNL     1     -11.250  15.805  65.131  1.00  0.00    -0.248 C  
BRANCH   9  19
HETATM   19  C   UNL     1      -8.513  11.936  66.873  1.00  0.00    -0.174 C  
HETATM   20  H   UNL     1      -8.860  10.372  67.996  1.00  0.00     0.000 HD 
HETATM   21  O   UNL     1      -9.022  11.306  67.948  1.00  0.00    -0.138 OA 
BRANCH  19  22
HETATM   22  N   UNL     1      -7.805  11.307  65.998  1.00  0.00    -0.362 NA 
HETATM   23  H   UNL     1      -7.719  11.635  65.036  1.00  0.00     0.000 HD 
BRANCH  22  24
HETATM   24  C   UNL     1      -7.125  10.082  66.472  1.00  0.00    -0.097 C  
BRANCH  24  25
HETATM   25  C   UNL     1      -5.633  10.179  66.131  1.00  0.00    -0.062 C  
HETATM   26  O   UNL     1      -5.340  11.450  65.555  1.00  0.00    -0.487 OA 
HETATM   27  H   UNL     1      -4.416  11.510  65.344  1.00  0.00     0.000 HD 
ENDBRANCH  24  25
ENDBRANCH  22  24
ENDBRANCH  19  22
ENDBRANCH   9  19
ENDBRANCH   5   7
ENDBRANCH   2   5
TORSDOF 6
ENDMDL
MODEL       82
REMARK 921   NORMALIZED FREE ENERGY PREDICTED BY IDOCK:   -3.70 KCAL/MOL
REMARK 922        TOTAL FREE ENERGY PREDICTED BY IDOCK:   -5.51 KCAL/MOL
REMARK 923 INTER-LIGAND FREE ENERGY PREDICTED BY IDOCK:   -5.11 KCAL/MOL
REMARK 924 INTRA-LIGAND FREE ENERGY PREDICTED BY IDOCK:   -0.41 KCAL/MOL
REMARK 927      BINDING AFFINITY PREDICTED BY RF-SCORE:    0.00 PKD
ROOT
HETATM    1  C   UNL     1     -10.671   7.901  67.423  1.00  0.00    -0.278 C  
HETATM    2  C   UNL     1     -10.144   7.691  68.808  1.00  0.00    -0.194 C  
HETATM    3  H   UNL     1      -9.606   6.270  70.015  1.00  0.00     0.000 HD 
HETATM    4  O   UNL     1      -9.941   6.404  69.136  1.00  0.00    -0.143 OA 
ENDROOT
BRANCH   2   5
HETATM    5  N   UNL     1      -9.897   8.682  69.603  1.00  0.00    -0.183 NA 
HETATM    6  H   UNL     1      -9.879   8.531  70.611  1.00  0.00     0.000 HD 
BRANCH   5   7
HETATM    7  C   UNL     1      -9.653   9.975  69.079  1.00  0.00    -0.196 A  
HETATM    8  C   UNL     1     -10.590  11.026  69.298  1.00  0.00    -0.201 A  
HETATM    9  C   UNL     1     -10.392  12.326  68.760  1.00  0.00    -0.156 A  
HETATM   10  I   UNL     1     -12.267  10.575  70.569  1.00  0.00    -0.443 I  
HETATM   11  C   UNL     1      -9.263  12.542  67.927  1.00  0.00    -0.200 A  
HETATM   12  O   UNL     1      -6.287  12.679  67.184  1.00  0.00    -0.195 OA 
HETATM   13  O   UNL     1      -6.963  10.948  65.896  1.00  0.00    -0.114 OA 
HETATM   14  I   UNL     1      -6.756   8.951  68.607  1.00  0.00    -0.059 I  
HETATM   15  C   UNL     1      -8.283  11.534  67.770  1.00  0.00    -0.135 A  
HETATM   16  I   UNL     1      -9.063  14.355  66.773  1.00  0.00    -0.171 I  
HETATM   17  C   UNL     1      -8.450  10.292  68.412  1.00  0.00    -0.124 A  
HETATM   18  C   UNL     1      -7.137  11.690  66.843  1.00  0.00    -0.124 C  
BRANCH   9  19
HETATM   19  C   UNL     1     -11.292  13.478  69.086  1.00  0.00    -0.282 C  
HETATM   20  H   UNL     1     -12.959  14.333  68.523  1.00  0.00     0.000 HD 
HETATM   21  O   UNL     1     -12.388  13.603  68.316  1.00  0.00    -0.231 OA 
BRANCH  19  22
HETATM   22  N   UNL     1     -11.018  14.335  70.009  1.00  0.00    -0.464 NA 
HETATM   23  H   UNL     1     -10.079  14.716  70.130  1.00  0.00     0.000 HD 
BRANCH  22  24
HETATM   24  C   UNL     1     -12.144  14.734  70.881  1.00  0.00    -0.324 C  
BRANCH  24  25
HETATM   25  C   UNL     1     -11.583  15.258  72.208  1.00  0.00    -0.435 C  
HETATM   26  O   UNL     1     -12.461  16.235  72.763  1.00  0.00    -0.454 OA 
HETATM   27  H   UNL     1     -12.114  16.559  73.585  1.00  0.00     0.000 HD 
ENDBRANCH  24  25
ENDBRANCH  22  24
ENDBRANCH  19  22
ENDBRANCH   9  19
ENDBRANCH   5   7
ENDBRANCH   2   5
TORSDOF 6
ENDMDL
MODEL       83
REMARK 921   NORMALIZED FREE ENERGY PREDICTED BY IDOCK:   -3.69 KCAL/MOL
REMARK 922        TOTAL FREE ENERGY PREDICTED BY IDOCK:   -5.51 KCAL/MOL
REMARK 923 INTER-LIGAND FREE ENERGY PREDICTED BY IDOCK:   -5.82 KCAL/MOL
REMARK 924 INTRA-LIGAND FREE ENERGY PREDICTED BY IDOCK:    0.32 KCAL/MOL
REMARK 927      BINDING AFFINITY PREDICTED BY RF-SCORE:    0.00 PKD
ROOT
HETATM    1  C   UNL     1     -13.440   7.528  71.248  1.00  0.00    -0.325 C  
HETATM    2  C   UNL     1     -13.256   8.921  71.765  1.00  0.00    -0.378 C  
HETATM    3  H   UNL     1     -14.242  10.345  72.639  1.00  0.00     0.000 HD 
HETATM    4  O   UNL     1     -14.359   9.461  72.311  1.00  0.00    -0.251 OA 
ENDROOT
BRANCH   2   5
HETATM    5  N   UNL     1     -12.117   9.531  71.696  1.00  0.00    -0.378 NA 
HETATM    6  H   UNL     1     -11.548   9.641  72.535  1.00  0.00     0.000 HD 
BRANCH   5   7
HETATM    7  C   UNL     1     -11.656  10.046  70.459  1.00  0.00    -0.323 A  
HETATM    8  C   UNL     1     -11.857  11.419  70.136  1.00  0.00    -0.355 A  
HETATM    9  C   UNL     1     -11.436  11.962  68.892  1.00  0.00    -0.358 A  
HETATM   10  I   UNL     1     -12.736  12.653  71.665  1.00  0.00     0.141 I  
HETATM   11  C   UNL     1     -10.869  11.081  67.934  1.00  0.00    -0.237 A  
HETATM   12  O   UNL     1      -8.851   9.065  66.798  1.00  0.00    -0.123 OA 
HETATM   13  O   UNL     1     -10.695   7.766  66.968  1.00  0.00    -0.347 OA 
HETATM   14  I   UNL     1     -10.038   7.400  70.257  1.00  0.00    -0.215 I  
HETATM   15  C   UNL     1     -10.588   9.737  68.273  1.00  0.00    -0.271 A  
HETATM   16  I   UNL     1     -10.535  11.718  65.899  1.00  0.00    -0.336 I  
HETATM   17  C   UNL     1     -10.911   9.258  69.556  1.00  0.00    -0.195 A  
HETATM   18  C   UNL     1     -10.076   8.767  67.275  1.00  0.00    -0.236 C  
BRANCH   9  19
HETATM   19  C   UNL     1     -11.516  13.426  68.584  1.00  0.00    -0.310 C  
HETATM   20  H   UNL     1     -12.453  14.706  67.439  1.00  0.00     0.000 HD 
HETATM   21  O   UNL     1     -12.402  13.778  67.634  1.00  0.00    -0.260 OA 
BRANCH  19  22
HETATM   22  N   UNL     1     -10.751  14.298  69.147  1.00  0.00    -0.311 NA 
HETATM   23  H   UNL     1     -10.158  14.062  69.943  1.00  0.00     0.000 HD 
BRANCH  22  24
HETATM   24  C   UNL     1     -10.784  15.659  68.571  1.00  0.00    -0.264 C  
BRANCH  24  25
HETATM   25  C   UNL     1      -9.348  16.185  68.456  1.00  0.00    -0.209 C  
HETATM   26  O   UNL     1      -9.305  17.574  68.778  1.00  0.00    -0.280 OA 
HETATM   27  H   UNL     1      -8.416  17.899  68.707  1.00  0.00     0.000 HD 
ENDBRANCH  24  25
ENDBRANCH  22  24
ENDBRANCH  19  22
ENDBRANCH   9  19
ENDBRANCH   5   7
ENDBRANCH   2   5
TORSDOF 6
ENDMDL
MODEL       84
REMARK 921   NORMALIZED FREE ENERGY PREDICTED BY IDOCK:   -3.68 KCAL/MOL
REMARK 922        TOTAL FREE ENERGY PREDICTED BY IDOCK:   -5.49 KCAL/MOL
REMARK 923 INTER-LIGAND FREE ENERGY PREDICTED BY IDOCK:   -5.56 KCAL/MOL
REMARK 924 INTRA-LIGAND FREE ENERGY PREDICTED BY IDOCK:    0.07 KCAL/MOL
REMARK 927      BINDING AFFINITY PREDICTED BY RF-SCORE:    0.00 PKD
ROOT
HETATM    1  C   UNL     1      -7.855   8.517  62.952  1.00  0.00    -0.146 C  
HETATM    2  C   UNL     1      -8.222   9.004  64.319  1.00  0.00    -0.164 C  
HETATM    3  H   UNL     1      -7.488  10.011  65.806  1.00  0.00     0.000 HD 
HETATM    4  O   UNL     1      -7.255   9.702  64.938  1.00  0.00    -0.106 OA 
ENDROOT
BRANCH   2   5
HETATM    5  N   UNL     1      -9.385   8.772  64.838  1.00  0.00    -0.370 NA 
HETATM    6  H   UNL     1      -9.960   8.012  64.476  1.00  0.00     0.000 HD 
BRANCH   5   7
HETATM    7  C   UNL     1      -9.862   9.569  65.908  1.00  0.00    -0.290 A  
HETATM    8  C   UNL     1      -9.728   9.118  67.253  1.00  0.00    -0.173 A  
HETATM    9  C   UNL     1     -10.224   9.877  68.347  1.00  0.00    -0.203 A  
HETATM   10  I   UNL     1      -8.647   7.281  67.552  1.00  0.00    -0.121 I  
HETATM   11  C   UNL     1     -10.931  11.075  68.065  1.00  0.00    -0.258 A  
HETATM   12  O   UNL     1     -11.355  13.913  66.972  1.00  0.00    -0.303 OA 
HETATM   13  O   UNL     1     -12.731  12.731  65.622  1.00  0.00    -0.549 OA 
HETATM   14  I   UNL     1     -10.041  11.839  63.792  1.00  0.00    -0.451 I  
HETATM   15  C   UNL     1     -10.998  11.576  66.744  1.00  0.00    -0.347 A  
HETATM   16  I   UNL     1     -12.032  12.105  69.610  1.00  0.00    -0.156 I  
HETATM   17  C   UNL     1     -10.395  10.859  65.694  1.00  0.00    -0.242 A  
HETATM   18  C   UNL     1     -11.797  12.776  66.399  1.00  0.00    -0.408 C  
BRANCH   9  19
HETATM   19  C   UNL     1      -9.978   9.489  69.772  1.00  0.00    -0.213 C  
HETATM   20  H   UNL     1     -10.677   8.343  71.196  1.00  0.00     0.000 HD 
HETATM   21  O   UNL     1     -10.833   8.589  70.292  1.00  0.00    -0.235 OA 
BRANCH  19  22
HETATM   22  N   UNL     1      -9.043  10.017  70.486  1.00  0.00    -0.315 NA 
HETATM   23  H   UNL     1      -9.234  10.748  71.171  1.00  0.00     0.000 HD 
BRANCH  22  24
HETATM   24  C   UNL     1      -7.677   9.501  70.252  1.00  0.00    -0.161 C  
BRANCH  24  25
HETATM   25  C   UNL     1      -7.202   8.765  71.511  1.00  0.00    -0.088 C  
HETATM   26  O   UNL     1      -6.086   9.441  72.085  1.00  0.00    -0.263 OA 
HETATM   27  H   UNL     1      -5.791   8.986  72.865  1.00  0.00     0.000 HD 
ENDBRANCH  24  25
ENDBRANCH  22  24
ENDBRANCH  19  22
ENDBRANCH   9  19
ENDBRANCH   5   7
ENDBRANCH   2   5
TORSDOF 6
ENDMDL
MODEL       85
REMARK 921   NORMALIZED FREE ENERGY PREDICTED BY IDOCK:   -3.67 KCAL/MOL
REMARK 922        TOTAL FREE ENERGY PREDICTED BY IDOCK:   -5.47 KCAL/MOL
REMARK 923 INTER-LIGAND FREE ENERGY PREDICTED BY IDOCK:   -5.33 KCAL/MOL
REMARK 924 INTRA-LIGAND FREE ENERGY PREDICTED BY IDOCK:   -0.14 KCAL/MOL
REMARK 927      BINDING AFFINITY PREDICTED BY RF-SCORE:    0.00 PKD
ROOT
HETATM    1  C   UNL     1     -10.207   8.510  67.210  1.00  0.00    -0.346 C  
HETATM    2  C   UNL     1      -9.406   8.426  68.472  1.00  0.00    -0.139 C  
HETATM    3  H   UNL     1      -8.188   7.241  69.406  1.00  0.00     0.000 HD 
HETATM    4  O   UNL     1      -8.696   7.294  68.605  1.00  0.00    -0.128 OA 
ENDROOT
BRANCH   2   5
HETATM    5  N   UNL     1      -9.401   9.383  69.343  1.00  0.00    -0.161 NA 
HETATM    6  H   UNL     1      -9.564   9.175  70.327  1.00  0.00     0.000 HD 
BRANCH   5   7
HETATM    7  C   UNL     1      -9.170  10.721  68.935  1.00  0.00    -0.173 A  
HETATM    8  C   UNL     1     -10.243  11.658  68.912  1.00  0.00    -0.125 A  
HETATM    9  C   UNL     1     -10.054  12.998  68.478  1.00  0.00    -0.195 A  
HETATM   10  I   UNL     1     -12.140  10.974  69.665  1.00  0.00    -0.227 I  
HETATM   11  C   UNL     1      -8.774  13.370  67.991  1.00  0.00    -0.178 A  
HETATM   12  O   UNL     1      -5.742  13.847  68.095  1.00  0.00    -0.103 OA 
HETATM   13  O   UNL     1      -5.848  12.125  66.633  1.00  0.00    -0.261 OA 
HETATM   14  I   UNL     1      -6.158  10.022  69.252  1.00  0.00    -0.045 I  
HETATM   15  C   UNL     1      -7.682  12.476  68.086  1.00  0.00    -0.141 A  
HETATM   16  I   UNL     1      -8.474  15.252  66.977  1.00  0.00    -0.236 I  
HETATM   17  C   UNL     1      -7.875  11.192  68.630  1.00  0.00    -0.138 A  
HETATM   18  C   UNL     1      -6.353  12.796  67.513  1.00  0.00    -0.162 C  
BRANCH   9  19
HETATM   19  C   UNL     1     -11.132  14.033  68.571  1.00  0.00    -0.257 C  
HETATM   20  H   UNL     1     -11.723  15.542  69.667  1.00  0.00     0.000 HD 
HETATM   21  O   UNL     1     -11.039  14.886  69.608  1.00  0.00    -0.257 OA 
BRANCH  19  22
HETATM   22  N   UNL     1     -12.123  14.082  67.748  1.00  0.00    -0.509 NA 
HETATM   23  H   UNL     1     -13.062  13.786  68.016  1.00  0.00     0.000 HD 
BRANCH  22  24
HETATM   24  C   UNL     1     -11.819  14.591  66.394  1.00  0.00    -0.349 C  
BRANCH  24  25
HETATM   25  C   UNL     1     -12.669  13.826  65.372  1.00  0.00    -0.472 C  
HETATM   26  O   UNL     1     -12.657  14.500  64.116  1.00  0.00    -0.730 OA 
HETATM   27  H   UNL     1     -13.183  14.026  63.483  1.00  0.00     0.000 HD 
ENDBRANCH  24  25
ENDBRANCH  22  24
ENDBRANCH  19  22
ENDBRANCH   9  19
ENDBRANCH   5   7
ENDBRANCH   2   5
TORSDOF 6
ENDMDL
MODEL       86
REMARK 921   NORMALIZED FREE ENERGY PREDICTED BY IDOCK:   -3.67 KCAL/MOL
REMARK 922        TOTAL FREE ENERGY PREDICTED BY IDOCK:   -5.47 KCAL/MOL
REMARK 923 INTER-LIGAND FREE ENERGY PREDICTED BY IDOCK:   -5.25 KCAL/MOL
REMARK 924 INTRA-LIGAND FREE ENERGY PREDICTED BY IDOCK:   -0.23 KCAL/MOL
REMARK 927      BINDING AFFINITY PREDICTED BY RF-SCORE:    0.00 PKD
ROOT
HETATM    1  C   UNL     1     -10.555  11.650  67.956  1.00  0.00    -0.232 C  
HETATM    2  C   UNL     1      -9.415  11.329  67.040  1.00  0.00    -0.171 C  
HETATM    3  H   UNL     1      -8.604   9.830  66.113  1.00  0.00     0.000 HD 
HETATM    4  O   UNL     1      -9.327  10.034  66.694  1.00  0.00    -0.158 OA 
ENDROOT
BRANCH   2   5
HETATM    5  N   UNL     1      -8.602  12.242  66.616  1.00  0.00    -0.351 NA 
HETATM    6  H   UNL     1      -7.634  12.001  66.405  1.00  0.00     0.000 HD 
BRANCH   5   7
HETATM    7  C   UNL     1      -9.050  13.576  66.444  1.00  0.00    -0.044 A  
HETATM    8  C   UNL     1      -8.394  14.644  67.121  1.00  0.00    -0.211 A  
HETATM    9  C   UNL     1      -8.836  15.989  66.997  1.00  0.00    -0.235 A  
HETATM   10  I   UNL     1      -6.638  14.135  68.258  1.00  0.00    -0.177 I  
HETATM   11  C   UNL     1     -10.006  16.242  66.234  1.00  0.00    -0.317 A  
HETATM   12  O   UNL     1     -11.791  16.292  63.736  1.00  0.00    -0.955 OA 
HETATM   13  O   UNL     1     -12.896  14.788  65.013  1.00  0.00    -0.359 OA 
HETATM   14  I   UNL     1     -10.669  12.447  64.044  1.00  0.00    -0.537 I  
HETATM   15  C   UNL     1     -10.616  15.204  65.490  1.00  0.00    -0.383 A  
HETATM   16  I   UNL     1     -10.966  18.174  66.278  1.00  0.00     0.933 I  
HETATM   17  C   UNL     1     -10.084  13.903  65.541  1.00  0.00    -0.298 A  
HETATM   18  C   UNL     1     -11.884  15.410  64.751  1.00  0.00    -0.169 C  
BRANCH   9  19
HETATM   19  C   UNL     1      -8.085  17.141  67.590  1.00  0.00    -0.179 C  
HETATM   20  H   UNL     1      -7.866  18.136  69.260  1.00  0.00     0.000 HD 
HETATM   21  O   UNL     1      -8.342  17.406  68.884  1.00  0.00    -0.249 OA 
BRANCH  19  22
HETATM   22  N   UNL     1      -7.281  17.876  66.901  1.00  0.00    -0.184 NA 
HETATM   23  H   UNL     1      -7.066  17.672  65.925  1.00  0.00     0.000 HD 
BRANCH  22  24
HETATM   24  C   UNL     1      -6.689  19.032  67.608  1.00  0.00    -0.204 C  
BRANCH  24  25
HETATM   25  C   UNL     1      -7.444  20.303  67.202  1.00  0.00    -0.297 C  
HETATM   26  O   UNL     1      -7.886  20.203  65.850  1.00  0.00    -0.467 OA 
HETATM   27  H   UNL     1      -8.354  20.990  65.598  1.00  0.00     0.000 HD 
ENDBRANCH  24  25
ENDBRANCH  22  24
ENDBRANCH  19  22
ENDBRANCH   9  19
ENDBRANCH   5   7
ENDBRANCH   2   5
TORSDOF 6
ENDMDL
MODEL       87
REMARK 921   NORMALIZED FREE ENERGY PREDICTED BY IDOCK:   -3.67 KCAL/MOL
REMARK 922        TOTAL FREE ENERGY PREDICTED BY IDOCK:   -5.47 KCAL/MOL
REMARK 923 INTER-LIGAND FREE ENERGY PREDICTED BY IDOCK:   -5.23 KCAL/MOL
REMARK 924 INTRA-LIGAND FREE ENERGY PREDICTED BY IDOCK:   -0.24 KCAL/MOL
REMARK 927      BINDING AFFINITY PREDICTED BY RF-SCORE:    0.00 PKD
ROOT
HETATM    1  C   UNL     1     -10.656   4.986  66.011  1.00  0.00    -0.286 C  
HETATM    2  C   UNL     1      -9.635   4.455  66.968  1.00  0.00    -0.198 C  
HETATM    3  H   UNL     1      -8.884   2.778  67.592  1.00  0.00     0.000 HD 
HETATM    4  O   UNL     1      -9.532   3.115  66.985  1.00  0.00    -0.178 OA 
ENDROOT
BRANCH   2   5
HETATM    5  N   UNL     1      -8.910   5.239  67.700  1.00  0.00    -0.106 NA 
HETATM    6  H   UNL     1      -8.098   4.868  68.191  1.00  0.00     0.000 HD 
BRANCH   5   7
HETATM    7  C   UNL     1      -9.241   6.612  67.820  1.00  0.00    -0.111 A  
HETATM    8  C   UNL     1      -9.957   7.079  68.960  1.00  0.00    -0.164 A  
HETATM    9  C   UNL     1     -10.332   8.442  69.098  1.00  0.00    -0.229 A  
HETATM   10  I   UNL     1     -10.350   5.639  70.511  1.00  0.00    -0.333 I  
HETATM   11  C   UNL     1     -10.041   9.329  68.029  1.00  0.00    -0.193 A  
HETATM   12  O   UNL     1      -8.284  10.871  66.038  1.00  0.00    -0.162 OA 
HETATM   13  O   UNL     1      -9.377   9.470  64.638  1.00  0.00    -0.240 OA 
HETATM   14  I   UNL     1      -7.208   7.036  65.507  1.00  0.00    -0.079 I  
HETATM   15  C   UNL     1      -9.259   8.898  66.932  1.00  0.00    -0.185 A  
HETATM   16  I   UNL     1     -10.880  11.317  67.973  1.00  0.00    -0.353 I  
HETATM   17  C   UNL     1      -8.802   7.568  66.880  1.00  0.00    -0.135 A  
HETATM   18  C   UNL     1      -9.007   9.768  65.758  1.00  0.00    -0.160 C  
BRANCH   9  19
HETATM   19  C   UNL     1     -10.965   8.980  70.344  1.00  0.00    -0.247 C  
HETATM   20  H   UNL     1     -10.529   9.576  72.156  1.00  0.00     0.000 HD 
HETATM   21  O   UNL     1     -10.127   9.235  71.366  1.00  0.00    -0.314 OA 
BRANCH  19  22
HETATM   22  N   UNL     1     -12.239   9.142  70.464  1.00  0.00    -0.477 NA 
HETATM   23  H   UNL     1     -12.857   9.179  69.653  1.00  0.00     0.000 HD 
BRANCH  22  24
HETATM   24  C   UNL     1     -12.751   9.269  71.845  1.00  0.00    -0.394 C  
BRANCH  24  25
HETATM   25  C   UNL     1     -13.390  10.653  72.012  1.00  0.00    -0.304 C  
HETATM   26  O   UNL     1     -12.734  11.604  71.177  1.00  0.00    -0.381 OA 
HETATM   27  H   UNL     1     -13.130  12.461  71.280  1.00  0.00     0.000 HD 
ENDBRANCH  24  25
ENDBRANCH  22  24
ENDBRANCH  19  22
ENDBRANCH   9  19
ENDBRANCH   5   7
ENDBRANCH   2   5
TORSDOF 6
ENDMDL
MODEL       88
REMARK 921   NORMALIZED FREE ENERGY PREDICTED BY IDOCK:   -3.63 KCAL/MOL
REMARK 922        TOTAL FREE ENERGY PREDICTED BY IDOCK:   -5.43 KCAL/MOL
REMARK 923 INTER-LIGAND FREE ENERGY PREDICTED BY IDOCK:   -5.35 KCAL/MOL
REMARK 924 INTRA-LIGAND FREE ENERGY PREDICTED BY IDOCK:   -0.07 KCAL/MOL
REMARK 927      BINDING AFFINITY PREDICTED BY RF-SCORE:    0.00 PKD
ROOT
HETATM    1  C   UNL     1     -14.185  15.188  71.331  1.00  0.00    -0.597 C  
HETATM    2  C   UNL     1     -12.780  15.035  70.836  1.00  0.00    -0.375 C  
HETATM    3  H   UNL     1     -10.957  14.931  71.489  1.00  0.00     0.000 HD 
HETATM    4  O   UNL     1     -11.848  15.028  71.803  1.00  0.00    -0.350 OA 
ENDROOT
BRANCH   2   5
HETATM    5  N   UNL     1     -12.510  14.906  69.577  1.00  0.00    -0.570 NA 
HETATM    6  H   UNL     1     -13.152  15.281  68.879  1.00  0.00     0.000 HD 
BRANCH   5   7
HETATM    7  C   UNL     1     -11.326  14.247  69.164  1.00  0.00    -0.276 A  
HETATM    8  C   UNL     1     -10.179  15.004  68.787  1.00  0.00    -0.235 A  
HETATM    9  C   UNL     1      -8.986  14.377  68.337  1.00  0.00    -0.188 A  
HETATM   10  I   UNL     1     -10.307  17.139  69.031  1.00  0.00    -0.092 I  
HETATM   11  C   UNL     1      -8.983  12.964  68.199  1.00  0.00    -0.202 A  
HETATM   12  O   UNL     1      -9.202  10.038  69.102  1.00  0.00    -0.167 OA 
HETATM   13  O   UNL     1     -11.029  10.209  67.780  1.00  0.00    -0.280 OA 
HETATM   14  I   UNL     1     -12.648  11.692  70.341  1.00  0.00     0.023 I  
HETATM   15  C   UNL     1     -10.083  12.196  68.647  1.00  0.00    -0.161 A  
HETATM   16  I   UNL     1      -7.367  11.949  67.188  1.00  0.00    -0.031 I  
HETATM   17  C   UNL     1     -11.206  12.841  69.197  1.00  0.00    -0.237 A  
HETATM   18  C   UNL     1     -10.152  10.730  68.442  1.00  0.00    -0.169 C  
BRANCH   9  19
HETATM   19  C   UNL     1      -7.728  15.142  68.064  1.00  0.00    -0.124 C  
HETATM   20  H   UNL     1      -6.020  15.634  68.882  1.00  0.00     0.000 HD 
HETATM   21  O   UNL     1      -6.817  15.149  69.055  1.00  0.00    -0.107 OA 
BRANCH  19  22
HETATM   22  N   UNL     1      -7.539  15.805  66.974  1.00  0.00    -0.223 NA 
HETATM   23  H   UNL     1      -8.049  15.590  66.117  1.00  0.00     0.000 HD 
BRANCH  22  24
HETATM   24  C   UNL     1      -6.542  16.895  67.040  1.00  0.00    -0.206 C  
BRANCH  24  25
HETATM   25  C   UNL     1      -6.839  17.908  65.928  1.00  0.00    -0.280 C  
HETATM   26  O   UNL     1      -8.217  18.274  65.949  1.00  0.00    -0.506 OA 
HETATM   27  H   UNL     1      -8.400  18.902  65.260  1.00  0.00     0.000 HD 
ENDBRANCH  24  25
ENDBRANCH  22  24
ENDBRANCH  19  22
ENDBRANCH   9  19
ENDBRANCH   5   7
ENDBRANCH   2   5
TORSDOF 6
ENDMDL
MODEL       89
REMARK 921   NORMALIZED FREE ENERGY PREDICTED BY IDOCK:   -3.63 KCAL/MOL
REMARK 922        TOTAL FREE ENERGY PREDICTED BY IDOCK:   -5.42 KCAL/MOL
REMARK 923 INTER-LIGAND FREE ENERGY PREDICTED BY IDOCK:   -5.03 KCAL/MOL
REMARK 924 INTRA-LIGAND FREE ENERGY PREDICTED BY IDOCK:   -0.40 KCAL/MOL
REMARK 927      BINDING AFFINITY PREDICTED BY RF-SCORE:    0.00 PKD
ROOT
HETATM    1  C   UNL     1     -11.901  14.213  65.404  1.00  0.00    -0.362 C  
HETATM    2  C   UNL     1     -10.980  13.295  66.145  1.00  0.00    -0.279 C  
HETATM    3  H   UNL     1      -9.257  13.288  67.037  1.00  0.00     0.000 HD 
HETATM    4  O   UNL     1      -9.842  13.871  66.567  1.00  0.00    -0.273 OA 
ENDROOT
BRANCH   2   5
HETATM    5  N   UNL     1     -11.281  12.055  66.362  1.00  0.00    -0.322 NA 
HETATM    6  H   UNL     1     -12.257  11.760  66.353  1.00  0.00     0.000 HD 
BRANCH   5   7
HETATM    7  C   UNL     1     -10.259  11.105  66.612  1.00  0.00    -0.232 A  
HETATM    8  C   UNL     1     -10.151  10.490  67.893  1.00  0.00    -0.176 A  
HETATM    9  C   UNL     1      -9.120   9.557  68.188  1.00  0.00    -0.128 A  
HETATM   10  I   UNL     1     -11.686  10.965  69.325  1.00  0.00    -0.338 I  
HETATM   11  C   UNL     1      -8.143   9.301  67.191  1.00  0.00    -0.109 A  
HETATM   12  O   UNL     1      -7.060   8.385  64.468  1.00  0.00    -0.075 OA 
HETATM   13  O   UNL     1      -6.658  10.608  64.355  1.00  0.00     0.012 OA 
HETATM   14  I   UNL     1      -9.895  11.071  63.526  1.00  0.00    -0.449 I  
HETATM   15  C   UNL     1      -8.286   9.839  65.891  1.00  0.00    -0.128 A  
HETATM   16  I   UNL     1      -6.347   8.195  67.652  1.00  0.00    -0.055 I  
HETATM   17  C   UNL     1      -9.384  10.668  65.595  1.00  0.00    -0.201 A  
HETATM   18  C   UNL     1      -7.245   9.664  64.850  1.00  0.00    -0.118 C  
BRANCH   9  19
HETATM   19  C   UNL     1      -9.065   8.801  69.480  1.00  0.00    -0.146 C  
HETATM   20  H   UNL     1      -8.643   9.027  71.376  1.00  0.00     0.000 HD 
HETATM   21  O   UNL     1      -8.677   9.507  70.557  1.00  0.00    -0.228 OA 
BRANCH  19  22
HETATM   22  N   UNL     1      -9.318   7.539  69.558  1.00  0.00    -0.153 NA 
HETATM   23  H   UNL     1      -8.575   6.840  69.566  1.00  0.00     0.000 HD 
BRANCH  22  24
HETATM   24  C   UNL     1     -10.746   7.165  69.636  1.00  0.00    -0.239 C  
BRANCH  24  25
HETATM   25  C   UNL     1     -11.028   6.062  68.608  1.00  0.00    -0.284 C  
HETATM   26  O   UNL     1     -11.460   6.635  67.376  1.00  0.00    -0.747 OA 
HETATM   27  H   UNL     1     -11.635   5.952  66.740  1.00  0.00     0.000 HD 
ENDBRANCH  24  25
ENDBRANCH  22  24
ENDBRANCH  19  22
ENDBRANCH   9  19
ENDBRANCH   5   7
ENDBRANCH   2   5
TORSDOF 6
ENDMDL
MODEL       90
REMARK 921   NORMALIZED FREE ENERGY PREDICTED BY IDOCK:   -3.61 KCAL/MOL
REMARK 922        TOTAL FREE ENERGY PREDICTED BY IDOCK:   -5.40 KCAL/MOL
REMARK 923 INTER-LIGAND FREE ENERGY PREDICTED BY IDOCK:   -4.96 KCAL/MOL
REMARK 924 INTRA-LIGAND FREE ENERGY PREDICTED BY IDOCK:   -0.44 KCAL/MOL
REMARK 927      BINDING AFFINITY PREDICTED BY RF-SCORE:    0.00 PKD
ROOT
HETATM    1  C   UNL     1      -6.417  18.036  65.771  1.00  0.00    -0.293 C  
HETATM    2  C   UNL     1      -7.088  18.452  67.043  1.00  0.00    -0.194 C  
HETATM    3  H   UNL     1      -7.679  20.042  67.983  1.00  0.00     0.000 HD 
HETATM    4  O   UNL     1      -7.253  19.778  67.176  1.00  0.00    -0.214 OA 
ENDROOT
BRANCH   2   5
HETATM    5  N   UNL     1      -7.482  17.587  67.922  1.00  0.00    -0.200 NA 
HETATM    6  H   UNL     1      -7.337  17.771  68.915  1.00  0.00     0.000 HD 
BRANCH   5   7
HETATM    7  C   UNL     1      -8.113  16.387  67.512  1.00  0.00    -0.148 A  
HETATM    8  C   UNL     1      -7.524  15.127  67.819  1.00  0.00    -0.162 A  
HETATM    9  C   UNL     1      -8.114  13.905  67.396  1.00  0.00    -0.190 A  
HETATM   10  I   UNL     1      -5.754  15.160  69.044  1.00  0.00    -0.106 I  
HETATM   11  C   UNL     1      -9.278  13.968  66.587  1.00  0.00    -0.244 A  
HETATM   12  O   UNL     1     -12.181  14.662  65.865  1.00  0.00    -0.282 OA 
HETATM   13  O   UNL     1     -11.057  16.002  64.430  1.00  0.00    -0.560 OA 
HETATM   14  I   UNL     1     -10.588  18.185  66.960  1.00  0.00    -0.104 I  
HETATM   15  C   UNL     1      -9.919  15.205  66.346  1.00  0.00    -0.288 A  
HETATM   16  I   UNL     1     -10.039  12.208  65.595  1.00  0.00    -0.256 I  
HETATM   17  C   UNL     1      -9.374  16.389  66.877  1.00  0.00    -0.227 A  
HETATM   18  C   UNL     1     -11.085  15.322  65.438  1.00  0.00    -0.347 C  
BRANCH   9  19
HETATM   19  C   UNL     1      -7.587  12.568  67.819  1.00  0.00    -0.138 C  
HETATM   20  H   UNL     1      -6.263  11.213  67.330  1.00  0.00     0.000 HD 
HETATM   21  O   UNL     1      -6.597  12.060  67.062  1.00  0.00    -0.148 OA 
BRANCH  19  22
HETATM   22  N   UNL     1      -8.078  11.909  68.812  1.00  0.00    -0.325 NA 
HETATM   23  H   UNL     1      -8.465  12.377  69.632  1.00  0.00     0.000 HD 
BRANCH  22  24
HETATM   24  C   UNL     1      -8.050  10.436  68.692  1.00  0.00    -0.118 C  
BRANCH  24  25
HETATM   25  C   UNL     1      -9.125   9.841  69.609  1.00  0.00    -0.220 C  
HETATM   26  O   UNL     1     -10.387   9.826  68.945  1.00  0.00    -0.193 OA 
HETATM   27  H   UNL     1     -11.052   9.457  69.513  1.00  0.00     0.000 HD 
ENDBRANCH  24  25
ENDBRANCH  22  24
ENDBRANCH  19  22
ENDBRANCH   9  19
ENDBRANCH   5   7
ENDBRANCH   2   5
TORSDOF 6
ENDMDL
MODEL       91
REMARK 921   NORMALIZED FREE ENERGY PREDICTED BY IDOCK:   -3.59 KCAL/MOL
REMARK 922        TOTAL FREE ENERGY PREDICTED BY IDOCK:   -5.36 KCAL/MOL
REMARK 923 INTER-LIGAND FREE ENERGY PREDICTED BY IDOCK:   -5.78 KCAL/MOL
REMARK 924 INTRA-LIGAND FREE ENERGY PREDICTED BY IDOCK:    0.41 KCAL/MOL
REMARK 927      BINDING AFFINITY PREDICTED BY RF-SCORE:    0.00 PKD
ROOT
HETATM    1  C   UNL     1     -13.669  15.756  72.466  1.00  0.00    -0.587 C  
HETATM    2  C   UNL     1     -12.580  15.645  71.444  1.00  0.00    -0.457 C  
HETATM    3  H   UNL     1     -10.657  15.825  71.267  1.00  0.00     0.000 HD 
HETATM    4  O   UNL     1     -11.347  15.895  71.916  1.00  0.00    -0.351 OA 
ENDROOT
BRANCH   2   5
HETATM    5  N   UNL     1     -12.827  15.320  70.216  1.00  0.00    -0.646 NA 
HETATM    6  H   UNL     1     -13.578  15.786  69.708  1.00  0.00     0.000 HD 
BRANCH   5   7
HETATM    7  C   UNL     1     -12.057  14.319  69.573  1.00  0.00    -0.330 A  
HETATM    8  C   UNL     1     -11.138  14.673  68.543  1.00  0.00    -0.260 A  
HETATM    9  C   UNL     1     -10.374  13.692  67.855  1.00  0.00    -0.249 A  
HETATM   10  I   UNL     1     -10.889  16.775  68.151  1.00  0.00    -0.130 I  
HETATM   11  C   UNL     1     -10.600  12.326  68.168  1.00  0.00    -0.214 A  
HETATM   12  O   UNL     1     -10.711   9.814  69.930  1.00  0.00    -0.231 OA 
HETATM   13  O   UNL     1     -12.910  10.126  69.501  1.00  0.00     0.187 OA 
HETATM   14  I   UNL     1     -12.965  12.485  71.912  1.00  0.00     0.033 I  
HETATM   15  C   UNL     1     -11.445  11.967  69.244  1.00  0.00    -0.366 A  
HETATM   16  I   UNL     1      -9.771  10.754  66.944  1.00  0.00    -0.239 I  
HETATM   17  C   UNL     1     -12.099  12.969  69.983  1.00  0.00    -0.297 A  
HETATM   18  C   UNL     1     -11.772  10.553  69.546  1.00  0.00    -0.241 C  
BRANCH   9  19
HETATM   19  C   UNL     1      -9.308  14.051  66.865  1.00  0.00    -0.257 C  
HETATM   20  H   UNL     1      -9.061  14.580  64.998  1.00  0.00     0.000 HD 
HETATM   21  O   UNL     1      -9.736  14.352  65.626  1.00  0.00    -0.300 OA 
BRANCH  19  22
HETATM   22  N   UNL     1      -8.052  14.022  67.154  1.00  0.00    -0.343 NA 
HETATM   23  H   UNL     1      -7.538  13.146  67.239  1.00  0.00     0.000 HD 
BRANCH  22  24
HETATM   24  C   UNL     1      -7.401  15.335  67.354  1.00  0.00    -0.210 C  
BRANCH  24  25
HETATM   25  C   UNL     1      -7.144  15.539  68.852  1.00  0.00    -0.134 C  
HETATM   26  O   UNL     1      -6.238  16.621  69.054  1.00  0.00    -0.153 OA 
HETATM   27  H   UNL     1      -6.079  16.747  69.982  1.00  0.00     0.000 HD 
ENDBRANCH  24  25
ENDBRANCH  22  24
ENDBRANCH  19  22
ENDBRANCH   9  19
ENDBRANCH   5   7
ENDBRANCH   2   5
TORSDOF 6
ENDMDL
MODEL       92
REMARK 921   NORMALIZED FREE ENERGY PREDICTED BY IDOCK:   -3.58 KCAL/MOL
REMARK 922        TOTAL FREE ENERGY PREDICTED BY IDOCK:   -5.36 KCAL/MOL
REMARK 923 INTER-LIGAND FREE ENERGY PREDICTED BY IDOCK:   -4.88 KCAL/MOL
REMARK 924 INTRA-LIGAND FREE ENERGY PREDICTED BY IDOCK:   -0.47 KCAL/MOL
REMARK 927      BINDING AFFINITY PREDICTED BY RF-SCORE:    0.00 PKD
ROOT
HETATM    1  C   UNL     1     -13.407  10.522  71.918  1.00  0.00    -0.461 C  
HETATM    2  C   UNL     1     -12.382  10.794  70.861  1.00  0.00    -0.396 C  
HETATM    3  H   UNL     1     -11.460  12.269  70.001  1.00  0.00     0.000 HD 
HETATM    4  O   UNL     1     -12.111  12.096  70.672  1.00  0.00    -0.365 OA 
ENDROOT
BRANCH   2   5
HETATM    5  N   UNL     1     -11.807   9.838  70.205  1.00  0.00    -0.446 NA 
HETATM    6  H   UNL     1     -12.373   9.137  69.729  1.00  0.00     0.000 HD 
BRANCH   5   7
HETATM    7  C   UNL     1     -10.393   9.762  70.145  1.00  0.00    -0.282 A  
HETATM    8  C   UNL     1      -9.675   9.006  71.115  1.00  0.00    -0.299 A  
HETATM    9  C   UNL     1      -8.255   8.935  71.104  1.00  0.00    -0.218 A  
HETATM   10  I   UNL     1     -10.848   7.895  72.536  1.00  0.00    -0.439 I  
HETATM   11  C   UNL     1      -7.554   9.701  70.137  1.00  0.00    -0.158 A  
HETATM   12  O   UNL     1      -6.707  10.616  67.331  1.00  0.00    -0.072 OA 
HETATM   13  O   UNL     1      -7.801  12.456  68.063  1.00  0.00    -0.120 OA 
HETATM   14  I   UNL     1     -10.712  10.938  67.285  1.00  0.00    -0.329 I  
HETATM   15  C   UNL     1      -8.255  10.387  69.119  1.00  0.00    -0.157 A  
HETATM   16  I   UNL     1      -5.413   9.953  70.259  1.00  0.00    -0.064 I  
HETATM   17  C   UNL     1      -9.661  10.344  69.088  1.00  0.00    -0.213 A  
HETATM   18  C   UNL     1      -7.563  11.266  68.145  1.00  0.00    -0.105 C  
BRANCH   9  19
HETATM   19  C   UNL     1      -7.488   8.042  72.030  1.00  0.00    -0.090 C  
HETATM   20  H   UNL     1      -6.691   8.001  73.816  1.00  0.00     0.000 HD 
HETATM   21  O   UNL     1      -7.178   8.567  73.229  1.00  0.00    -0.276 OA 
BRANCH  19  22
HETATM   22  N   UNL     1      -7.093   6.862  71.690  1.00  0.00    -0.073 NA 
HETATM   23  H   UNL     1      -6.518   6.703  70.863  1.00  0.00     0.000 HD 
BRANCH  22  24
HETATM   24  C   UNL     1      -7.522   5.755  72.572  1.00  0.00    -0.096 C  
BRANCH  24  25
HETATM   25  C   UNL     1      -7.931   4.559  71.704  1.00  0.00    -0.100 C  
HETATM   26  O   UNL     1      -8.968   4.937  70.800  1.00  0.00    -0.124 OA 
HETATM   27  H   UNL     1      -9.221   4.197  70.263  1.00  0.00     0.000 HD 
ENDBRANCH  24  25
ENDBRANCH  22  24
ENDBRANCH  19  22
ENDBRANCH   9  19
ENDBRANCH   5   7
ENDBRANCH   2   5
TORSDOF 6
ENDMDL
MODEL       93
REMARK 921   NORMALIZED FREE ENERGY PREDICTED BY IDOCK:   -3.56 KCAL/MOL
REMARK 922        TOTAL FREE ENERGY PREDICTED BY IDOCK:   -5.33 KCAL/MOL
REMARK 923 INTER-LIGAND FREE ENERGY PREDICTED BY IDOCK:   -5.13 KCAL/MOL
REMARK 924 INTRA-LIGAND FREE ENERGY PREDICTED BY IDOCK:   -0.20 KCAL/MOL
REMARK 927      BINDING AFFINITY PREDICTED BY RF-SCORE:    0.00 PKD
ROOT
HETATM    1  C   UNL     1      -8.763  11.148  62.330  1.00  0.00    -0.328 C  
HETATM    2  C   UNL     1      -9.229  10.034  63.214  1.00  0.00    -0.284 C  
HETATM    3  H   UNL     1      -9.084   8.109  63.414  1.00  0.00     0.000 HD 
HETATM    4  O   UNL     1      -8.788   8.817  62.853  1.00  0.00    -0.110 OA 
ENDROOT
BRANCH   2   5
HETATM    5  N   UNL     1      -9.982  10.248  64.245  1.00  0.00    -0.351 NA 
HETATM    6  H   UNL     1     -10.820   9.684  64.387  1.00  0.00     0.000 HD 
BRANCH   5   7
HETATM    7  C   UNL     1      -9.649  11.262  65.176  1.00  0.00    -0.235 A  
HETATM    8  C   UNL     1     -10.444  12.441  65.267  1.00  0.00    -0.286 A  
HETATM    9  C   UNL     1     -10.121  13.492  66.167  1.00  0.00    -0.307 A  
HETATM   10  I   UNL     1     -12.218  12.505  64.050  1.00  0.00    -0.571 I  
HETATM   11  C   UNL     1      -8.931  13.376  66.932  1.00  0.00    -0.209 A  
HETATM   12  O   UNL     1      -6.993  12.145  68.971  1.00  0.00    -0.103 OA 
HETATM   13  O   UNL     1      -5.843  11.825  67.049  1.00  0.00    -0.120 OA 
HETATM   14  I   UNL     1      -7.773   9.127  66.435  1.00  0.00    -0.096 I  
HETATM   15  C   UNL     1      -8.179  12.178  66.913  1.00  0.00    -0.134 A  
HETATM   16  I   UNL     1      -8.158  15.056  68.046  1.00  0.00    -0.180 I  
HETATM   17  C   UNL     1      -8.591  11.108  66.097  1.00  0.00    -0.172 A  
HETATM   18  C   UNL     1      -6.888  12.051  67.630  1.00  0.00    -0.115 C  
BRANCH   9  19
HETATM   19  C   UNL     1     -11.014  14.676  66.375  1.00  0.00    -0.325 C  
HETATM   20  H   UNL     1     -11.283  16.521  65.781  1.00  0.00     0.000 HD 
HETATM   21  O   UNL     1     -10.717  15.770  65.649  1.00  0.00    -0.334 OA 
BRANCH  19  22
HETATM   22  N   UNL     1     -11.976  14.680  67.233  1.00  0.00    -0.497 NA 
HETATM   23  H   UNL     1     -12.954  14.656  66.947  1.00  0.00     0.000 HD 
BRANCH  22  24
HETATM   24  C   UNL     1     -11.576  14.722  68.656  1.00  0.00    -0.319 C  
BRANCH  24  25
HETATM   25  C   UNL     1     -12.027  13.424  69.337  1.00  0.00    -0.315 C  
HETATM   26  O   UNL     1     -12.602  12.538  68.379  1.00  0.00     0.261 OA 
HETATM   27  H   UNL     1     -12.881  11.734  68.800  1.00  0.00     0.000 HD 
ENDBRANCH  24  25
ENDBRANCH  22  24
ENDBRANCH  19  22
ENDBRANCH   9  19
ENDBRANCH   5   7
ENDBRANCH   2   5
TORSDOF 6
ENDMDL
MODEL       94
REMARK 921   NORMALIZED FREE ENERGY PREDICTED BY IDOCK:   -3.51 KCAL/MOL
REMARK 922        TOTAL FREE ENERGY PREDICTED BY IDOCK:   -5.26 KCAL/MOL
REMARK 923 INTER-LIGAND FREE ENERGY PREDICTED BY IDOCK:   -5.35 KCAL/MOL
REMARK 924 INTRA-LIGAND FREE ENERGY PREDICTED BY IDOCK:    0.09 KCAL/MOL
REMARK 927      BINDING AFFINITY PREDICTED BY RF-SCORE:    0.00 PKD
ROOT
HETATM    1  C   UNL     1     -11.811  13.286  67.339  1.00  0.00    -0.413 C  
HETATM    2  C   UNL     1     -11.418  12.007  68.010  1.00  0.00    -0.328 C  
HETATM    3  H   UNL     1     -11.521  10.085  67.768  1.00  0.00     0.000 HD 
HETATM    4  O   UNL     1     -11.770  10.897  67.341  1.00  0.00    -0.510 OA 
ENDROOT
BRANCH   2   5
HETATM    5  N   UNL     1     -10.778  11.994  69.136  1.00  0.00    -0.404 NA 
HETATM    6  H   UNL     1     -10.770  12.827  69.724  1.00  0.00     0.000 HD 
BRANCH   5   7
HETATM    7  C   UNL     1     -10.089  10.829  69.554  1.00  0.00    -0.084 A  
HETATM    8  C   UNL     1     -10.690   9.938  70.489  1.00  0.00    -0.317 A  
HETATM    9  C   UNL     1     -10.015   8.778  70.954  1.00  0.00    -0.279 A  
HETATM   10  I   UNL     1     -12.711  10.381  71.084  1.00  0.00    -0.557 I  
HETATM   11  C   UNL     1      -8.682   8.558  70.519  1.00  0.00    -0.152 A  
HETATM   12  O   UNL     1      -6.412   8.068  68.510  1.00  0.00    -0.051 OA 
HETATM   13  O   UNL     1      -5.877  10.136  69.254  1.00  0.00    -0.038 OA 
HETATM   14  I   UNL     1      -8.195  11.405  67.158  1.00  0.00    -0.172 I  
HETATM   15  C   UNL     1      -8.105   9.387  69.528  1.00  0.00    -0.114 A  
HETATM   16  I   UNL     1      -7.448   7.044  71.436  1.00  0.00    -0.082 I  
HETATM   17  C   UNL     1      -8.844  10.462  69.001  1.00  0.00    -0.172 A  
HETATM   18  C   UNL     1      -6.690   9.242  69.111  1.00  0.00    -0.050 C  
BRANCH   9  19
HETATM   19  C   UNL     1     -10.676   7.760  71.832  1.00  0.00    -0.225 C  
HETATM   20  H   UNL     1     -10.935   7.288  73.713  1.00  0.00     0.000 HD 
HETATM   21  O   UNL     1     -10.516   7.933  73.157  1.00  0.00    -0.345 OA 
BRANCH  19  22
HETATM   22  N   UNL     1     -11.315   6.744  71.360  1.00  0.00    -0.266 NA 
HETATM   23  H   UNL     1     -11.856   6.121  71.959  1.00  0.00     0.000 HD 
BRANCH  22  24
HETATM   24  C   UNL     1     -11.218   6.537  69.899  1.00  0.00    -0.395 C  
BRANCH  24  25
HETATM   25  C   UNL     1     -10.453   5.236  69.631  1.00  0.00    -0.250 C  
HETATM   26  O   UNL     1     -10.205   5.088  68.235  1.00  0.00    -0.145 OA 
HETATM   27  H   UNL     1      -9.731   4.282  68.069  1.00  0.00     0.000 HD 
ENDBRANCH  24  25
ENDBRANCH  22  24
ENDBRANCH  19  22
ENDBRANCH   9  19
ENDBRANCH   5   7
ENDBRANCH   2   5
TORSDOF 6
ENDMDL
MODEL       95
REMARK 921   NORMALIZED FREE ENERGY PREDICTED BY IDOCK:   -3.50 KCAL/MOL
REMARK 922        TOTAL FREE ENERGY PREDICTED BY IDOCK:   -5.25 KCAL/MOL
REMARK 923 INTER-LIGAND FREE ENERGY PREDICTED BY IDOCK:   -4.99 KCAL/MOL
REMARK 924 INTRA-LIGAND FREE ENERGY PREDICTED BY IDOCK:   -0.26 KCAL/MOL
REMARK 927      BINDING AFFINITY PREDICTED BY RF-SCORE:    0.00 PKD
ROOT
HETATM    1  C   UNL     1     -13.434   9.876  72.076  1.00  0.00    -0.478 C  
HETATM    2  C   UNL     1     -12.744  10.615  70.972  1.00  0.00    -0.415 C  
HETATM    3  H   UNL     1     -12.079  12.383  70.528  1.00  0.00     0.000 HD 
HETATM    4  O   UNL     1     -12.517  11.914  71.229  1.00  0.00    -0.312 OA 
ENDROOT
BRANCH   2   5
HETATM    5  N   UNL     1     -12.392  10.028  69.873  1.00  0.00    -0.489 NA 
HETATM    6  H   UNL     1     -13.104   9.648  69.250  1.00  0.00     0.000 HD 
BRANCH   5   7
HETATM    7  C   UNL     1     -11.021   9.912  69.532  1.00  0.00    -0.242 A  
HETATM    8  C   UNL     1     -10.300   8.729  69.862  1.00  0.00    -0.206 A  
HETATM    9  C   UNL     1      -8.917   8.591  69.564  1.00  0.00    -0.149 A  
HETATM   10  I   UNL     1     -11.429   7.121  70.740  1.00  0.00    -0.341 I  
HETATM   11  C   UNL     1      -8.242   9.699  68.989  1.00  0.00    -0.113 A  
HETATM   12  O   UNL     1      -7.634  11.857  66.891  1.00  0.00    -0.148 OA 
HETATM   13  O   UNL     1      -8.361  13.134  68.611  1.00  0.00    -0.099 OA 
HETATM   14  I   UNL     1     -11.529  12.388  67.724  1.00  0.00    -0.392 I  
HETATM   15  C   UNL     1      -8.962  10.845  68.581  1.00  0.00    -0.162 A  
HETATM   16  I   UNL     1      -6.089   9.731  68.834  1.00  0.00    -0.040 I  
HETATM   17  C   UNL     1     -10.354  10.905  68.784  1.00  0.00    -0.198 A  
HETATM   18  C   UNL     1      -8.283  12.054  68.056  1.00  0.00    -0.156 C  
BRANCH   9  19
HETATM   19  C   UNL     1      -8.171   7.310  69.780  1.00  0.00    -0.130 C  
HETATM   20  H   UNL     1      -7.243   6.287  71.166  1.00  0.00     0.000 HD 
HETATM   21  O   UNL     1      -7.716   7.099  71.029  1.00  0.00    -0.088 OA 
BRANCH  19  22
HETATM   22  N   UNL     1      -7.925   6.479  68.826  1.00  0.00    -0.110 NA 
HETATM   23  H   UNL     1      -6.975   6.283  68.512  1.00  0.00     0.000 HD 
BRANCH  22  24
HETATM   24  C   UNL     1      -9.102   5.826  68.213  1.00  0.00    -0.117 C  
BRANCH  24  25
HETATM   25  C   UNL     1      -9.192   6.244  66.741  1.00  0.00    -0.137 C  
HETATM   26  O   UNL     1     -10.433   6.900  66.489  1.00  0.00    -0.474 OA 
HETATM   27  H   UNL     1     -10.489   7.159  65.577  1.00  0.00     0.000 HD 
ENDBRANCH  24  25
ENDBRANCH  22  24
ENDBRANCH  19  22
ENDBRANCH   9  19
ENDBRANCH   5   7
ENDBRANCH   2   5
TORSDOF 6
ENDMDL
MODEL       96
REMARK 921   NORMALIZED FREE ENERGY PREDICTED BY IDOCK:   -3.49 KCAL/MOL
REMARK 922        TOTAL FREE ENERGY PREDICTED BY IDOCK:   -5.23 KCAL/MOL
REMARK 923 INTER-LIGAND FREE ENERGY PREDICTED BY IDOCK:   -5.20 KCAL/MOL
REMARK 924 INTRA-LIGAND FREE ENERGY PREDICTED BY IDOCK:   -0.03 KCAL/MOL
REMARK 927      BINDING AFFINITY PREDICTED BY RF-SCORE:    0.00 PKD
ROOT
HETATM    1  C   UNL     1     -12.059  13.533  68.671  1.00  0.00    -0.303 C  
HETATM    2  C   UNL     1     -11.473  12.177  68.426  1.00  0.00    -0.304 C  
HETATM    3  H   UNL     1     -11.763  10.581  67.362  1.00  0.00     0.000 HD 
HETATM    4  O   UNL     1     -12.135  11.442  67.517  1.00  0.00    -0.592 OA 
ENDROOT
BRANCH   2   5
HETATM    5  N   UNL     1     -10.409  11.772  69.041  1.00  0.00    -0.395 NA 
HETATM    6  H   UNL     1      -9.924  12.398  69.683  1.00  0.00     0.000 HD 
BRANCH   5   7
HETATM    7  C   UNL     1      -9.914  10.462  68.825  1.00  0.00    -0.188 A  
HETATM    8  C   UNL     1     -10.336   9.389  69.662  1.00  0.00    -0.216 A  
HETATM    9  C   UNL     1      -9.836   8.070  69.494  1.00  0.00    -0.181 A  
HETATM   10  I   UNL     1     -11.847   9.844  71.126  1.00  0.00    -0.461 I  
HETATM   11  C   UNL     1      -8.837   7.853  68.509  1.00  0.00    -0.134 A  
HETATM   12  O   UNL     1      -7.615   7.790  65.693  1.00  0.00    -0.078 OA 
HETATM   13  O   UNL     1      -6.376   9.420  66.654  1.00  0.00    -0.064 OA 
HETATM   14  I   UNL     1      -8.916  11.569  66.097  1.00  0.00    -0.068 I  
HETATM   15  C   UNL     1      -8.471   8.888  67.618  1.00  0.00    -0.121 A  
HETATM   16  I   UNL     1      -7.755   5.987  68.416  1.00  0.00    -0.100 I  
HETATM   17  C   UNL     1      -9.071  10.155  67.735  1.00  0.00    -0.130 A  
HETATM   18  C   UNL     1      -7.374   8.724  66.634  1.00  0.00    -0.082 C  
BRANCH   9  19
HETATM   19  C   UNL     1     -10.364   6.904  70.273  1.00  0.00    -0.199 C  
HETATM   20  H   UNL     1     -11.766   5.540  70.237  1.00  0.00     0.000 HD 
HETATM   21  O   UNL     1     -11.431   6.280  69.743  1.00  0.00    -0.430 OA 
BRANCH  19  22
HETATM   22  N   UNL     1      -9.870   6.546  71.409  1.00  0.00    -0.176 NA 
HETATM   23  H   UNL     1      -9.206   7.130  71.917  1.00  0.00     0.000 HD 
BRANCH  22  24
HETATM   24  C   UNL     1     -10.323   5.238  71.930  1.00  0.00    -0.215 C  
BRANCH  24  25
HETATM   25  C   UNL     1     -11.120   5.467  73.220  1.00  0.00    -0.297 C  
HETATM   26  O   UNL     1     -12.518   5.358  72.961  1.00  0.00    -0.466 OA 
HETATM   27  H   UNL     1     -13.012   5.500  73.759  1.00  0.00     0.000 HD 
ENDBRANCH  24  25
ENDBRANCH  22  24
ENDBRANCH  19  22
ENDBRANCH   9  19
ENDBRANCH   5   7
ENDBRANCH   2   5
TORSDOF 6
ENDMDL
MODEL       97
REMARK 921   NORMALIZED FREE ENERGY PREDICTED BY IDOCK:   -3.47 KCAL/MOL
REMARK 922        TOTAL FREE ENERGY PREDICTED BY IDOCK:   -5.20 KCAL/MOL
REMARK 923 INTER-LIGAND FREE ENERGY PREDICTED BY IDOCK:   -5.43 KCAL/MOL
REMARK 924 INTRA-LIGAND FREE ENERGY PREDICTED BY IDOCK:    0.22 KCAL/MOL
REMARK 927      BINDING AFFINITY PREDICTED BY RF-SCORE:    0.00 PKD
ROOT
HETATM    1  C   UNL     1     -10.539   8.331  70.144  1.00  0.00    -0.233 C  
HETATM    2  C   UNL     1      -9.505   9.253  70.712  1.00  0.00    -0.271 C  
HETATM    3  H   UNL     1      -8.589   9.645  72.376  1.00  0.00     0.000 HD 
HETATM    4  O   UNL     1      -9.245   9.060  72.016  1.00  0.00    -0.373 OA 
ENDROOT
BRANCH   2   5
HETATM    5  N   UNL     1      -8.913  10.146  69.986  1.00  0.00    -0.380 NA 
HETATM    6  H   UNL     1      -8.241  10.783  70.413  1.00  0.00     0.000 HD 
BRANCH   5   7
HETATM    7  C   UNL     1      -9.194  10.242  68.600  1.00  0.00    -0.159 A  
HETATM    8  C   UNL     1      -8.512   9.404  67.671  1.00  0.00    -0.119 A  
HETATM    9  C   UNL     1      -8.746   9.496  66.273  1.00  0.00    -0.158 A  
HETATM   10  I   UNL     1      -7.188   7.922  68.498  1.00  0.00    -0.090 I  
HETATM   11  C   UNL     1      -9.630  10.504  65.806  1.00  0.00    -0.210 A  
HETATM   12  O   UNL     1     -12.288  12.015  65.515  1.00  0.00    -0.460 OA 
HETATM   13  O   UNL     1     -11.048  13.551  66.619  1.00  0.00    -0.292 OA 
HETATM   14  I   UNL     1     -11.679  11.886  69.485  1.00  0.00    -0.327 I  
HETATM   15  C   UNL     1     -10.376  11.284  66.720  1.00  0.00    -0.278 A  
HETATM   16  I   UNL     1      -9.776  10.968  63.703  1.00  0.00    -0.446 I  
HETATM   17  C   UNL     1     -10.208  11.089  68.104  1.00  0.00    -0.182 A  
HETATM   18  C   UNL     1     -11.243  12.401  66.274  1.00  0.00    -0.317 C  
BRANCH   9  19
HETATM   19  C   UNL     1      -8.142   8.539  65.291  1.00  0.00    -0.138 C  
HETATM   20  H   UNL     1      -6.558   8.280  64.172  1.00  0.00     0.000 HD 
HETATM   21  O   UNL     1      -6.941   8.887  64.795  1.00  0.00    -0.076 OA 
BRANCH  19  22
HETATM   22  N   UNL     1      -8.750   7.473  64.896  1.00  0.00    -0.361 NA 
HETATM   23  H   UNL     1      -9.670   7.212  65.252  1.00  0.00     0.000 HD 
BRANCH  22  24
HETATM   24  C   UNL     1      -8.035   6.650  63.897  1.00  0.00    -0.075 C  
BRANCH  24  25
HETATM   25  C   UNL     1      -8.344   5.171  64.158  1.00  0.00    -0.137 C  
HETATM   26  O   UNL     1      -9.752   4.948  64.122  1.00  0.00    -0.349 OA 
HETATM   27  H   UNL     1      -9.944   4.032  64.283  1.00  0.00     0.000 HD 
ENDBRANCH  24  25
ENDBRANCH  22  24
ENDBRANCH  19  22
ENDBRANCH   9  19
ENDBRANCH   5   7
ENDBRANCH   2   5
TORSDOF 6
ENDMDL
MODEL       98
REMARK 921   NORMALIZED FREE ENERGY PREDICTED BY IDOCK:   -3.43 KCAL/MOL
REMARK 922        TOTAL FREE ENERGY PREDICTED BY IDOCK:   -5.16 KCAL/MOL
REMARK 923 INTER-LIGAND FREE ENERGY PREDICTED BY IDOCK:   -5.19 KCAL/MOL
REMARK 924 INTRA-LIGAND FREE ENERGY PREDICTED BY IDOCK:    0.03 KCAL/MOL
REMARK 927      BINDING AFFINITY PREDICTED BY RF-SCORE:    0.00 PKD
ROOT
HETATM    1  C   UNL     1     -12.618  12.083  63.312  1.00  0.00    -0.512 C  
HETATM    2  C   UNL     1     -11.421  12.065  64.211  1.00  0.00    -0.361 C  
HETATM    3  H   UNL     1      -9.486  11.956  64.138  1.00  0.00     0.000 HD 
HETATM    4  O   UNL     1     -10.245  11.968  63.568  1.00  0.00    -0.406 OA 
ENDROOT
BRANCH   2   5
HETATM    5  N   UNL     1     -11.531  12.150  65.497  1.00  0.00    -0.350 NA 
HETATM    6  H   UNL     1     -12.348  11.756  65.964  1.00  0.00     0.000 HD 
BRANCH   5   7
HETATM    7  C   UNL     1     -10.522  12.788  66.261  1.00  0.00    -0.257 A  
HETATM    8  C   UNL     1      -9.549  12.010  66.953  1.00  0.00    -0.203 A  
HETATM    9  C   UNL     1      -8.543  12.616  67.753  1.00  0.00    -0.179 A  
HETATM   10  I   UNL     1      -9.615   9.881  66.645  1.00  0.00    -0.283 I  
HETATM   11  C   UNL     1      -8.570  14.026  67.911  1.00  0.00    -0.181 A  
HETATM   12  O   UNL     1      -8.482  16.967  67.034  1.00  0.00    -0.194 OA 
HETATM   13  O   UNL     1     -10.625  16.802  67.739  1.00  0.00    -0.327 OA 
HETATM   14  I   UNL     1     -11.405  15.376  64.783  1.00  0.00    -0.098 I  
HETATM   15  C   UNL     1      -9.476  14.814  67.164  1.00  0.00    -0.233 A  
HETATM   16  I   UNL     1      -7.327  15.005  69.380  1.00  0.00    -0.115 I  
HETATM   17  C   UNL     1     -10.386  14.192  66.289  1.00  0.00    -0.292 A  
HETATM   18  C   UNL     1      -9.593  16.278  67.364  1.00  0.00    -0.230 C  
BRANCH   9  19
HETATM   19  C   UNL     1      -7.433  11.830  68.381  1.00  0.00    -0.105 C  
HETATM   20  H   UNL     1      -5.584  11.267  68.075  1.00  0.00     0.000 HD 
HETATM   21  O   UNL     1      -6.288  11.766  67.677  1.00  0.00    -0.064 OA 
BRANCH  19  22
HETATM   22  N   UNL     1      -7.570  11.202  69.499  1.00  0.00    -0.363 NA 
HETATM   23  H   UNL     1      -8.488  10.973  69.880  1.00  0.00     0.000 HD 
BRANCH  22  24
HETATM   24  C   UNL     1      -6.319  10.834  70.195  1.00  0.00    -0.147 C  
BRANCH  24  25
HETATM   25  C   UNL     1      -6.541   9.520  70.955  1.00  0.00    -0.090 C  
HETATM   26  O   UNL     1      -5.758   9.501  72.147  1.00  0.00    -0.198 OA 
HETATM   27  H   UNL     1      -5.896   8.688  72.617  1.00  0.00     0.000 HD 
ENDBRANCH  24  25
ENDBRANCH  22  24
ENDBRANCH  19  22
ENDBRANCH   9  19
ENDBRANCH   5   7
ENDBRANCH   2   5
TORSDOF 6
ENDMDL
MODEL       99
REMARK 921   NORMALIZED FREE ENERGY PREDICTED BY IDOCK:   -3.43 KCAL/MOL
REMARK 922        TOTAL FREE ENERGY PREDICTED BY IDOCK:   -5.15 KCAL/MOL
REMARK 923 INTER-LIGAND FREE ENERGY PREDICTED BY IDOCK:   -5.06 KCAL/MOL
REMARK 924 INTRA-LIGAND FREE ENERGY PREDICTED BY IDOCK:   -0.09 KCAL/MOL
REMARK 927      BINDING AFFINITY PREDICTED BY RF-SCORE:    0.00 PKD
ROOT
HETATM    1  C   UNL     1     -10.615   6.494  69.921  1.00  0.00    -0.282 C  
HETATM    2  C   UNL     1     -10.417   7.894  69.427  1.00  0.00    -0.220 C  
HETATM    3  H   UNL     1      -9.167   9.372  69.552  1.00  0.00     0.000 HD 
HETATM    4  O   UNL     1      -9.293   8.484  69.866  1.00  0.00    -0.156 OA 
ENDROOT
BRANCH   2   5
HETATM    5  N   UNL     1     -11.264   8.464  68.632  1.00  0.00    -0.200 NA 
HETATM    6  H   UNL     1     -12.178   8.039  68.474  1.00  0.00     0.000 HD 
BRANCH   5   7
HETATM    7  C   UNL     1     -10.929   9.677  67.980  1.00  0.00    -0.140 A  
HETATM    8  C   UNL     1     -11.247  10.927  68.585  1.00  0.00    -0.267 A  
HETATM    9  C   UNL     1     -10.954  12.161  67.946  1.00  0.00    -0.272 A  
HETATM   10  I   UNL     1     -12.098  10.855  70.561  1.00  0.00    -0.477 I  
HETATM   11  C   UNL     1     -10.397  12.124  66.640  1.00  0.00    -0.208 A  
HETATM   12  O   UNL     1      -8.331  11.454  64.470  1.00  0.00     0.416 OA 
HETATM   13  O   UNL     1     -10.064  10.156  63.817  1.00  0.00    -0.078 OA 
HETATM   14  I   UNL     1      -9.151   7.899  66.152  1.00  0.00    -0.090 I  
HETATM   15  C   UNL     1     -10.000  10.895  66.064  1.00  0.00    -0.290 A  
HETATM   16  I   UNL     1     -10.253  13.913  65.441  1.00  0.00    -0.266 I  
HETATM   17  C   UNL     1     -10.197   9.695  66.773  1.00  0.00    -0.239 A  
HETATM   18  C   UNL     1      -9.495  10.807  64.673  1.00  0.00    -0.251 C  
BRANCH   9  19
HETATM   19  C   UNL     1     -11.156  13.484  68.618  1.00  0.00    -0.269 C  
HETATM   20  H   UNL     1     -10.169  14.937  69.481  1.00  0.00     0.000 HD 
HETATM   21  O   UNL     1     -10.041  14.098  69.055  1.00  0.00    -0.193 OA 
BRANCH  19  22
HETATM   22  N   UNL     1     -12.325  13.989  68.823  1.00  0.00    -0.508 NA 
HETATM   23  H   UNL     1     -13.167  13.583  68.415  1.00  0.00     0.000 HD 
BRANCH  22  24
HETATM   24  C   UNL     1     -12.372  15.190  69.685  1.00  0.00    -0.207 C  
BRANCH  24  25
HETATM   25  C   UNL     1     -12.411  14.747  71.152  1.00  0.00    -0.331 C  
HETATM   26  O   UNL     1     -11.111  14.844  71.731  1.00  0.00    -0.536 OA 
HETATM   27  H   UNL     1     -11.135  14.570  72.640  1.00  0.00     0.000 HD 
ENDBRANCH  24  25
ENDBRANCH  22  24
ENDBRANCH  19  22
ENDBRANCH   9  19
ENDBRANCH   5   7
ENDBRANCH   2   5
TORSDOF 6
ENDMDL
MODEL      100
REMARK 921   NORMALIZED FREE ENERGY PREDICTED BY IDOCK:   -3.42 KCAL/MOL
REMARK 922        TOTAL FREE ENERGY PREDICTED BY IDOCK:   -5.14 KCAL/MOL
REMARK 923 INTER-LIGAND FREE ENERGY PREDICTED BY IDOCK:   -5.02 KCAL/MOL
REMARK 924 INTRA-LIGAND FREE ENERGY PREDICTED BY IDOCK:   -0.12 KCAL/MOL
REMARK 927      BINDING AFFINITY PREDICTED BY RF-SCORE:    0.00 PKD
ROOT
HETATM    1  C   UNL     1      -8.917  14.655  68.719  1.00  0.00    -0.173 C  
HETATM    2  C   UNL     1      -8.810  14.127  67.322  1.00  0.00    -0.218 C  
HETATM    3  H   UNL     1      -9.272  14.594  65.496  1.00  0.00     0.000 HD 
HETATM    4  O   UNL     1      -9.340  14.929  66.383  1.00  0.00    -0.269 OA 
ENDROOT
BRANCH   2   5
HETATM    5  N   UNL     1      -8.237  12.997  67.060  1.00  0.00    -0.364 NA 
HETATM    6  H   UNL     1      -7.748  12.868  66.174  1.00  0.00     0.000 HD 
BRANCH   5   7
HETATM    7  C   UNL     1      -8.287  11.936  67.998  1.00  0.00    -0.160 A  
HETATM    8  C   UNL     1      -9.477  11.167  68.148  1.00  0.00    -0.180 A  
HETATM    9  C   UNL     1      -9.572  10.117  69.101  1.00  0.00    -0.222 A  
HETATM   10  I   UNL     1     -11.087  11.606  66.789  1.00  0.00    -0.275 I  
HETATM   11  C   UNL     1      -8.468   9.894  69.964  1.00  0.00    -0.165 A  
HETATM   12  O   UNL     1      -5.573   9.212  70.727  1.00  0.00    -0.031 OA 
HETATM   13  O   UNL     1      -5.668  11.387  71.338  1.00  0.00    -0.366 OA 
HETATM   14  I   UNL     1      -5.195  12.234  68.107  1.00  0.00    -0.084 I  
HETATM   15  C   UNL     1      -7.253  10.592  69.771  1.00  0.00    -0.152 A  
HETATM   16  I   UNL     1      -8.639   8.585  71.672  1.00  0.00    -0.198 I  
HETATM   17  C   UNL     1      -7.152  11.546  68.741  1.00  0.00    -0.108 A  
HETATM   18  C   UNL     1      -6.109  10.448  70.702  1.00  0.00    -0.096 C  
BRANCH   9  19
HETATM   19  C   UNL     1     -10.762   9.212  69.184  1.00  0.00    -0.172 C  
HETATM   20  H   UNL     1     -11.335   7.386  68.778  1.00  0.00     0.000 HD 
HETATM   21  O   UNL     1     -10.581   7.960  68.725  1.00  0.00    -0.200 OA 
BRANCH  19  22
HETATM   22  N   UNL     1     -11.911   9.610  69.614  1.00  0.00    -0.426 NA 
HETATM   23  H   UNL     1     -12.783   9.195  69.287  1.00  0.00     0.000 HD 
BRANCH  22  24
HETATM   24  C   UNL     1     -11.888  10.704  70.609  1.00  0.00    -0.363 C  
BRANCH  24  25
HETATM   25  C   UNL     1     -12.775  10.313  71.797  1.00  0.00    -0.433 C  
HETATM   26  O   UNL     1     -13.485   9.110  71.508  1.00  0.00    -0.360 OA 
HETATM   27  H   UNL     1     -14.035   8.868  72.243  1.00  0.00     0.000 HD 
ENDBRANCH  24  25
ENDBRANCH  22  24
ENDBRANCH  19  22
ENDBRANCH   9  19
ENDBRANCH   5   7
ENDBRANCH   2   5
TORSDOF 6
ENDMDL
MODEL      101
REMARK 921   NORMALIZED FREE ENERGY PREDICTED BY IDOCK:   -3.41 KCAL/MOL
REMARK 922        TOTAL FREE ENERGY PREDICTED BY IDOCK:   -5.13 KCAL/MOL
REMARK 923 INTER-LIGAND FREE ENERGY PREDICTED BY IDOCK:   -4.70 KCAL/MOL
REMARK 924 INTRA-LIGAND FREE ENERGY PREDICTED BY IDOCK:   -0.43 KCAL/MOL
REMARK 927      BINDING AFFINITY PREDICTED BY RF-SCORE:    0.00 PKD
ROOT
HETATM    1  C   UNL     1     -12.585   7.178  71.469  1.00  0.00    -0.427 C  
HETATM    2  C   UNL     1     -12.510   8.508  72.151  1.00  0.00    -0.379 C  
HETATM    3  H   UNL     1     -13.594   9.722  73.207  1.00  0.00     0.000 HD 
HETATM    4  O   UNL     1     -13.641   8.877  72.775  1.00  0.00    -0.405 OA 
ENDROOT
BRANCH   2   5
HETATM    5  N   UNL     1     -11.430   9.222  72.140  1.00  0.00    -0.205 NA 
HETATM    6  H   UNL     1     -11.228   9.848  72.919  1.00  0.00     0.000 HD 
BRANCH   5   7
HETATM    7  C   UNL     1     -10.528   9.138  71.051  1.00  0.00    -0.298 A  
HETATM    8  C   UNL     1     -10.700   9.976  69.912  1.00  0.00    -0.286 A  
HETATM    9  C   UNL     1      -9.833   9.896  68.789  1.00  0.00    -0.177 A  
HETATM   10  I   UNL     1     -12.273  11.441  70.020  1.00  0.00    -0.273 I  
HETATM   11  C   UNL     1      -8.823   8.899  68.792  1.00  0.00    -0.137 A  
HETATM   12  O   UNL     1      -6.326   7.412  69.786  1.00  0.00    -0.030 OA 
HETATM   13  O   UNL     1      -7.924   5.858  70.171  1.00  0.00    -0.097 OA 
HETATM   14  I   UNL     1      -8.736   7.508  72.999  1.00  0.00    -0.269 I  
HETATM   15  C   UNL     1      -8.588   8.118  69.948  1.00  0.00    -0.130 A  
HETATM   16  I   UNL     1      -7.697   8.451  67.006  1.00  0.00    -0.092 I  
HETATM   17  C   UNL     1      -9.391   8.302  71.090  1.00  0.00    -0.165 A  
HETATM   18  C   UNL     1      -7.602   7.012  69.962  1.00  0.00    -0.099 C  
BRANCH   9  19
HETATM   19  C   UNL     1      -9.913  10.855  67.641  1.00  0.00    -0.173 C  
HETATM   20  H   UNL     1     -10.739  11.082  65.882  1.00  0.00     0.000 HD 
HETATM   21  O   UNL     1     -10.689  10.474  66.610  1.00  0.00    -0.224 OA 
BRANCH  19  22
HETATM   22  N   UNL     1      -9.241  11.955  67.606  1.00  0.00    -0.178 NA 
HETATM   23  H   UNL     1      -8.489  12.150  68.267  1.00  0.00     0.000 HD 
BRANCH  22  24
HETATM   24  C   UNL     1      -9.623  12.916  66.549  1.00  0.00    -0.259 C  
BRANCH  24  25
HETATM   25  C   UNL     1      -8.713  14.147  66.644  1.00  0.00    -0.044 C  
HETATM   26  O   UNL     1      -7.432  13.775  67.147  1.00  0.00    -0.349 OA 
HETATM   27  H   UNL     1      -6.868  14.537  67.205  1.00  0.00     0.000 HD 
ENDBRANCH  24  25
ENDBRANCH  22  24
ENDBRANCH  19  22
ENDBRANCH   9  19
ENDBRANCH   5   7
ENDBRANCH   2   5
TORSDOF 6
ENDMDL
MODEL      102
REMARK 921   NORMALIZED FREE ENERGY PREDICTED BY IDOCK:   -3.41 KCAL/MOL
REMARK 922        TOTAL FREE ENERGY PREDICTED BY IDOCK:   -5.12 KCAL/MOL
REMARK 923 INTER-LIGAND FREE ENERGY PREDICTED BY IDOCK:   -4.82 KCAL/MOL
REMARK 924 INTRA-LIGAND FREE ENERGY PREDICTED BY IDOCK:   -0.30 KCAL/MOL
REMARK 927      BINDING AFFINITY PREDICTED BY RF-SCORE:    0.00 PKD
ROOT
HETATM    1  C   UNL     1      -6.360  15.718  67.386  1.00  0.00    -0.173 C  
HETATM    2  C   UNL     1      -7.088  14.439  67.660  1.00  0.00    -0.183 C  
HETATM    3  H   UNL     1      -6.939  12.817  68.714  1.00  0.00     0.000 HD 
HETATM    4  O   UNL     1      -6.477  13.629  68.540  1.00  0.00    -0.077 OA 
ENDROOT
BRANCH   2   5
HETATM    5  N   UNL     1      -8.220  14.163  67.096  1.00  0.00    -0.322 NA 
HETATM    6  H   UNL     1      -8.417  14.509  66.157  1.00  0.00     0.000 HD 
BRANCH   5   7
HETATM    7  C   UNL     1      -9.187  13.382  67.777  1.00  0.00    -0.211 A  
HETATM    8  C   UNL     1     -10.091  13.998  68.690  1.00  0.00    -0.217 A  
HETATM    9  C   UNL     1     -11.051  13.241  69.413  1.00  0.00    -0.148 A  
HETATM   10  I   UNL     1      -9.999  16.143  68.841  1.00  0.00    -0.274 I  
HETATM   11  C   UNL     1     -11.044  11.830  69.262  1.00  0.00    -0.218 A  
HETATM   12  O   UNL     1     -11.259   9.147  67.784  1.00  0.00     0.052 OA 
HETATM   13  O   UNL     1      -9.068   9.143  68.348  1.00  0.00    -0.133 OA 
HETATM   14  I   UNL     1      -8.468  11.168  65.717  1.00  0.00     0.162 I  
HETATM   15  C   UNL     1     -10.210  11.215  68.299  1.00  0.00    -0.197 A  
HETATM   16  I   UNL     1     -12.201  10.565  70.574  1.00  0.00    -0.443 I  
HETATM   17  C   UNL     1      -9.351  12.006  67.513  1.00  0.00    -0.179 A  
HETATM   18  C   UNL     1     -10.113   9.741  68.171  1.00  0.00    -0.165 C  
BRANCH   9  19
HETATM   19  C   UNL     1     -12.096  13.880  70.275  1.00  0.00    -0.353 C  
HETATM   20  H   UNL     1     -13.843  14.757  70.177  1.00  0.00     0.000 HD 
HETATM   21  O   UNL     1     -13.180  14.351  69.631  1.00  0.00     0.460 OA 
BRANCH  19  22
HETATM   22  N   UNL     1     -11.954  14.027  71.548  1.00  0.00    -0.350 NA 
HETATM   23  H   UNL     1     -11.059  13.875  72.012  1.00  0.00     0.000 HD 
BRANCH  22  24
HETATM   24  C   UNL     1     -13.166  14.429  72.294  1.00  0.00    -0.406 C  
BRANCH  24  25
HETATM   25  C   UNL     1     -12.755  15.351  73.449  1.00  0.00    -0.533 C  
HETATM   26  O   UNL     1     -13.779  16.311  73.702  1.00  0.00    -0.911 OA 
HETATM   27  H   UNL     1     -13.525  16.882  74.417  1.00  0.00     0.000 HD 
ENDBRANCH  24  25
ENDBRANCH  22  24
ENDBRANCH  19  22
ENDBRANCH   9  19
ENDBRANCH   5   7
ENDBRANCH   2   5
TORSDOF 6
ENDMDL
MODEL      103
REMARK 921   NORMALIZED FREE ENERGY PREDICTED BY IDOCK:   -3.40 KCAL/MOL
REMARK 922        TOTAL FREE ENERGY PREDICTED BY IDOCK:   -5.12 KCAL/MOL
REMARK 923 INTER-LIGAND FREE ENERGY PREDICTED BY IDOCK:   -4.61 KCAL/MOL
REMARK 924 INTRA-LIGAND FREE ENERGY PREDICTED BY IDOCK:   -0.51 KCAL/MOL
REMARK 927      BINDING AFFINITY PREDICTED BY RF-SCORE:    0.00 PKD
ROOT
HETATM    1  C   UNL     1      -5.130   8.602  71.208  1.00  0.00    -0.029 C  
HETATM    2  C   UNL     1      -5.505   9.958  70.694  1.00  0.00    -0.056 C  
HETATM    3  H   UNL     1      -5.917  11.745  71.324  1.00  0.00     0.000 HD 
HETATM    4  O   UNL     1      -5.679  10.885  71.650  1.00  0.00    -0.335 OA 
ENDROOT
BRANCH   2   5
HETATM    5  N   UNL     1      -5.632  10.198  69.429  1.00  0.00    -0.038 NA 
HETATM    6  H   UNL     1      -4.821  10.130  68.815  1.00  0.00     0.000 HD 
BRANCH   5   7
HETATM    7  C   UNL     1      -6.894  10.556  68.892  1.00  0.00    -0.063 A  
HETATM    8  C   UNL     1      -7.196  11.921  68.621  1.00  0.00    -0.109 A  
HETATM    9  C   UNL     1      -8.462  12.319  68.113  1.00  0.00    -0.176 A  
HETATM   10  I   UNL     1      -5.606  13.340  68.921  1.00  0.00    -0.088 I  
HETATM   11  C   UNL     1      -9.460  11.323  67.947  1.00  0.00    -0.178 A  
HETATM   12  O   UNL     1     -10.737   8.764  66.831  1.00  0.00    -0.240 OA 
HETATM   13  O   UNL     1     -10.453   8.182  68.998  1.00  0.00    -0.219 OA 
HETATM   14  I   UNL     1      -7.217   7.519  68.314  1.00  0.00    -0.100 I  
HETATM   15  C   UNL     1      -9.148   9.956  68.132  1.00  0.00    -0.121 A  
HETATM   16  I   UNL     1     -11.510  11.861  67.535  1.00  0.00    -0.299 I  
HETATM   17  C   UNL     1      -7.848   9.583  68.524  1.00  0.00    -0.085 A  
HETATM   18  C   UNL     1     -10.182   8.897  68.052  1.00  0.00    -0.213 C  
BRANCH   9  19
HETATM   19  C   UNL     1      -8.756  13.727  67.696  1.00  0.00    -0.185 C  
HETATM   20  H   UNL     1      -9.383  15.440  68.403  1.00  0.00     0.000 HD 
HETATM   21  O   UNL     1      -9.197  14.547  68.668  1.00  0.00    -0.194 OA 
BRANCH  19  22
HETATM   22  N   UNL     1      -8.650  14.128  66.475  1.00  0.00    -0.426 NA 
HETATM   23  H   UNL     1      -8.106  13.613  65.783  1.00  0.00     0.000 HD 
BRANCH  22  24
HETATM   24  C   UNL     1      -9.365  15.377  66.137  1.00  0.00    -0.332 C  
BRANCH  24  25
HETATM   25  C   UNL     1     -10.470  15.059  65.123  1.00  0.00    -0.412 C  
HETATM   26  O   UNL     1     -10.136  13.887  64.381  1.00  0.00    -0.711 OA 
HETATM   27  H   UNL     1     -10.820  13.690  63.753  1.00  0.00     0.000 HD 
ENDBRANCH  24  25
ENDBRANCH  22  24
ENDBRANCH  19  22
ENDBRANCH   9  19
ENDBRANCH   5   7
ENDBRANCH   2   5
TORSDOF 6
ENDMDL
MODEL      104
REMARK 921   NORMALIZED FREE ENERGY PREDICTED BY IDOCK:   -3.40 KCAL/MOL
REMARK 922        TOTAL FREE ENERGY PREDICTED BY IDOCK:   -5.11 KCAL/MOL
REMARK 923 INTER-LIGAND FREE ENERGY PREDICTED BY IDOCK:   -5.22 KCAL/MOL
REMARK 924 INTRA-LIGAND FREE ENERGY PREDICTED BY IDOCK:    0.11 KCAL/MOL
REMARK 927      BINDING AFFINITY PREDICTED BY RF-SCORE:    0.00 PKD
ROOT
HETATM    1  C   UNL     1      -9.804  13.174  67.915  1.00  0.00    -0.231 C  
HETATM    2  C   UNL     1     -11.231  13.078  67.471  1.00  0.00    -0.284 C  
HETATM    3  H   UNL     1     -12.753  14.201  67.042  1.00  0.00     0.000 HD 
HETATM    4  O   UNL     1     -11.848  14.262  67.323  1.00  0.00    -0.381 OA 
ENDROOT
BRANCH   2   5
HETATM    5  N   UNL     1     -11.799  11.938  67.240  1.00  0.00    -0.612 NA 
HETATM    6  H   UNL     1     -12.621  11.894  66.638  1.00  0.00     0.000 HD 
BRANCH   5   7
HETATM    7  C   UNL     1     -11.285  10.752  67.821  1.00  0.00    -0.316 A  
HETATM    8  C   UNL     1     -10.437   9.894  67.063  1.00  0.00    -0.230 A  
HETATM    9  C   UNL     1      -9.930   8.681  67.603  1.00  0.00    -0.248 A  
HETATM   10  I   UNL     1      -9.877  10.576  65.100  1.00  0.00    -0.383 I  
HETATM   11  C   UNL     1     -10.350   8.299  68.903  1.00  0.00    -0.215 A  
HETATM   12  O   UNL     1     -10.697   8.543  71.944  1.00  0.00    -0.272 OA 
HETATM   13  O   UNL     1     -12.844   8.736  71.258  1.00  0.00    -0.302 OA 
HETATM   14  I   UNL     1     -12.234  11.970  70.518  1.00  0.00     0.009 I  
HETATM   15  C   UNL     1     -11.123   9.179  69.696  1.00  0.00    -0.103 A  
HETATM   16  I   UNL     1      -9.938   6.322  69.669  1.00  0.00    -0.254 I  
HETATM   17  C   UNL     1     -11.513  10.427  69.175  1.00  0.00    -0.196 A  
HETATM   18  C   UNL     1     -11.651   8.782  71.022  1.00  0.00    -0.288 C  
BRANCH   9  19
HETATM   19  C   UNL     1      -8.932   7.832  66.876  1.00  0.00    -0.134 C  
HETATM   20  H   UNL     1      -7.010   7.493  66.743  1.00  0.00     0.000 HD 
HETATM   21  O   UNL     1      -7.642   8.031  67.203  1.00  0.00    -0.093 OA 
BRANCH  19  22
HETATM   22  N   UNL     1      -9.270   6.999  65.951  1.00  0.00    -0.375 NA 
HETATM   23  H   UNL     1     -10.243   6.745  65.783  1.00  0.00     0.000 HD 
BRANCH  22  24
HETATM   24  C   UNL     1      -8.163   6.434  65.150  1.00  0.00    -0.134 C  
BRANCH  24  25
HETATM   25  C   UNL     1      -7.742   7.459  64.091  1.00  0.00    -0.121 C  
HETATM   26  O   UNL     1      -6.529   8.100  64.479  1.00  0.00    -0.063 OA 
HETATM   27  H   UNL     1      -6.269   8.735  63.823  1.00  0.00     0.000 HD 
ENDBRANCH  24  25
ENDBRANCH  22  24
ENDBRANCH  19  22
ENDBRANCH   9  19
ENDBRANCH   5   7
ENDBRANCH   2   5
TORSDOF 6
ENDMDL
MODEL      105
REMARK 921   NORMALIZED FREE ENERGY PREDICTED BY IDOCK:   -3.39 KCAL/MOL
REMARK 922        TOTAL FREE ENERGY PREDICTED BY IDOCK:   -5.09 KCAL/MOL
REMARK 923 INTER-LIGAND FREE ENERGY PREDICTED BY IDOCK:   -4.99 KCAL/MOL
REMARK 924 INTRA-LIGAND FREE ENERGY PREDICTED BY IDOCK:   -0.11 KCAL/MOL
REMARK 927      BINDING AFFINITY PREDICTED BY RF-SCORE:    0.00 PKD
ROOT
HETATM    1  C   UNL     1      -5.856  15.240  67.588  1.00  0.00    -0.094 C  
HETATM    2  C   UNL     1      -6.206  13.793  67.748  1.00  0.00    -0.150 C  
HETATM    3  H   UNL     1      -5.893  12.290  68.934  1.00  0.00     0.000 HD 
HETATM    4  O   UNL     1      -5.672  13.209  68.833  1.00  0.00    -0.070 OA 
ENDROOT
BRANCH   2   5
HETATM    5  N   UNL     1      -6.973  13.178  66.906  1.00  0.00    -0.353 NA 
HETATM    6  H   UNL     1      -7.039  13.509  65.944  1.00  0.00     0.000 HD 
BRANCH   5   7
HETATM    7  C   UNL     1      -7.723  12.047  67.315  1.00  0.00    -0.168 A  
HETATM    8  C   UNL     1      -8.991  12.218  67.942  1.00  0.00    -0.186 A  
HETATM    9  C   UNL     1      -9.755  11.108  68.393  1.00  0.00    -0.191 A  
HETATM   10  I   UNL     1      -9.740  14.231  68.077  1.00  0.00    -0.239 I  
HETATM   11  C   UNL     1      -9.189   9.811  68.273  1.00  0.00    -0.129 A  
HETATM   12  O   UNL     1      -8.013   7.366  66.836  1.00  0.00    -0.111 OA 
HETATM   13  O   UNL     1      -6.199   8.103  67.968  1.00  0.00    -0.045 OA 
HETATM   14  I   UNL     1      -5.737  10.422  65.561  1.00  0.00    -0.121 I  
HETATM   15  C   UNL     1      -7.971   9.622  67.579  1.00  0.00    -0.106 A  
HETATM   16  I   UNL     1     -10.091   8.109  69.247  1.00  0.00    -0.215 I  
HETATM   17  C   UNL     1      -7.294  10.731  67.040  1.00  0.00    -0.110 A  
HETATM   18  C   UNL     1      -7.307   8.298  67.507  1.00  0.00    -0.093 C  
BRANCH   9  19
HETATM   19  C   UNL     1     -11.145  11.253  68.932  1.00  0.00    -0.238 C  
HETATM   20  H   UNL     1     -13.021  11.195  68.380  1.00  0.00     0.000 HD 
HETATM   21  O   UNL     1     -12.140  11.102  68.038  1.00  0.00    -0.635 OA 
BRANCH  19  22
HETATM   22  N   UNL     1     -11.386  11.559  70.161  1.00  0.00    -0.498 NA 
HETATM   23  H   UNL     1     -11.305  12.516  70.505  1.00  0.00     0.000 HD 
BRANCH  22  24
HETATM   24  C   UNL     1     -11.788  10.441  71.042  1.00  0.00    -0.361 C  
BRANCH  24  25
HETATM   25  C   UNL     1     -13.285  10.564  71.350  1.00  0.00    -0.345 C  
HETATM   26  O   UNL     1     -13.994   9.454  70.803  1.00  0.00    -0.528 OA 
HETATM   27  H   UNL     1     -14.921   9.530  70.994  1.00  0.00     0.000 HD 
ENDBRANCH  24  25
ENDBRANCH  22  24
ENDBRANCH  19  22
ENDBRANCH   9  19
ENDBRANCH   5   7
ENDBRANCH   2   5
TORSDOF 6
ENDMDL
MODEL      106
REMARK 921   NORMALIZED FREE ENERGY PREDICTED BY IDOCK:   -3.38 KCAL/MOL
REMARK 922        TOTAL FREE ENERGY PREDICTED BY IDOCK:   -5.08 KCAL/MOL
REMARK 923 INTER-LIGAND FREE ENERGY PREDICTED BY IDOCK:   -4.95 KCAL/MOL
REMARK 924 INTRA-LIGAND FREE ENERGY PREDICTED BY IDOCK:   -0.13 KCAL/MOL
REMARK 927      BINDING AFFINITY PREDICTED BY RF-SCORE:    0.00 PKD
ROOT
HETATM    1  C   UNL     1      -9.858  10.902  69.319  1.00  0.00    -0.113 C  
HETATM    2  C   UNL     1      -8.612  10.495  68.596  1.00  0.00    -0.139 C  
HETATM    3  H   UNL     1      -7.428   8.974  68.377  1.00  0.00     0.000 HD 
HETATM    4  O   UNL     1      -8.219   9.232  68.835  1.00  0.00    -0.108 OA 
ENDROOT
BRANCH   2   5
HETATM    5  N   UNL     1      -7.988  11.303  67.801  1.00  0.00    -0.113 NA 
HETATM    6  H   UNL     1      -6.974  11.243  67.711  1.00  0.00     0.000 HD 
BRANCH   5   7
HETATM    7  C   UNL     1      -8.707  12.269  67.055  1.00  0.00    -0.199 A  
HETATM    8  C   UNL     1      -8.512  13.658  67.307  1.00  0.00    -0.194 A  
HETATM    9  C   UNL     1      -9.240  14.653  66.600  1.00  0.00    -0.291 A  
HETATM   10  I   UNL     1      -6.989  14.177  68.736  1.00  0.00    -0.114 I  
HETATM   11  C   UNL     1     -10.231  14.230  65.677  1.00  0.00    -0.347 A  
HETATM   12  O   UNL     1     -11.359  12.816  63.195  1.00  0.00    -0.360 OA 
HETATM   13  O   UNL     1     -12.308  11.594  64.845  1.00  0.00    -0.095 OA 
HETATM   14  I   UNL     1      -9.403   9.907  65.159  1.00  0.00    -0.327 I  
HETATM   15  C   UNL     1     -10.375  12.860  65.357  1.00  0.00    -0.310 A  
HETATM   16  I   UNL     1     -11.632  15.635  64.828  1.00  0.00     0.135 I  
HETATM   17  C   UNL     1      -9.558  11.905  65.990  1.00  0.00    -0.235 A  
HETATM   18  C   UNL     1     -11.454  12.371  64.464  1.00  0.00    -0.337 C  
BRANCH   9  19
HETATM   19  C   UNL     1      -8.957  16.116  66.752  1.00  0.00    -0.241 C  
HETATM   20  H   UNL     1      -8.085  17.616  65.847  1.00  0.00     0.000 HD 
HETATM   21  O   UNL     1      -8.264  16.688  65.750  1.00  0.00    -0.344 OA 
BRANCH  19  22
HETATM   22  N   UNL     1      -9.302  16.786  67.799  1.00  0.00    -0.231 NA 
HETATM   23  H   UNL     1      -8.613  17.205  68.423  1.00  0.00     0.000 HD 
BRANCH  22  24
HETATM   24  C   UNL     1     -10.755  16.912  68.040  1.00  0.00    -0.364 C  
BRANCH  24  25
HETATM   25  C   UNL     1     -11.127  16.088  69.279  1.00  0.00    -0.331 C  
HETATM   26  O   UNL     1      -9.948  15.670  69.964  1.00  0.00    -0.290 OA 
HETATM   27  H   UNL     1     -10.178  15.160  70.732  1.00  0.00     0.000 HD 
ENDBRANCH  24  25
ENDBRANCH  22  24
ENDBRANCH  19  22
ENDBRANCH   9  19
ENDBRANCH   5   7
ENDBRANCH   2   5
TORSDOF 6
ENDMDL
MODEL      107
REMARK 921   NORMALIZED FREE ENERGY PREDICTED BY IDOCK:   -3.37 KCAL/MOL
REMARK 922        TOTAL FREE ENERGY PREDICTED BY IDOCK:   -5.08 KCAL/MOL
REMARK 923 INTER-LIGAND FREE ENERGY PREDICTED BY IDOCK:   -4.53 KCAL/MOL
REMARK 924 INTRA-LIGAND FREE ENERGY PREDICTED BY IDOCK:   -0.55 KCAL/MOL
REMARK 927      BINDING AFFINITY PREDICTED BY RF-SCORE:    0.00 PKD
ROOT
HETATM    1  C   UNL     1      -8.673   8.965  71.330  1.00  0.00    -0.279 C  
HETATM    2  C   UNL     1     -10.086   8.515  71.534  1.00  0.00    -0.245 C  
HETATM    3  H   UNL     1     -11.291   7.927  72.937  1.00  0.00     0.000 HD 
HETATM    4  O   UNL     1     -10.394   8.213  72.807  1.00  0.00    -0.313 OA 
ENDROOT
BRANCH   2   5
HETATM    5  N   UNL     1     -10.929   8.442  70.555  1.00  0.00    -0.240 NA 
HETATM    6  H   UNL     1     -11.930   8.448  70.745  1.00  0.00     0.000 HD 
BRANCH   5   7
HETATM    7  C   UNL     1     -10.466   8.356  69.218  1.00  0.00    -0.215 A  
HETATM    8  C   UNL     1     -10.086   7.096  68.672  1.00  0.00    -0.173 A  
HETATM    9  C   UNL     1      -9.588   6.977  67.346  1.00  0.00    -0.164 A  
HETATM   10  I   UNL     1     -10.402   5.368  69.917  1.00  0.00    -0.254 I  
HETATM   11  C   UNL     1      -9.404   8.164  66.591  1.00  0.00    -0.197 A  
HETATM   12  O   UNL     1     -10.217  10.763  65.172  1.00  0.00    -0.280 OA 
HETATM   13  O   UNL     1      -8.945  11.581  66.853  1.00  0.00    -0.167 OA 
HETATM   14  I   UNL     1     -11.591  11.237  68.917  1.00  0.00    -0.418 I  
HETATM   15  C   UNL     1      -9.854   9.409  67.089  1.00  0.00    -0.242 A  
HETATM   16  I   UNL     1      -8.323   8.137  64.723  1.00  0.00     0.077 I  
HETATM   17  C   UNL     1     -10.451   9.477  68.362  1.00  0.00    -0.224 A  
HETATM   18  C   UNL     1      -9.603  10.680  66.369  1.00  0.00    -0.190 C  
BRANCH   9  19
HETATM   19  C   UNL     1      -9.310   5.651  66.707  1.00  0.00    -0.134 C  
HETATM   20  H   UNL     1     -10.130   4.296  65.559  1.00  0.00     0.000 HD 
HETATM   21  O   UNL     1     -10.307   5.137  65.964  1.00  0.00    -0.217 OA 
BRANCH  19  22
HETATM   22  N   UNL     1      -8.209   5.006  66.895  1.00  0.00    -0.108 NA 
HETATM   23  H   UNL     1      -7.584   5.220  67.672  1.00  0.00     0.000 HD 
BRANCH  22  24
HETATM   24  C   UNL     1      -7.908   3.938  65.918  1.00  0.00    -0.090 C  
BRANCH  24  25
HETATM   25  C   UNL     1      -8.114   2.576  66.591  1.00  0.00    -0.082 C  
HETATM   26  O   UNL     1      -9.506   2.296  66.724  1.00  0.00    -0.373 OA 
HETATM   27  H   UNL     1      -9.633   1.453  67.141  1.00  0.00     0.000 HD 
ENDBRANCH  24  25
ENDBRANCH  22  24
ENDBRANCH  19  22
ENDBRANCH   9  19
ENDBRANCH   5   7
ENDBRANCH   2   5
TORSDOF 6
ENDMDL
MODEL      108
REMARK 921   NORMALIZED FREE ENERGY PREDICTED BY IDOCK:   -3.34 KCAL/MOL
REMARK 922        TOTAL FREE ENERGY PREDICTED BY IDOCK:   -5.03 KCAL/MOL
REMARK 923 INTER-LIGAND FREE ENERGY PREDICTED BY IDOCK:   -5.11 KCAL/MOL
REMARK 924 INTRA-LIGAND FREE ENERGY PREDICTED BY IDOCK:    0.08 KCAL/MOL
REMARK 927      BINDING AFFINITY PREDICTED BY RF-SCORE:    0.00 PKD
ROOT
HETATM    1  C   UNL     1     -13.089   9.783  72.002  1.00  0.00    -0.546 C  
HETATM    2  C   UNL     1     -11.894   9.620  71.115  1.00  0.00    -0.367 C  
HETATM    3  H   UNL     1      -9.960   9.489  71.202  1.00  0.00     0.000 HD 
HETATM    4  O   UNL     1     -10.719   9.592  71.765  1.00  0.00    -0.160 OA 
ENDROOT
BRANCH   2   5
HETATM    5  N   UNL     1     -12.007   9.504  69.831  1.00  0.00    -0.428 NA 
HETATM    6  H   UNL     1     -12.929   9.535  69.397  1.00  0.00     0.000 HD 
BRANCH   5   7
HETATM    7  C   UNL     1     -10.854   9.333  69.024  1.00  0.00    -0.111 A  
HETATM    8  C   UNL     1     -10.189  10.467  68.477  1.00  0.00    -0.174 A  
HETATM    9  C   UNL     1      -9.050  10.331  67.638  1.00  0.00    -0.144 A  
HETATM   10  I   UNL     1     -10.930  12.400  69.067  1.00  0.00    -0.097 I  
HETATM   11  C   UNL     1      -8.626   9.021  67.291  1.00  0.00    -0.114 A  
HETATM   12  O   UNL     1      -7.592   6.169  67.767  1.00  0.00    -0.093 OA 
HETATM   13  O   UNL     1      -9.682   5.741  67.016  1.00  0.00    -0.127 OA 
HETATM   14  I   UNL     1     -10.847   6.420  70.108  1.00  0.00    -0.457 I  
HETATM   15  C   UNL     1      -9.224   7.890  67.893  1.00  0.00    -0.139 A  
HETATM   16  I   UNL     1      -7.150   8.703  65.748  1.00  0.00    -0.081 I  
HETATM   17  C   UNL     1     -10.277   8.063  68.812  1.00  0.00    -0.206 A  
HETATM   18  C   UNL     1      -8.868   6.508  67.494  1.00  0.00    -0.112 C  
BRANCH   9  19
HETATM   19  C   UNL     1      -8.256  11.509  67.161  1.00  0.00    -0.161 C  
HETATM   20  H   UNL     1      -6.684  12.584  67.607  1.00  0.00     0.000 HD 
HETATM   21  O   UNL     1      -7.187  11.837  67.909  1.00  0.00    -0.082 OA 
BRANCH  19  22
HETATM   22  N   UNL     1      -8.597  12.206  66.132  1.00  0.00    -0.394 NA 
HETATM   23  H   UNL     1      -8.117  13.072  65.884  1.00  0.00     0.000 HD 
BRANCH  22  24
HETATM   24  C   UNL     1      -9.724  11.679  65.334  1.00  0.00    -0.229 C  
BRANCH  24  25
HETATM   25  C   UNL     1     -10.671  12.833  64.988  1.00  0.00    -0.296 C  
HETATM   26  O   UNL     1     -10.311  13.409  63.734  1.00  0.00    -0.593 OA 
HETATM   27  H   UNL     1     -10.898  14.124  63.520  1.00  0.00     0.000 HD 
ENDBRANCH  24  25
ENDBRANCH  22  24
ENDBRANCH  19  22
ENDBRANCH   9  19
ENDBRANCH   5   7
ENDBRANCH   2   5
TORSDOF 6
ENDMDL
MODEL      109
REMARK 921   NORMALIZED FREE ENERGY PREDICTED BY IDOCK:   -3.33 KCAL/MOL
REMARK 922        TOTAL FREE ENERGY PREDICTED BY IDOCK:   -5.02 KCAL/MOL
REMARK 923 INTER-LIGAND FREE ENERGY PREDICTED BY IDOCK:   -5.13 KCAL/MOL
REMARK 924 INTRA-LIGAND FREE ENERGY PREDICTED BY IDOCK:    0.12 KCAL/MOL
REMARK 927      BINDING AFFINITY PREDICTED BY RF-SCORE:    0.00 PKD
ROOT
HETATM    1  C   UNL     1     -10.317  18.239  66.706  1.00  0.00    -0.403 C  
HETATM    2  C   UNL     1     -10.049  16.811  67.066  1.00  0.00    -0.276 C  
HETATM    3  H   UNL     1     -10.556  15.465  68.368  1.00  0.00     0.000 HD 
HETATM    4  O   UNL     1     -10.726  16.371  68.140  1.00  0.00    -0.309 OA 
ENDROOT
BRANCH   2   5
HETATM    5  N   UNL     1      -9.238  16.073  66.377  1.00  0.00    -0.276 NA 
HETATM    6  H   UNL     1      -8.477  16.507  65.854  1.00  0.00     0.000 HD 
BRANCH   5   7
HETATM    7  C   UNL     1      -9.402  14.666  66.346  1.00  0.00    -0.284 A  
HETATM    8  C   UNL     1      -8.669  13.839  67.246  1.00  0.00    -0.219 A  
HETATM    9  C   UNL     1      -8.785  12.423  67.221  1.00  0.00    -0.191 A  
HETATM   10  I   UNL     1      -7.455  14.845  68.711  1.00  0.00    -0.162 I  
HETATM   11  C   UNL     1      -9.602  11.836  66.220  1.00  0.00    -0.225 A  
HETATM   12  O   UNL     1     -12.186  11.251  64.668  1.00  0.00     0.295 OA 
HETATM   13  O   UNL     1     -11.002  12.376  63.105  1.00  0.00    -0.374 OA 
HETATM   14  I   UNL     1     -11.908  15.258  64.605  1.00  0.00     0.093 I  
HETATM   15  C   UNL     1     -10.399  12.645  65.377  1.00  0.00    -0.311 A  
HETATM   16  I   UNL     1      -9.563   9.707  65.861  1.00  0.00    -0.335 I  
HETATM   17  C   UNL     1     -10.350  14.046  65.504  1.00  0.00    -0.339 A  
HETATM   18  C   UNL     1     -11.198  12.074  64.267  1.00  0.00    -0.357 C  
BRANCH   9  19
HETATM   19  C   UNL     1      -8.128  11.544  68.240  1.00  0.00    -0.148 C  
HETATM   20  H   UNL     1      -6.541  10.434  68.519  1.00  0.00     0.000 HD 
HETATM   21  O   UNL     1      -6.958  10.992  67.872  1.00  0.00    -0.071 OA 
BRANCH  19  22
HETATM   22  N   UNL     1      -8.667  11.280  69.381  1.00  0.00    -0.314 NA 
HETATM   23  H   UNL     1      -8.494  11.855  70.206  1.00  0.00     0.000 HD 
BRANCH  22  24
HETATM   24  C   UNL     1      -9.549  10.094  69.424  1.00  0.00    -0.232 C  
BRANCH  24  25
HETATM   25  C   UNL     1     -10.951  10.534  69.864  1.00  0.00    -0.298 C  
HETATM   26  O   UNL     1     -11.908   9.528  69.539  1.00  0.00    -0.397 OA 
HETATM   27  H   UNL     1     -12.776   9.800  69.811  1.00  0.00     0.000 HD 
ENDBRANCH  24  25
ENDBRANCH  22  24
ENDBRANCH  19  22
ENDBRANCH   9  19
ENDBRANCH   5   7
ENDBRANCH   2   5
TORSDOF 6
ENDMDL
MODEL      110
REMARK 921   NORMALIZED FREE ENERGY PREDICTED BY IDOCK:   -3.32 KCAL/MOL
REMARK 922        TOTAL FREE ENERGY PREDICTED BY IDOCK:   -5.01 KCAL/MOL
REMARK 923 INTER-LIGAND FREE ENERGY PREDICTED BY IDOCK:   -5.39 KCAL/MOL
REMARK 924 INTRA-LIGAND FREE ENERGY PREDICTED BY IDOCK:    0.39 KCAL/MOL
REMARK 927      BINDING AFFINITY PREDICTED BY RF-SCORE:    0.00 PKD
ROOT
HETATM    1  C   UNL     1      -9.948  12.310  68.254  1.00  0.00    -0.216 C  
HETATM    2  C   UNL     1     -11.289  11.983  67.672  1.00  0.00    -0.307 C  
HETATM    3  H   UNL     1     -12.780  12.824  66.760  1.00  0.00     0.000 HD 
HETATM    4  O   UNL     1     -11.929  13.032  67.128  1.00  0.00    -0.371 OA 
ENDROOT
BRANCH   2   5
HETATM    5  N   UNL     1     -11.766  10.780  67.689  1.00  0.00    -0.635 NA 
HETATM    6  H   UNL     1     -12.592  10.554  67.136  1.00  0.00     0.000 HD 
BRANCH   5   7
HETATM    7  C   UNL     1     -11.146   9.776  68.473  1.00  0.00    -0.087 A  
HETATM    8  C   UNL     1     -10.115   8.966  67.915  1.00  0.00    -0.206 A  
HETATM    9  C   UNL     1      -9.495   7.929  68.662  1.00  0.00    -0.149 A  
HETATM   10  I   UNL     1      -9.473   9.458  65.920  1.00  0.00    -0.312 I  
HETATM   11  C   UNL     1      -9.979   7.663  69.970  1.00  0.00    -0.190 A  
HETATM   12  O   UNL     1     -10.647   8.254  72.908  1.00  0.00    -0.320 OA 
HETATM   13  O   UNL     1     -12.724   8.019  72.042  1.00  0.00    -0.315 OA 
HETATM   14  I   UNL     1     -12.513  11.181  70.885  1.00  0.00    -0.362 I  
HETATM   15  C   UNL     1     -10.941   8.511  70.565  1.00  0.00    -0.263 A  
HETATM   16  I   UNL     1      -9.365   5.894  71.044  1.00  0.00    -0.202 I  
HETATM   17  C   UNL     1     -11.454   9.603  69.840  1.00  0.00    -0.100 A  
HETATM   18  C   UNL     1     -11.533   8.218  71.892  1.00  0.00    -0.310 C  
BRANCH   9  19
HETATM   19  C   UNL     1      -8.321   7.155  68.144  1.00  0.00    -0.124 C  
HETATM   20  H   UNL     1      -6.366   7.177  68.097  1.00  0.00     0.000 HD 
HETATM   21  O   UNL     1      -7.110   7.668  68.425  1.00  0.00    -0.076 OA 
BRANCH  19  22
HETATM   22  N   UNL     1      -8.451   6.094  67.424  1.00  0.00    -0.108 NA 
HETATM   23  H   UNL     1      -7.645   5.575  67.077  1.00  0.00     0.000 HD 
BRANCH  22  24
HETATM   24  C   UNL     1      -9.838   5.673  67.132  1.00  0.00    -0.149 C  
BRANCH  24  25
HETATM   25  C   UNL     1      -9.802   4.387  66.296  1.00  0.00    -0.231 C  
HETATM   26  O   UNL     1      -9.803   3.245  67.149  1.00  0.00    -0.358 OA 
HETATM   27  H   UNL     1      -9.780   2.449  66.632  1.00  0.00     0.000 HD 
ENDBRANCH  24  25
ENDBRANCH  22  24
ENDBRANCH  19  22
ENDBRANCH   9  19
ENDBRANCH   5   7
ENDBRANCH   2   5
TORSDOF 6
ENDMDL
MODEL      111
REMARK 921   NORMALIZED FREE ENERGY PREDICTED BY IDOCK:   -3.31 KCAL/MOL
REMARK 922        TOTAL FREE ENERGY PREDICTED BY IDOCK:   -4.99 KCAL/MOL
REMARK 923 INTER-LIGAND FREE ENERGY PREDICTED BY IDOCK:   -5.19 KCAL/MOL
REMARK 924 INTRA-LIGAND FREE ENERGY PREDICTED BY IDOCK:    0.20 KCAL/MOL
REMARK 927      BINDING AFFINITY PREDICTED BY RF-SCORE:    0.00 PKD
ROOT
HETATM    1  C   UNL     1     -10.000  15.417  68.713  1.00  0.00    -0.208 C  
HETATM    2  C   UNL     1     -11.362  15.707  68.163  1.00  0.00    -0.340 C  
HETATM    3  H   UNL     1     -12.560  17.193  67.815  1.00  0.00     0.000 HD 
HETATM    4  O   UNL     1     -11.695  17.009  68.163  1.00  0.00     0.274 OA 
ENDROOT
BRANCH   2   5
HETATM    5  N   UNL     1     -12.133  14.769  67.717  1.00  0.00    -0.559 NA 
HETATM    6  H   UNL     1     -13.064  14.999  67.370  1.00  0.00     0.000 HD 
BRANCH   5   7
HETATM    7  C   UNL     1     -11.690  13.423  67.708  1.00  0.00    -0.359 A  
HETATM    8  C   UNL     1     -11.024  12.896  66.564  1.00  0.00    -0.275 A  
HETATM    9  C   UNL     1     -10.594  11.543  66.508  1.00  0.00    -0.301 A  
HETATM   10  I   UNL     1     -10.607  14.278  64.967  1.00  0.00    -0.368 I  
HETATM   11  C   UNL     1     -10.912  10.693  67.600  1.00  0.00    -0.310 A  
HETATM   12  O   UNL     1     -10.906   9.713  70.510  1.00  0.00    -0.260 OA 
HETATM   13  O   UNL     1     -13.080  10.284  70.262  1.00  0.00    -0.186 OA 
HETATM   14  I   UNL     1     -12.211  13.504  70.771  1.00  0.00    -0.072 I  
HETATM   15  C   UNL     1     -11.498  11.222  68.774  1.00  0.00    -0.359 A  
HETATM   16  I   UNL     1     -10.635   8.557  67.464  1.00  0.00     0.022 I  
HETATM   17  C   UNL     1     -11.806  12.594  68.844  1.00  0.00    -0.302 A  
HETATM   18  C   UNL     1     -11.922  10.355  69.899  1.00  0.00    -0.215 C  
BRANCH   9  19
HETATM   19  C   UNL     1      -9.777  11.004  65.375  1.00  0.00    -0.232 C  
HETATM   20  H   UNL     1      -9.951  10.224  63.589  1.00  0.00     0.000 HD 
HETATM   21  O   UNL     1     -10.469  10.566  64.308  1.00  0.00    -0.287 OA 
BRANCH  19  22
HETATM   22  N   UNL     1      -8.492  10.909  65.428  1.00  0.00    -0.308 NA 
HETATM   23  H   UNL     1      -7.948  11.355  66.166  1.00  0.00     0.000 HD 
BRANCH  22  24
HETATM   24  C   UNL     1      -7.855  10.114  64.356  1.00  0.00    -0.138 C  
BRANCH  24  25
HETATM   25  C   UNL     1      -7.593   8.696  64.877  1.00  0.00    -0.100 C  
HETATM   26  O   UNL     1      -8.240   7.737  64.043  1.00  0.00    -0.308 OA 
HETATM   27  H   UNL     1      -8.078   6.859  64.366  1.00  0.00     0.000 HD 
ENDBRANCH  24  25
ENDBRANCH  22  24
ENDBRANCH  19  22
ENDBRANCH   9  19
ENDBRANCH   5   7
ENDBRANCH   2   5
TORSDOF 6
ENDMDL
MODEL      112
REMARK 921   NORMALIZED FREE ENERGY PREDICTED BY IDOCK:   -3.30 KCAL/MOL
REMARK 922        TOTAL FREE ENERGY PREDICTED BY IDOCK:   -4.97 KCAL/MOL
REMARK 923 INTER-LIGAND FREE ENERGY PREDICTED BY IDOCK:   -4.59 KCAL/MOL
REMARK 924 INTRA-LIGAND FREE ENERGY PREDICTED BY IDOCK:   -0.38 KCAL/MOL
REMARK 927      BINDING AFFINITY PREDICTED BY RF-SCORE:    0.00 PKD
ROOT
HETATM    1  C   UNL     1      -6.076  10.630  65.541  1.00  0.00    -0.105 C  
HETATM    2  C   UNL     1      -6.592   9.868  66.721  1.00  0.00    -0.071 C  
HETATM    3  H   UNL     1      -7.343   8.141  67.186  1.00  0.00     0.000 HD 
HETATM    4  O   UNL     1      -7.015   8.624  66.437  1.00  0.00    -0.076 OA 
ENDROOT
BRANCH   2   5
HETATM    5  N   UNL     1      -6.607  10.377  67.910  1.00  0.00    -0.061 NA 
HETATM    6  H   UNL     1      -5.817  10.934  68.234  1.00  0.00     0.000 HD 
BRANCH   5   7
HETATM    7  C   UNL     1      -7.716  10.164  68.766  1.00  0.00    -0.088 A  
HETATM    8  C   UNL     1      -7.620   9.244  69.849  1.00  0.00    -0.093 A  
HETATM    9  C   UNL     1      -8.722   8.983  70.707  1.00  0.00    -0.269 A  
HETATM   10  I   UNL     1      -5.692   8.348  70.186  1.00  0.00    -0.019 I  
HETATM   11  C   UNL     1      -9.962   9.610  70.414  1.00  0.00    -0.271 A  
HETATM   12  O   UNL     1     -11.914  11.938  69.976  1.00  0.00    -0.322 OA 
HETATM   13  O   UNL     1     -11.802  11.083  67.885  1.00  0.00    -0.600 OA 
HETATM   14  I   UNL     1      -8.888  12.727  67.453  1.00  0.00    -0.215 I  
HETATM   15  C   UNL     1     -10.049  10.587  69.395  1.00  0.00    -0.233 A  
HETATM   16  I   UNL     1     -11.776   9.009  71.419  1.00  0.00    -0.464 I  
HETATM   17  C   UNL     1      -8.908  10.910  68.638  1.00  0.00    -0.158 A  
HETATM   18  C   UNL     1     -11.341  11.199  69.005  1.00  0.00    -0.276 C  
BRANCH   9  19
HETATM   19  C   UNL     1      -8.605   8.124  71.928  1.00  0.00    -0.152 C  
HETATM   20  H   UNL     1      -7.989   8.167  73.784  1.00  0.00     0.000 HD 
HETATM   21  O   UNL     1      -8.063   8.712  73.010  1.00  0.00    -0.394 OA 
BRANCH  19  22
HETATM   22  N   UNL     1      -8.948   6.881  71.940  1.00  0.00    -0.137 NA 
HETATM   23  H   UNL     1      -9.304   6.427  72.781  1.00  0.00     0.000 HD 
BRANCH  22  24
HETATM   24  C   UNL     1      -8.793   6.152  70.662  1.00  0.00    -0.143 C  
BRANCH  24  25
HETATM   25  C   UNL     1     -10.070   5.349  70.390  1.00  0.00    -0.244 C  
HETATM   26  O   UNL     1      -9.794   3.951  70.443  1.00  0.00    -0.196 OA 
HETATM   27  H   UNL     1     -10.585   3.453  70.274  1.00  0.00     0.000 HD 
ENDBRANCH  24  25
ENDBRANCH  22  24
ENDBRANCH  19  22
ENDBRANCH   9  19
ENDBRANCH   5   7
ENDBRANCH   2   5
TORSDOF 6
ENDMDL
MODEL      113
REMARK 921   NORMALIZED FREE ENERGY PREDICTED BY IDOCK:   -3.27 KCAL/MOL
REMARK 922        TOTAL FREE ENERGY PREDICTED BY IDOCK:   -4.93 KCAL/MOL
REMARK 923 INTER-LIGAND FREE ENERGY PREDICTED BY IDOCK:   -5.05 KCAL/MOL
REMARK 924 INTRA-LIGAND FREE ENERGY PREDICTED BY IDOCK:    0.12 KCAL/MOL
REMARK 927      BINDING AFFINITY PREDICTED BY RF-SCORE:    0.00 PKD
ROOT
HETATM    1  C   UNL     1     -11.612  12.958  69.195  1.00  0.00    -0.375 C  
HETATM    2  C   UNL     1     -11.186  11.948  68.176  1.00  0.00    -0.258 C  
HETATM    3  H   UNL     1     -11.885  10.457  67.150  1.00  0.00     0.000 HD 
HETATM    4  O   UNL     1     -12.155  11.098  67.797  1.00  0.00    -0.606 OA 
ENDROOT
BRANCH   2   5
HETATM    5  N   UNL     1      -9.983  11.923  67.700  1.00  0.00    -0.187 NA 
HETATM    6  H   UNL     1      -9.351  12.703  67.877  1.00  0.00     0.000 HD 
BRANCH   5   7
HETATM    7  C   UNL     1      -9.539  10.815  66.935  1.00  0.00    -0.171 A  
HETATM    8  C   UNL     1      -9.159   9.604  67.582  1.00  0.00    -0.131 A  
HETATM    9  C   UNL     1      -8.680   8.486  66.849  1.00  0.00    -0.137 A  
HETATM   10  I   UNL     1      -9.444   9.517  69.714  1.00  0.00    -0.282 I  
HETATM   11  C   UNL     1      -8.515   8.625  65.446  1.00  0.00    -0.172 A  
HETATM   12  O   UNL     1      -9.368   9.122  62.538  1.00  0.00     0.002 OA 
HETATM   13  O   UNL     1      -8.077  10.940  62.916  1.00  0.00    -0.093 OA 
HETATM   14  I   UNL     1     -10.690  12.369  64.501  1.00  0.00    -0.460 I  
HETATM   15  C   UNL     1      -8.966   9.789  64.782  1.00  0.00    -0.266 A  
HETATM   16  I   UNL     1      -7.462   7.132  64.297  1.00  0.00    -0.111 I  
HETATM   17  C   UNL     1      -9.545  10.836  65.524  1.00  0.00    -0.222 A  
HETATM   18  C   UNL     1      -8.735  10.007  63.334  1.00  0.00    -0.222 C  
BRANCH   9  19
HETATM   19  C   UNL     1      -8.401   7.162  67.492  1.00  0.00    -0.116 C  
HETATM   20  H   UNL     1      -6.949   6.106  68.270  1.00  0.00     0.000 HD 
HETATM   21  O   UNL     1      -7.126   6.946  67.862  1.00  0.00    -0.080 OA 
BRANCH  19  22
HETATM   22  N   UNL     1      -9.306   6.255  67.636  1.00  0.00    -0.117 NA 
HETATM   23  H   UNL     1     -10.191   6.445  68.106  1.00  0.00     0.000 HD 
BRANCH  22  24
HETATM   24  C   UNL     1      -8.985   4.922  67.081  1.00  0.00    -0.110 C  
BRANCH  24  25
HETATM   25  C   UNL     1      -9.726   4.748  65.750  1.00  0.00    -0.188 C  
HETATM   26  O   UNL     1     -11.133   4.860  65.950  1.00  0.00    -0.753 OA 
HETATM   27  H   UNL     1     -11.592   4.752  65.126  1.00  0.00     0.000 HD 
ENDBRANCH  24  25
ENDBRANCH  22  24
ENDBRANCH  19  22
ENDBRANCH   9  19
ENDBRANCH   5   7
ENDBRANCH   2   5
TORSDOF 6
ENDMDL
MODEL      114
REMARK 921   NORMALIZED FREE ENERGY PREDICTED BY IDOCK:   -3.26 KCAL/MOL
REMARK 922        TOTAL FREE ENERGY PREDICTED BY IDOCK:   -4.93 KCAL/MOL
REMARK 923 INTER-LIGAND FREE ENERGY PREDICTED BY IDOCK:   -4.97 KCAL/MOL
REMARK 924 INTRA-LIGAND FREE ENERGY PREDICTED BY IDOCK:    0.04 KCAL/MOL
REMARK 927      BINDING AFFINITY PREDICTED BY RF-SCORE:    0.00 PKD
ROOT
HETATM    1  C   UNL     1     -13.245  11.570  71.486  1.00  0.00    -0.320 C  
HETATM    2  C   UNL     1     -12.331  11.588  70.300  1.00  0.00    -0.273 C  
HETATM    3  H   UNL     1     -10.832  12.578  69.569  1.00  0.00     0.000 HD 
HETATM    4  O   UNL     1     -11.411  12.567  70.322  1.00  0.00    -0.074 OA 
ENDROOT
BRANCH   2   5
HETATM    5  N   UNL     1     -12.428  10.714  69.350  1.00  0.00    -0.690 NA 
HETATM    6  H   UNL     1     -13.347  10.442  69.002  1.00  0.00     0.000 HD 
BRANCH   5   7
HETATM    7  C   UNL     1     -11.262  10.134  68.791  1.00  0.00    -0.164 A  
HETATM    8  C   UNL     1     -10.698  10.668  67.597  1.00  0.00    -0.267 A  
HETATM    9  C   UNL     1      -9.549  10.091  66.992  1.00  0.00    -0.212 A  
HETATM   10  I   UNL     1     -11.609  12.453  66.812  1.00  0.00    -0.318 I  
HETATM   11  C   UNL     1      -9.009   8.911  67.568  1.00  0.00    -0.133 A  
HETATM   12  O   UNL     1      -7.728   7.160  69.741  1.00  0.00    -0.103 OA 
HETATM   13  O   UNL     1      -9.770   6.200  69.575  1.00  0.00    -0.143 OA 
HETATM   14  I   UNL     1     -11.001   8.668  71.520  1.00  0.00    -0.445 I  
HETATM   15  C   UNL     1      -9.507   8.420  68.797  1.00  0.00    -0.147 A  
HETATM   16  I   UNL     1      -7.506   7.756  66.535  1.00  0.00    -0.092 I  
HETATM   17  C   UNL     1     -10.574   9.082  69.434  1.00  0.00    -0.221 A  
HETATM   18  C   UNL     1      -9.029   7.146  69.385  1.00  0.00    -0.136 C  
BRANCH   9  19
HETATM   19  C   UNL     1      -8.861  10.713  65.816  1.00  0.00    -0.184 C  
HETATM   20  H   UNL     1      -8.731  10.585  63.868  1.00  0.00     0.000 HD 
HETATM   21  O   UNL     1      -9.167  10.191  64.614  1.00  0.00    -0.208 OA 
BRANCH  19  22
HETATM   22  N   UNL     1      -7.987  11.653  65.938  1.00  0.00    -0.332 NA 
HETATM   23  H   UNL     1      -7.759  12.281  65.167  1.00  0.00     0.000 HD 
BRANCH  22  24
HETATM   24  C   UNL     1      -7.334  11.766  67.260  1.00  0.00    -0.141 C  
BRANCH  24  25
HETATM   25  C   UNL     1      -7.749  13.092  67.907  1.00  0.00    -0.147 C  
HETATM   26  O   UNL     1      -8.435  12.849  69.133  1.00  0.00    -0.222 OA 
HETATM   27  H   UNL     1      -8.692  13.671  69.534  1.00  0.00     0.000 HD 
ENDBRANCH  24  25
ENDBRANCH  22  24
ENDBRANCH  19  22
ENDBRANCH   9  19
ENDBRANCH   5   7
ENDBRANCH   2   5
TORSDOF 6
ENDMDL
MODEL      115
REMARK 921   NORMALIZED FREE ENERGY PREDICTED BY IDOCK:   -3.26 KCAL/MOL
REMARK 922        TOTAL FREE ENERGY PREDICTED BY IDOCK:   -4.92 KCAL/MOL
REMARK 923 INTER-LIGAND FREE ENERGY PREDICTED BY IDOCK:   -5.07 KCAL/MOL
REMARK 924 INTRA-LIGAND FREE ENERGY PREDICTED BY IDOCK:    0.15 KCAL/MOL
REMARK 927      BINDING AFFINITY PREDICTED BY RF-SCORE:    0.00 PKD
ROOT
HETATM    1  C   UNL     1      -7.055  17.130  67.780  1.00  0.00    -0.165 C  
HETATM    2  C   UNL     1      -7.347  15.720  68.189  1.00  0.00    -0.124 C  
HETATM    3  H   UNL     1      -8.124  14.706  69.650  1.00  0.00     0.000 HD 
HETATM    4  O   UNL     1      -7.938  15.601  69.390  1.00  0.00    -0.226 OA 
ENDROOT
BRANCH   2   5
HETATM    5  N   UNL     1      -7.059  14.713  67.428  1.00  0.00    -0.197 NA 
HETATM    6  H   UNL     1      -6.280  14.778  66.774  1.00  0.00     0.000 HD 
BRANCH   5   7
HETATM    7  C   UNL     1      -7.821  13.521  67.500  1.00  0.00    -0.178 A  
HETATM    8  C   UNL     1      -7.356  12.419  68.273  1.00  0.00    -0.113 A  
HETATM    9  C   UNL     1      -8.079  11.197  68.341  1.00  0.00    -0.141 A  
HETATM   10  I   UNL     1      -5.558  12.730  69.414  1.00  0.00    -0.108 I  
HETATM   11  C   UNL     1      -9.253  11.069  67.554  1.00  0.00    -0.145 A  
HETATM   12  O   UNL     1     -12.088  11.737  66.583  1.00  0.00    -0.527 OA 
HETATM   13  O   UNL     1     -10.874  12.302  64.760  1.00  0.00    -0.283 OA 
HETATM   14  I   UNL     1     -10.114  15.222  66.269  1.00  0.00    -0.380 I  
HETATM   15  C   UNL     1      -9.770  12.181  66.850  1.00  0.00    -0.213 A  
HETATM   16  I   UNL     1     -10.217   9.154  67.300  1.00  0.00    -0.323 I  
HETATM   17  C   UNL     1      -9.092  13.413  66.896  1.00  0.00    -0.231 A  
HETATM   18  C   UNL     1     -10.944  12.064  65.951  1.00  0.00    -0.298 C  
BRANCH   9  19
HETATM   19  C   UNL     1      -7.679  10.075  69.250  1.00  0.00    -0.117 C  
HETATM   20  H   UNL     1      -6.720   8.370  69.256  1.00  0.00     0.000 HD 
HETATM   21  O   UNL     1      -6.973   9.082  68.680  1.00  0.00    -0.062 OA 
BRANCH  19  22
HETATM   22  N   UNL     1      -8.031  10.025  70.489  1.00  0.00    -0.424 NA 
HETATM   23  H   UNL     1      -7.518  10.523  71.216  1.00  0.00     0.000 HD 
BRANCH  22  24
HETATM   24  C   UNL     1      -9.223   9.204  70.793  1.00  0.00    -0.262 C  
BRANCH  24  25
HETATM   25  C   UNL     1      -9.128   8.708  72.241  1.00  0.00    -0.197 C  
HETATM   26  O   UNL     1      -7.777   8.763  72.694  1.00  0.00    -0.361 OA 
HETATM   27  H   UNL     1      -7.718   8.456  73.590  1.00  0.00     0.000 HD 
ENDBRANCH  24  25
ENDBRANCH  22  24
ENDBRANCH  19  22
ENDBRANCH   9  19
ENDBRANCH   5   7
ENDBRANCH   2   5
TORSDOF 6
ENDMDL
MODEL      116
REMARK 921   NORMALIZED FREE ENERGY PREDICTED BY IDOCK:   -3.25 KCAL/MOL
REMARK 922        TOTAL FREE ENERGY PREDICTED BY IDOCK:   -4.91 KCAL/MOL
REMARK 923 INTER-LIGAND FREE ENERGY PREDICTED BY IDOCK:   -5.10 KCAL/MOL
REMARK 924 INTRA-LIGAND FREE ENERGY PREDICTED BY IDOCK:    0.19 KCAL/MOL
REMARK 927      BINDING AFFINITY PREDICTED BY RF-SCORE:    0.00 PKD
ROOT
HETATM    1  C   UNL     1     -12.420  13.952  66.660  1.00  0.00    -0.313 C  
HETATM    2  C   UNL     1     -11.933  13.627  65.283  1.00  0.00    -0.376 C  
HETATM    3  H   UNL     1     -12.556  12.892  63.599  1.00  0.00     0.000 HD 
HETATM    4  O   UNL     1     -12.866  13.099  64.473  1.00  0.00    -0.680 OA 
ENDROOT
BRANCH   2   5
HETATM    5  N   UNL     1     -10.712  13.856  64.918  1.00  0.00    -0.386 NA 
HETATM    6  H   UNL     1     -10.482  13.919  63.927  1.00  0.00     0.000 HD 
BRANCH   5   7
HETATM    7  C   UNL     1      -9.694  14.020  65.890  1.00  0.00    -0.225 A  
HETATM    8  C   UNL     1      -9.334  15.324  66.337  1.00  0.00    -0.296 A  
HETATM    9  C   UNL     1      -8.296  15.527  67.286  1.00  0.00    -0.218 A  
HETATM   10  I   UNL     1     -10.509  16.962  65.583  1.00  0.00     0.130 I  
HETATM   11  C   UNL     1      -7.565  14.395  67.732  1.00  0.00    -0.164 A  
HETATM   12  O   UNL     1      -7.123  11.663  69.062  1.00  0.00    -0.106 OA 
HETATM   13  O   UNL     1      -6.680  11.157  66.903  1.00  0.00    -0.107 OA 
HETATM   14  I   UNL     1     -10.002  10.961  66.349  1.00  0.00    -0.300 I  
HETATM   15  C   UNL     1      -7.965  13.090  67.360  1.00  0.00    -0.173 A  
HETATM   16  I   UNL     1      -5.751  14.624  68.879  1.00  0.00    -0.099 I  
HETATM   17  C   UNL     1      -9.072  12.915  66.509  1.00  0.00    -0.132 A  
HETATM   18  C   UNL     1      -7.178  11.891  67.735  1.00  0.00    -0.104 C  
BRANCH   9  19
HETATM   19  C   UNL     1      -7.991  16.872  67.870  1.00  0.00    -0.183 C  
HETATM   20  H   UNL     1      -8.436  18.027  69.385  1.00  0.00     0.000 HD 
HETATM   21  O   UNL     1      -8.629  17.174  69.015  1.00  0.00    -0.218 OA 
BRANCH  19  22
HETATM   22  N   UNL     1      -7.211  17.721  67.292  1.00  0.00    -0.177 NA 
HETATM   23  H   UNL     1      -6.357  17.431  66.815  1.00  0.00     0.000 HD 
BRANCH  22  24
HETATM   24  C   UNL     1      -7.628  19.138  67.360  1.00  0.00    -0.234 C  
BRANCH  24  25
HETATM   25  C   UNL     1      -6.798  19.948  66.357  1.00  0.00    -0.219 C  
HETATM   26  O   UNL     1      -7.642  20.499  65.348  1.00  0.00    -0.520 OA 
HETATM   27  H   UNL     1      -7.128  21.001  64.728  1.00  0.00     0.000 HD 
ENDBRANCH  24  25
ENDBRANCH  22  24
ENDBRANCH  19  22
ENDBRANCH   9  19
ENDBRANCH   5   7
ENDBRANCH   2   5
TORSDOF 6
ENDMDL
MODEL      117
REMARK 921   NORMALIZED FREE ENERGY PREDICTED BY IDOCK:   -3.23 KCAL/MOL
REMARK 922        TOTAL FREE ENERGY PREDICTED BY IDOCK:   -4.88 KCAL/MOL
REMARK 923 INTER-LIGAND FREE ENERGY PREDICTED BY IDOCK:   -5.20 KCAL/MOL
REMARK 924 INTRA-LIGAND FREE ENERGY PREDICTED BY IDOCK:    0.31 KCAL/MOL
REMARK 927      BINDING AFFINITY PREDICTED BY RF-SCORE:    0.00 PKD
ROOT
HETATM    1  C   UNL     1     -11.584  10.958  68.593  1.00  0.00    -0.373 C  
HETATM    2  C   UNL     1     -10.678  10.471  67.506  1.00  0.00    -0.276 C  
HETATM    3  H   UNL     1     -10.000   8.824  66.737  1.00  0.00     0.000 HD 
HETATM    4  O   UNL     1     -10.575   9.134  67.427  1.00  0.00    -0.272 OA 
ENDROOT
BRANCH   2   5
HETATM    5  N   UNL     1     -10.065  11.287  66.710  1.00  0.00    -0.213 NA 
HETATM    6  H   UNL     1     -10.030  11.090  65.710  1.00  0.00     0.000 HD 
BRANCH   5   7
HETATM    7  C   UNL     1      -9.444  12.453  67.221  1.00  0.00    -0.191 A  
HETATM    8  C   UNL     1     -10.026  13.733  66.994  1.00  0.00    -0.251 A  
HETATM    9  C   UNL     1      -9.413  14.926  67.465  1.00  0.00    -0.200 A  
HETATM   10  I   UNL     1     -11.932  13.764  65.994  1.00  0.00    -0.514 I  
HETATM   11  C   UNL     1      -8.153  14.822  68.111  1.00  0.00    -0.134 A  
HETATM   12  O   UNL     1      -6.144  13.923  70.252  1.00  0.00    -0.143 OA 
HETATM   13  O   UNL     1      -5.359  12.813  68.444  1.00  0.00    -0.054 OA 
HETATM   14  I   UNL     1      -7.751  10.485  68.931  1.00  0.00    -0.141 I  
HETATM   15  C   UNL     1      -7.606  13.554  68.417  1.00  0.00    -0.133 A  
HETATM   16  I   UNL     1      -6.973  16.578  68.536  1.00  0.00    -0.188 I  
HETATM   17  C   UNL     1      -8.296  12.386  68.040  1.00  0.00    -0.170 A  
HETATM   18  C   UNL     1      -6.257  13.404  69.013  1.00  0.00    -0.092 C  
BRANCH   9  19
HETATM   19  C   UNL     1     -10.071  16.267  67.355  1.00  0.00    -0.260 C  
HETATM   20  H   UNL     1     -10.369  17.733  66.095  1.00  0.00     0.000 HD 
HETATM   21  O   UNL     1      -9.952  16.883  66.165  1.00  0.00    -0.302 OA 
BRANCH  19  22
HETATM   22  N   UNL     1     -10.671  16.831  68.347  1.00  0.00    -0.348 NA 
HETATM   23  H   UNL     1     -11.048  17.776  68.282  1.00  0.00     0.000 HD 
BRANCH  22  24
HETATM   24  C   UNL     1     -10.778  16.027  69.583  1.00  0.00    -0.316 C  
BRANCH  24  25
HETATM   25  C   UNL     1     -12.229  15.558  69.747  1.00  0.00    -0.302 C  
HETATM   26  O   UNL     1     -12.264  14.170  70.071  1.00  0.00    -0.322 OA 
HETATM   27  H   UNL     1     -13.162  13.879  70.172  1.00  0.00     0.000 HD 
ENDBRANCH  24  25
ENDBRANCH  22  24
ENDBRANCH  19  22
ENDBRANCH   9  19
ENDBRANCH   5   7
ENDBRANCH   2   5
TORSDOF 6
ENDMDL
MODEL      118
REMARK 921   NORMALIZED FREE ENERGY PREDICTED BY IDOCK:   -3.23 KCAL/MOL
REMARK 922        TOTAL FREE ENERGY PREDICTED BY IDOCK:   -4.88 KCAL/MOL
REMARK 923 INTER-LIGAND FREE ENERGY PREDICTED BY IDOCK:   -5.12 KCAL/MOL
REMARK 924 INTRA-LIGAND FREE ENERGY PREDICTED BY IDOCK:    0.24 KCAL/MOL
REMARK 927      BINDING AFFINITY PREDICTED BY RF-SCORE:    0.00 PKD
ROOT
HETATM    1  C   UNL     1     -12.364  12.197  70.484  1.00  0.00    -0.358 C  
HETATM    2  C   UNL     1     -11.557  11.453  69.466  1.00  0.00    -0.331 C  
HETATM    3  H   UNL     1     -11.763  10.472  67.805  1.00  0.00     0.000 HD 
HETATM    4  O   UNL     1     -12.276  10.944  68.451  1.00  0.00    -0.540 OA 
ENDROOT
BRANCH   2   5
HETATM    5  N   UNL     1     -10.272  11.335  69.565  1.00  0.00    -0.435 NA 
HETATM    6  H   UNL     1      -9.742  12.004  70.124  1.00  0.00     0.000 HD 
BRANCH   5   7
HETATM    7  C   UNL     1      -9.597  10.281  68.901  1.00  0.00    -0.190 A  
HETATM    8  C   UNL     1      -9.580   8.973  69.466  1.00  0.00    -0.165 A  
HETATM    9  C   UNL     1      -8.886   7.900  68.844  1.00  0.00    -0.142 A  
HETATM   10  I   UNL     1     -10.742   8.678  71.254  1.00  0.00    -0.409 I  
HETATM   11  C   UNL     1      -8.139   8.178  67.670  1.00  0.00    -0.127 A  
HETATM   12  O   UNL     1      -7.660   9.079  64.774  1.00  0.00    -0.100 OA 
HETATM   13  O   UNL     1      -6.569  10.705  65.907  1.00  0.00    -0.122 OA 
HETATM   14  I   UNL     1      -9.541  12.204  66.460  1.00  0.00    -0.239 I  
HETATM   15  C   UNL     1      -8.215   9.449  67.054  1.00  0.00    -0.116 A  
HETATM   16  I   UNL     1      -6.766   6.723  66.856  1.00  0.00    -0.060 I  
HETATM   17  C   UNL     1      -9.005  10.459  67.632  1.00  0.00    -0.138 A  
HETATM   18  C   UNL     1      -7.384   9.802  65.878  1.00  0.00    -0.103 C  
BRANCH   9  19
HETATM   19  C   UNL     1      -8.965   6.492  69.347  1.00  0.00    -0.132 C  
HETATM   20  H   UNL     1      -8.027   5.215  70.495  1.00  0.00     0.000 HD 
HETATM   21  O   UNL     1      -7.977   6.108  70.176  1.00  0.00    -0.103 OA 
BRANCH  19  22
HETATM   22  N   UNL     1      -9.886   5.670  68.974  1.00  0.00    -0.147 NA 
HETATM   23  H   UNL     1     -10.748   5.549  69.504  1.00  0.00     0.000 HD 
BRANCH  22  24
HETATM   24  C   UNL     1      -9.618   4.915  67.731  1.00  0.00    -0.148 C  
BRANCH  24  25
HETATM   25  C   UNL     1     -10.529   5.449  66.619  1.00  0.00    -0.298 C  
HETATM   26  O   UNL     1     -11.474   6.372  67.156  1.00  0.00    -0.720 OA 
HETATM   27  H   UNL     1     -12.038   6.702  66.467  1.00  0.00     0.000 HD 
ENDBRANCH  24  25
ENDBRANCH  22  24
ENDBRANCH  19  22
ENDBRANCH   9  19
ENDBRANCH   5   7
ENDBRANCH   2   5
TORSDOF 6
ENDMDL
MODEL      119
REMARK 921   NORMALIZED FREE ENERGY PREDICTED BY IDOCK:   -3.22 KCAL/MOL
REMARK 922        TOTAL FREE ENERGY PREDICTED BY IDOCK:   -4.87 KCAL/MOL
REMARK 923 INTER-LIGAND FREE ENERGY PREDICTED BY IDOCK:   -5.31 KCAL/MOL
REMARK 924 INTRA-LIGAND FREE ENERGY PREDICTED BY IDOCK:    0.43 KCAL/MOL
REMARK 927      BINDING AFFINITY PREDICTED BY RF-SCORE:    0.00 PKD
ROOT
HETATM    1  C   UNL     1      -8.477  15.099  69.269  1.00  0.00    -0.209 C  
HETATM    2  C   UNL     1      -9.199  15.229  67.964  1.00  0.00    -0.188 C  
HETATM    3  H   UNL     1      -8.970  15.967  66.184  1.00  0.00     0.000 HD 
HETATM    4  O   UNL     1      -8.512  15.884  67.012  1.00  0.00    -0.181 OA 
ENDROOT
BRANCH   2   5
HETATM    5  N   UNL     1     -10.380  14.732  67.783  1.00  0.00    -0.243 NA 
HETATM    6  H   UNL     1     -10.960  15.067  67.015  1.00  0.00     0.000 HD 
BRANCH   5   7
HETATM    7  C   UNL     1     -10.872  13.724  68.649  1.00  0.00    -0.263 A  
HETATM    8  C   UNL     1     -10.526  12.359  68.429  1.00  0.00    -0.235 A  
HETATM    9  C   UNL     1     -11.027  11.320  69.258  1.00  0.00    -0.297 A  
HETATM   10  I   UNL     1      -9.127  11.961  66.842  1.00  0.00    -0.208 I  
HETATM   11  C   UNL     1     -11.950  11.664  70.280  1.00  0.00    -0.358 A  
HETATM   12  O   UNL     1     -12.953  13.055  72.827  1.00  0.00    -0.228 OA 
HETATM   13  O   UNL     1     -14.244  14.057  71.262  1.00  0.00    -0.162 OA 
HETATM   14  I   UNL     1     -11.645  16.078  70.526  1.00  0.00    -0.145 I  
HETATM   15  C   UNL     1     -12.235  13.020  70.563  1.00  0.00    -0.392 A  
HETATM   16  I   UNL     1     -13.042  10.140  71.350  1.00  0.00    -0.437 I  
HETATM   17  C   UNL     1     -11.632  14.035  69.797  1.00  0.00    -0.281 A  
HETATM   18  C   UNL     1     -13.255  13.415  71.563  1.00  0.00    -0.312 C  
BRANCH   9  19
HETATM   19  C   UNL     1     -10.573   9.898  69.128  1.00  0.00    -0.220 C  
HETATM   20  H   UNL     1     -10.745   8.330  67.971  1.00  0.00     0.000 HD 
HETATM   21  O   UNL     1     -11.033   9.231  68.053  1.00  0.00    -0.155 OA 
BRANCH  19  22
HETATM   22  N   UNL     1      -9.835   9.320  70.012  1.00  0.00    -0.191 NA 
HETATM   23  H   UNL     1     -10.235   8.805  70.797  1.00  0.00     0.000 HD 
BRANCH  22  24
HETATM   24  C   UNL     1      -8.374   9.447  69.822  1.00  0.00    -0.157 C  
BRANCH  24  25
HETATM   25  C   UNL     1      -7.662   8.926  71.077  1.00  0.00    -0.132 C  
HETATM   26  O   UNL     1      -6.621   9.821  71.461  1.00  0.00    -0.312 OA 
HETATM   27  H   UNL     1      -6.181   9.499  72.238  1.00  0.00     0.000 HD 
ENDBRANCH  24  25
ENDBRANCH  22  24
ENDBRANCH  19  22
ENDBRANCH   9  19
ENDBRANCH   5   7
ENDBRANCH   2   5
TORSDOF 6
ENDMDL
MODEL      120
REMARK 921   NORMALIZED FREE ENERGY PREDICTED BY IDOCK:   -3.21 KCAL/MOL
REMARK 922        TOTAL FREE ENERGY PREDICTED BY IDOCK:   -4.86 KCAL/MOL
REMARK 923 INTER-LIGAND FREE ENERGY PREDICTED BY IDOCK:   -4.99 KCAL/MOL
REMARK 924 INTRA-LIGAND FREE ENERGY PREDICTED BY IDOCK:    0.13 KCAL/MOL
REMARK 927      BINDING AFFINITY PREDICTED BY RF-SCORE:    0.00 PKD
ROOT
HETATM    1  C   UNL     1     -11.575  11.916  67.436  1.00  0.00    -0.367 C  
HETATM    2  C   UNL     1     -10.453  11.269  66.685  1.00  0.00    -0.247 C  
HETATM    3  H   UNL     1      -9.856   9.526  66.078  1.00  0.00     0.000 HD 
HETATM    4  O   UNL     1     -10.568   9.937  66.554  1.00  0.00    -0.176 OA 
ENDROOT
BRANCH   2   5
HETATM    5  N   UNL     1      -9.471  11.956  66.197  1.00  0.00    -0.230 NA 
HETATM    6  H   UNL     1      -9.086  11.714  65.284  1.00  0.00     0.000 HD 
BRANCH   5   7
HETATM    7  C   UNL     1      -8.928  13.044  66.925  1.00  0.00    -0.209 A  
HETATM    8  C   UNL     1      -9.329  14.378  66.626  1.00  0.00    -0.278 A  
HETATM    9  C   UNL     1      -8.781  15.493  67.315  1.00  0.00    -0.214 A  
HETATM   10  I   UNL     1     -10.882  14.613  65.154  1.00  0.00    -0.461 I  
HETATM   11  C   UNL     1      -7.758  15.255  68.269  1.00  0.00    -0.112 A  
HETATM   12  O   UNL     1      -6.482  14.105  70.814  1.00  0.00    -0.090 OA 
HETATM   13  O   UNL     1      -5.317  12.999  69.221  1.00  0.00    -0.073 OA 
HETATM   14  I   UNL     1      -7.918  10.873  68.907  1.00  0.00    -0.064 I  
HETATM   15  C   UNL     1      -7.410  13.934  68.634  1.00  0.00    -0.117 A  
HETATM   16  I   UNL     1      -6.611  16.885  69.099  1.00  0.00    -0.199 I  
HETATM   17  C   UNL     1      -8.055  12.846  68.017  1.00  0.00    -0.159 A  
HETATM   18  C   UNL     1      -6.290  13.645  69.561  1.00  0.00    -0.114 C  
BRANCH   9  19
HETATM   19  C   UNL     1      -9.284  16.890  67.112  1.00  0.00    -0.229 C  
HETATM   20  H   UNL     1     -10.539  18.195  67.852  1.00  0.00     0.000 HD 
HETATM   21  O   UNL     1     -10.221  17.309  67.981  1.00  0.00    -0.297 OA 
BRANCH  19  22
HETATM   22  N   UNL     1      -8.892  17.635  66.135  1.00  0.00    -0.490 NA 
HETATM   23  H   UNL     1      -8.809  17.278  65.183  1.00  0.00     0.000 HD 
BRANCH  22  24
HETATM   24  C   UNL     1      -8.569  19.037  66.476  1.00  0.00    -0.311 C  
BRANCH  24  25
HETATM   25  C   UNL     1      -7.274  19.438  65.759  1.00  0.00    -0.280 C  
HETATM   26  O   UNL     1      -6.490  18.281  65.473  1.00  0.00    -0.268 OA 
HETATM   27  H   UNL     1      -5.689  18.529  65.029  1.00  0.00     0.000 HD 
ENDBRANCH  24  25
ENDBRANCH  22  24
ENDBRANCH  19  22
ENDBRANCH   9  19
ENDBRANCH   5   7
ENDBRANCH   2   5
TORSDOF 6
ENDMDL
MODEL      121
REMARK 921   NORMALIZED FREE ENERGY PREDICTED BY IDOCK:   -3.21 KCAL/MOL
REMARK 922        TOTAL FREE ENERGY PREDICTED BY IDOCK:   -4.86 KCAL/MOL
REMARK 923 INTER-LIGAND FREE ENERGY PREDICTED BY IDOCK:   -4.53 KCAL/MOL
REMARK 924 INTRA-LIGAND FREE ENERGY PREDICTED BY IDOCK:   -0.33 KCAL/MOL
REMARK 927      BINDING AFFINITY PREDICTED BY RF-SCORE:    0.00 PKD
ROOT
HETATM    1  C   UNL     1     -11.875   6.778  70.613  1.00  0.00    -0.442 C  
HETATM    2  C   UNL     1     -12.264   7.836  71.597  1.00  0.00    -0.313 C  
HETATM    3  H   UNL     1     -13.705   8.310  72.808  1.00  0.00     0.000 HD 
HETATM    4  O   UNL     1     -13.457   7.638  72.183  1.00  0.00    -0.187 OA 
ENDROOT
BRANCH   2   5
HETATM    5  N   UNL     1     -11.495   8.844  71.858  1.00  0.00    -0.355 NA 
HETATM    6  H   UNL     1     -11.757   9.508  72.586  1.00  0.00     0.000 HD 
BRANCH   5   7
HETATM    7  C   UNL     1     -10.290   9.029  71.136  1.00  0.00    -0.291 A  
HETATM    8  C   UNL     1     -10.202  10.039  70.136  1.00  0.00    -0.242 A  
HETATM    9  C   UNL     1      -9.019  10.231  69.371  1.00  0.00    -0.190 A  
HETATM   10  I   UNL     1     -11.911  11.328  69.911  1.00  0.00    -0.444 I  
HETATM   11  C   UNL     1      -7.937   9.336  69.575  1.00  0.00    -0.098 A  
HETATM   12  O   UNL     1      -5.710   7.906  71.133  1.00  0.00    -0.034 OA 
HETATM   13  O   UNL     1      -7.120   6.182  70.735  1.00  0.00    -0.065 OA 
HETATM   14  I   UNL     1      -9.009   7.232  73.325  1.00  0.00    -0.266 I  
HETATM   15  C   UNL     1      -7.980   8.384  70.621  1.00  0.00    -0.101 A  
HETATM   16  I   UNL     1      -6.250   9.306  68.229  1.00  0.00    -0.053 I  
HETATM   17  C   UNL     1      -9.122   8.296  71.438  1.00  0.00    -0.170 A  
HETATM   18  C   UNL     1      -6.908   7.378  70.811  1.00  0.00    -0.048 C  
BRANCH   9  19
HETATM   19  C   UNL     1      -8.858  11.369  68.411  1.00  0.00    -0.167 C  
HETATM   20  H   UNL     1      -9.117  11.840  66.530  1.00  0.00     0.000 HD 
HETATM   21  O   UNL     1      -9.219  11.119  67.139  1.00  0.00    -0.156 OA 
BRANCH  19  22
HETATM   22  N   UNL     1      -8.354  12.504  68.755  1.00  0.00    -0.350 NA 
HETATM   23  H   UNL     1      -7.601  12.575  69.440  1.00  0.00     0.000 HD 
BRANCH  22  24
HETATM   24  C   UNL     1      -8.930  13.697  68.099  1.00  0.00    -0.191 C  
BRANCH  24  25
HETATM   25  C   UNL     1      -7.936  14.859  68.219  1.00  0.00    -0.130 C  
HETATM   26  O   UNL     1      -7.676  15.145  69.591  1.00  0.00    -0.231 OA 
HETATM   27  H   UNL     1      -7.060  15.865  69.666  1.00  0.00     0.000 HD 
ENDBRANCH  24  25
ENDBRANCH  22  24
ENDBRANCH  19  22
ENDBRANCH   9  19
ENDBRANCH   5   7
ENDBRANCH   2   5
TORSDOF 6
ENDMDL
MODEL      122
REMARK 921   NORMALIZED FREE ENERGY PREDICTED BY IDOCK:   -3.17 KCAL/MOL
REMARK 922        TOTAL FREE ENERGY PREDICTED BY IDOCK:   -4.80 KCAL/MOL
REMARK 923 INTER-LIGAND FREE ENERGY PREDICTED BY IDOCK:   -4.99 KCAL/MOL
REMARK 924 INTRA-LIGAND FREE ENERGY PREDICTED BY IDOCK:    0.18 KCAL/MOL
REMARK 927      BINDING AFFINITY PREDICTED BY RF-SCORE:    0.00 PKD
ROOT
HETATM    1  C   UNL     1     -11.120   6.305  71.038  1.00  0.00    -0.357 C  
HETATM    2  C   UNL     1     -10.648   6.965  72.296  1.00  0.00    -0.216 C  
HETATM    3  H   UNL     1     -10.660   6.722  74.220  1.00  0.00     0.000 HD 
HETATM    4  O   UNL     1     -10.960   6.302  73.422  1.00  0.00    -0.245 OA 
ENDROOT
BRANCH   2   5
HETATM    5  N   UNL     1      -9.984   8.076  72.277  1.00  0.00    -0.216 NA 
HETATM    6  H   UNL     1      -9.528   8.409  73.126  1.00  0.00     0.000 HD 
BRANCH   5   7
HETATM    7  C   UNL     1      -9.888   8.832  71.082  1.00  0.00    -0.244 A  
HETATM    8  C   UNL     1      -8.807   8.612  70.181  1.00  0.00    -0.141 A  
HETATM    9  C   UNL     1      -8.662   9.373  68.990  1.00  0.00    -0.136 A  
HETATM   10  I   UNL     1      -7.462   7.001  70.660  1.00  0.00    -0.087 I  
HETATM   11  C   UNL     1      -9.588  10.422  68.748  1.00  0.00    -0.177 A  
HETATM   12  O   UNL     1     -12.332  11.708  68.256  1.00  0.00    -0.420 OA 
HETATM   13  O   UNL     1     -11.822  12.565  70.287  1.00  0.00    -0.317 OA 
HETATM   14  I   UNL     1     -12.825   9.659  71.677  1.00  0.00    -0.565 I  
HETATM   15  C   UNL     1     -10.711  10.595  69.589  1.00  0.00    -0.290 A  
HETATM   16  I   UNL     1      -9.251  11.861  67.175  1.00  0.00    -0.206 I  
HETATM   17  C   UNL     1     -10.890   9.748  70.699  1.00  0.00    -0.329 A  
HETATM   18  C   UNL     1     -11.651  11.729  69.419  1.00  0.00    -0.322 C  
BRANCH   9  19
HETATM   19  C   UNL     1      -7.612   9.071  67.964  1.00  0.00    -0.092 C  
HETATM   20  H   UNL     1      -5.748   9.456  67.515  1.00  0.00     0.000 HD 
HETATM   21  O   UNL     1      -6.413   9.648  68.165  1.00  0.00    -0.056 OA 
BRANCH  19  22
HETATM   22  N   UNL     1      -7.846   8.351  66.921  1.00  0.00    -0.095 NA 
HETATM   23  H   UNL     1      -8.765   7.948  66.738  1.00  0.00     0.000 HD 
BRANCH  22  24
HETATM   24  C   UNL     1      -6.704   8.144  66.005  1.00  0.00    -0.053 C  
BRANCH  24  25
HETATM   25  C   UNL     1      -7.223   7.553  64.689  1.00  0.00    -0.068 C  
HETATM   26  O   UNL     1      -8.619   7.280  64.787  1.00  0.00    -0.352 OA 
HETATM   27  H   UNL     1      -8.940   6.914  63.972  1.00  0.00     0.000 HD 
ENDBRANCH  24  25
ENDBRANCH  22  24
ENDBRANCH  19  22
ENDBRANCH   9  19
ENDBRANCH   5   7
ENDBRANCH   2   5
TORSDOF 6
ENDMDL
MODEL      123
REMARK 921   NORMALIZED FREE ENERGY PREDICTED BY IDOCK:   -3.17 KCAL/MOL
REMARK 922        TOTAL FREE ENERGY PREDICTED BY IDOCK:   -4.80 KCAL/MOL
REMARK 923 INTER-LIGAND FREE ENERGY PREDICTED BY IDOCK:   -4.86 KCAL/MOL
REMARK 924 INTRA-LIGAND FREE ENERGY PREDICTED BY IDOCK:    0.06 KCAL/MOL
REMARK 927      BINDING AFFINITY PREDICTED BY RF-SCORE:    0.00 PKD
ROOT
HETATM    1  C   UNL     1      -9.352  10.707  69.144  1.00  0.00    -0.174 C  
HETATM    2  C   UNL     1      -8.191  10.376  68.259  1.00  0.00    -0.114 C  
HETATM    3  H   UNL     1      -6.684   9.160  68.142  1.00  0.00     0.000 HD 
HETATM    4  O   UNL     1      -7.421   9.369  68.704  1.00  0.00    -0.078 OA 
ENDROOT
BRANCH   2   5
HETATM    5  N   UNL     1      -7.972  11.012  67.152  1.00  0.00    -0.129 NA 
HETATM    6  H   UNL     1      -7.582  10.516  66.351  1.00  0.00     0.000 HD 
BRANCH   5   7
HETATM    7  C   UNL     1      -8.274  12.392  67.049  1.00  0.00    -0.141 A  
HETATM    8  C   UNL     1      -7.336  13.366  67.498  1.00  0.00    -0.156 A  
HETATM    9  C   UNL     1      -7.618  14.757  67.438  1.00  0.00    -0.228 A  
HETATM   10  I   UNL     1      -5.429  12.630  68.174  1.00  0.00    -0.103 I  
HETATM   11  C   UNL     1      -8.901  15.162  66.985  1.00  0.00    -0.234 A  
HETATM   12  O   UNL     1     -11.241  15.441  65.017  1.00  0.00    -0.387 OA 
HETATM   13  O   UNL     1     -12.169  14.104  66.587  1.00  0.00    -0.448 OA 
HETATM   14  I   UNL     1     -10.582  11.481  65.177  1.00  0.00    -0.313 I  
HETATM   15  C   UNL     1      -9.808  14.213  66.459  1.00  0.00    -0.298 A  
HETATM   16  I   UNL     1      -9.562  17.206  67.197  1.00  0.00    -0.294 I  
HETATM   17  C   UNL     1      -9.453  12.851  66.423  1.00  0.00    -0.226 A  
HETATM   18  C   UNL     1     -11.186  14.584  66.055  1.00  0.00    -0.337 C  
BRANCH   9  19
HETATM   19  C   UNL     1      -6.599  15.800  67.779  1.00  0.00    -0.159 C  
HETATM   20  H   UNL     1      -5.096  16.790  67.011  1.00  0.00     0.000 HD 
HETATM   21  O   UNL     1      -5.743  16.128  66.795  1.00  0.00    -0.306 OA 
BRANCH  19  22
HETATM   22  N   UNL     1      -6.502  16.320  68.955  1.00  0.00    -0.151 NA 
HETATM   23  H   UNL     1      -6.088  17.240  69.107  1.00  0.00     0.000 HD 
BRANCH  22  24
HETATM   24  C   UNL     1      -7.025  15.503  70.072  1.00  0.00     0.011 C  
BRANCH  24  25
HETATM   25  C   UNL     1      -5.849  14.833  70.791  1.00  0.00    -0.131 C  
HETATM   26  O   UNL     1      -6.329  13.886  71.743  1.00  0.00    -0.466 OA 
HETATM   27  H   UNL     1      -5.601  13.470  72.189  1.00  0.00     0.000 HD 
ENDBRANCH  24  25
ENDBRANCH  22  24
ENDBRANCH  19  22
ENDBRANCH   9  19
ENDBRANCH   5   7
ENDBRANCH   2   5
TORSDOF 6
ENDMDL
MODEL      124
REMARK 921   NORMALIZED FREE ENERGY PREDICTED BY IDOCK:   -3.16 KCAL/MOL
REMARK 922        TOTAL FREE ENERGY PREDICTED BY IDOCK:   -4.79 KCAL/MOL
REMARK 923 INTER-LIGAND FREE ENERGY PREDICTED BY IDOCK:   -5.65 KCAL/MOL
REMARK 924 INTRA-LIGAND FREE ENERGY PREDICTED BY IDOCK:    0.86 KCAL/MOL
REMARK 927      BINDING AFFINITY PREDICTED BY RF-SCORE:    0.00 PKD
ROOT
HETATM    1  C   UNL     1      -6.594  18.427  65.655  1.00  0.00    -0.313 C  
HETATM    2  C   UNL     1      -7.482  18.747  66.817  1.00  0.00    -0.224 C  
HETATM    3  H   UNL     1      -8.631  20.158  67.491  1.00  0.00     0.000 HD 
HETATM    4  O   UNL     1      -8.067  19.955  66.753  1.00  0.00    -0.290 OA 
ENDROOT
BRANCH   2   5
HETATM    5  N   UNL     1      -7.668  17.909  67.786  1.00  0.00    -0.216 NA 
HETATM    6  H   UNL     1      -7.490  18.197  68.748  1.00  0.00     0.000 HD 
BRANCH   5   7
HETATM    7  C   UNL     1      -8.118  16.593  67.517  1.00  0.00    -0.168 A  
HETATM    8  C   UNL     1      -9.424  16.376  66.990  1.00  0.00    -0.230 A  
HETATM    9  C   UNL     1      -9.919  15.068  66.738  1.00  0.00    -0.254 A  
HETATM   10  I   UNL     1     -10.571  18.130  66.498  1.00  0.00     0.037 I  
HETATM   11  C   UNL     1      -9.103  13.963  67.095  1.00  0.00    -0.239 A  
HETATM   12  O   UNL     1      -6.630  12.144  67.040  1.00  0.00    -0.147 OA 
HETATM   13  O   UNL     1      -6.491  12.982  69.137  1.00  0.00    -0.098 OA 
HETATM   14  I   UNL     1      -5.134  15.786  67.842  1.00  0.00    -0.071 I  
HETATM   15  C   UNL     1      -7.776  14.164  67.540  1.00  0.00    -0.201 A  
HETATM   16  I   UNL     1      -9.893  11.953  67.097  1.00  0.00    -0.225 I  
HETATM   17  C   UNL     1      -7.273  15.472  67.668  1.00  0.00    -0.179 A  
HETATM   18  C   UNL     1      -6.924  13.042  68.002  1.00  0.00    -0.112 C  
BRANCH   9  19
HETATM   19  C   UNL     1     -11.233  14.821  66.063  1.00  0.00    -0.341 C  
HETATM   20  H   UNL     1     -13.144  14.635  66.440  1.00  0.00     0.000 HD 
HETATM   21  O   UNL     1     -12.311  14.791  66.868  1.00  0.00    -0.141 OA 
BRANCH  19  22
HETATM   22  N   UNL     1     -11.333  14.595  64.798  1.00  0.00    -0.447 NA 
HETATM   23  H   UNL     1     -10.943  15.231  64.103  1.00  0.00     0.000 HD 
BRANCH  22  24
HETATM   24  C   UNL     1     -12.047  13.358  64.414  1.00  0.00    -0.416 C  
BRANCH  24  25
HETATM   25  C   UNL     1     -11.097  12.467  63.604  1.00  0.00    -0.467 C  
HETATM   26  O   UNL     1     -11.811  11.369  63.040  1.00  0.00    -0.903 OA 
HETATM   27  H   UNL     1     -11.223  10.818  62.538  1.00  0.00     0.000 HD 
ENDBRANCH  24  25
ENDBRANCH  22  24
ENDBRANCH  19  22
ENDBRANCH   9  19
ENDBRANCH   5   7
ENDBRANCH   2   5
TORSDOF 6
ENDMDL
MODEL      125
REMARK 921   NORMALIZED FREE ENERGY PREDICTED BY IDOCK:   -3.16 KCAL/MOL
REMARK 922        TOTAL FREE ENERGY PREDICTED BY IDOCK:   -4.79 KCAL/MOL
REMARK 923 INTER-LIGAND FREE ENERGY PREDICTED BY IDOCK:   -4.95 KCAL/MOL
REMARK 924 INTRA-LIGAND FREE ENERGY PREDICTED BY IDOCK:    0.16 KCAL/MOL
REMARK 927      BINDING AFFINITY PREDICTED BY RF-SCORE:    0.00 PKD
ROOT
HETATM    1  C   UNL     1      -5.925   8.566  65.122  1.00  0.00    -0.048 C  
HETATM    2  C   UNL     1      -7.152   8.745  65.960  1.00  0.00    -0.084 C  
HETATM    3  H   UNL     1      -9.087   8.698  65.826  1.00  0.00     0.000 HD 
HETATM    4  O   UNL     1      -8.308   8.584  65.294  1.00  0.00    -0.143 OA 
ENDROOT
BRANCH   2   5
HETATM    5  N   UNL     1      -7.083   9.018  67.223  1.00  0.00    -0.079 NA 
HETATM    6  H   UNL     1      -6.178   9.209  67.653  1.00  0.00     0.000 HD 
BRANCH   5   7
HETATM    7  C   UNL     1      -8.260   9.053  68.013  1.00  0.00    -0.110 A  
HETATM    8  C   UNL     1      -9.042  10.242  68.079  1.00  0.00    -0.132 A  
HETATM    9  C   UNL     1     -10.210  10.322  68.885  1.00  0.00    -0.220 A  
HETATM   10  I   UNL     1      -8.429  11.875  66.818  1.00  0.00    -0.022 I  
HETATM   11  C   UNL     1     -10.545   9.203  69.692  1.00  0.00    -0.228 A  
HETATM   12  O   UNL     1     -11.320   6.296  70.308  1.00  0.00    -0.357 OA 
HETATM   13  O   UNL     1      -9.245   6.379  71.205  1.00  0.00    -0.155 OA 
HETATM   14  I   UNL     1      -7.975   5.959  68.107  1.00  0.00    -0.109 I  
HETATM   15  C   UNL     1      -9.826   7.991  69.573  1.00  0.00    -0.181 A  
HETATM   16  I   UNL     1     -12.070   9.346  71.213  1.00  0.00    -0.455 I  
HETATM   17  C   UNL     1      -8.744   7.906  68.677  1.00  0.00    -0.128 A  
HETATM   18  C   UNL     1     -10.091   6.831  70.457  1.00  0.00    -0.183 C  
BRANCH   9  19
HETATM   19  C   UNL     1     -11.120  11.512  68.868  1.00  0.00    -0.232 C  
HETATM   20  H   UNL     1     -12.878  12.093  68.235  1.00  0.00     0.000 HD 
HETATM   21  O   UNL     1     -12.301  11.338  68.247  1.00  0.00    -0.542 OA 
BRANCH  19  22
HETATM   22  N   UNL     1     -10.782  12.653  69.364  1.00  0.00    -0.432 NA 
HETATM   23  H   UNL     1      -9.924  12.775  69.902  1.00  0.00     0.000 HD 
BRANCH  22  24
HETATM   24  C   UNL     1     -11.711  13.774  69.106  1.00  0.00    -0.334 C  
BRANCH  24  25
HETATM   25  C   UNL     1     -11.412  14.905  70.096  1.00  0.00    -0.279 C  
HETATM   26  O   UNL     1     -10.004  15.038  70.282  1.00  0.00    -0.498 OA 
HETATM   27  H   UNL     1      -9.819  15.739  70.895  1.00  0.00     0.000 HD 
ENDBRANCH  24  25
ENDBRANCH  22  24
ENDBRANCH  19  22
ENDBRANCH   9  19
ENDBRANCH   5   7
ENDBRANCH   2   5
TORSDOF 6
ENDMDL
MODEL      126
REMARK 921   NORMALIZED FREE ENERGY PREDICTED BY IDOCK:   -3.15 KCAL/MOL
REMARK 922        TOTAL FREE ENERGY PREDICTED BY IDOCK:   -4.77 KCAL/MOL
REMARK 923 INTER-LIGAND FREE ENERGY PREDICTED BY IDOCK:   -4.79 KCAL/MOL
REMARK 924 INTRA-LIGAND FREE ENERGY PREDICTED BY IDOCK:    0.02 KCAL/MOL
REMARK 927      BINDING AFFINITY PREDICTED BY RF-SCORE:    0.00 PKD
ROOT
HETATM    1  C   UNL     1      -7.728  17.291  68.434  1.00  0.00    -0.247 C  
HETATM    2  C   UNL     1      -7.809  15.796  68.473  1.00  0.00    -0.139 C  
HETATM    3  H   UNL     1      -7.885  14.324  69.734  1.00  0.00     0.000 HD 
HETATM    4  O   UNL     1      -7.834  15.273  69.710  1.00  0.00    -0.203 OA 
ENDROOT
BRANCH   2   5
HETATM    5  N   UNL     1      -7.864  15.087  67.392  1.00  0.00    -0.186 NA 
HETATM    6  H   UNL     1      -7.563  15.489  66.504  1.00  0.00     0.000 HD 
BRANCH   5   7
HETATM    7  C   UNL     1      -8.340  13.753  67.435  1.00  0.00    -0.193 A  
HETATM    8  C   UNL     1      -7.423  12.669  67.561  1.00  0.00    -0.155 A  
HETATM    9  C   UNL     1      -7.863  11.318  67.576  1.00  0.00    -0.123 A  
HETATM   10  I   UNL     1      -5.351  13.183  67.832  1.00  0.00    -0.025 I  
HETATM   11  C   UNL     1      -9.246  11.061  67.386  1.00  0.00    -0.151 A  
HETATM   12  O   UNL     1     -12.251  11.182  68.005  1.00  0.00    -0.584 OA 
HETATM   13  O   UNL     1     -12.166  12.386  66.092  1.00  0.00    -0.635 OA 
HETATM   14  I   UNL     1     -11.131  15.039  67.900  1.00  0.00    -0.343 I  
HETATM   15  C   UNL     1     -10.175  12.127  67.344  1.00  0.00    -0.211 A  
HETATM   16  I   UNL     1      -9.966   9.058  67.029  1.00  0.00    -0.350 I  
HETATM   17  C   UNL     1      -9.719  13.455  67.449  1.00  0.00    -0.221 A  
HETATM   18  C   UNL     1     -11.613  11.905  67.063  1.00  0.00    -0.291 C  
BRANCH   9  19
HETATM   19  C   UNL     1      -6.935  10.172  67.840  1.00  0.00    -0.083 C  
HETATM   20  H   UNL     1      -5.878   9.349  69.266  1.00  0.00     0.000 HD 
HETATM   21  O   UNL     1      -6.466  10.075  69.098  1.00  0.00    -0.047 OA 
BRANCH  19  22
HETATM   22  N   UNL     1      -6.556   9.356  66.917  1.00  0.00    -0.067 NA 
HETATM   23  H   UNL     1      -6.666   8.347  67.011  1.00  0.00     0.000 HD 
BRANCH  22  24
HETATM   24  C   UNL     1      -5.954   9.970  65.714  1.00  0.00    -0.077 C  
BRANCH  24  25
HETATM   25  C   UNL     1      -6.829   9.645  64.498  1.00  0.00    -0.107 C  
HETATM   26  O   UNL     1      -7.652  10.762  64.169  1.00  0.00    -0.353 OA 
HETATM   27  H   UNL     1      -8.194  10.561  63.416  1.00  0.00     0.000 HD 
ENDBRANCH  24  25
ENDBRANCH  22  24
ENDBRANCH  19  22
ENDBRANCH   9  19
ENDBRANCH   5   7
ENDBRANCH   2   5
TORSDOF 6
ENDMDL
MODEL      127
REMARK 921   NORMALIZED FREE ENERGY PREDICTED BY IDOCK:   -3.13 KCAL/MOL
REMARK 922        TOTAL FREE ENERGY PREDICTED BY IDOCK:   -4.75 KCAL/MOL
REMARK 923 INTER-LIGAND FREE ENERGY PREDICTED BY IDOCK:   -4.74 KCAL/MOL
REMARK 924 INTRA-LIGAND FREE ENERGY PREDICTED BY IDOCK:   -0.01 KCAL/MOL
REMARK 927      BINDING AFFINITY PREDICTED BY RF-SCORE:    0.00 PKD
ROOT
HETATM    1  C   UNL     1     -10.069  15.722  67.762  1.00  0.00    -0.238 C  
HETATM    2  C   UNL     1     -11.362  15.625  68.510  1.00  0.00    -0.360 C  
HETATM    3  H   UNL     1     -12.359  16.513  69.917  1.00  0.00     0.000 HD 
HETATM    4  O   UNL     1     -11.538  16.575  69.443  1.00  0.00    -0.141 OA 
ENDROOT
BRANCH   2   5
HETATM    5  N   UNL     1     -12.232  14.701  68.253  1.00  0.00    -0.604 NA 
HETATM    6  H   UNL     1     -13.218  14.944  68.158  1.00  0.00     0.000 HD 
BRANCH   5   7
HETATM    7  C   UNL     1     -11.821  13.353  68.103  1.00  0.00    -0.361 A  
HETATM    8  C   UNL     1     -11.840  12.470  69.221  1.00  0.00    -0.304 A  
HETATM    9  C   UNL     1     -11.404  11.122  69.114  1.00  0.00    -0.340 A  
HETATM   10  I   UNL     1     -12.657  13.249  71.053  1.00  0.00    -0.080 I  
HETATM   11  C   UNL     1     -10.874  10.686  67.871  1.00  0.00    -0.277 A  
HETATM   12  O   UNL     1     -10.871  10.060  64.865  1.00  0.00     0.577 OA 
HETATM   13  O   UNL     1      -9.407  11.782  64.938  1.00  0.00    -0.104 OA 
HETATM   14  I   UNL     1     -12.028  13.903  65.051  1.00  0.00    -0.500 I  
HETATM   15  C   UNL     1     -10.927  11.525  66.734  1.00  0.00    -0.347 A  
HETATM   16  I   UNL     1      -9.856   8.790  67.701  1.00  0.00    -0.286 I  
HETATM   17  C   UNL     1     -11.472  12.818  66.845  1.00  0.00    -0.340 A  
HETATM   18  C   UNL     1     -10.307  11.138  65.444  1.00  0.00    -0.271 C  
BRANCH   9  19
HETATM   19  C   UNL     1     -11.540  10.141  70.238  1.00  0.00    -0.302 C  
HETATM   20  H   UNL     1     -12.778   8.826  70.989  1.00  0.00     0.000 HD 
HETATM   21  O   UNL     1     -12.692   9.448  70.276  1.00  0.00     0.254 OA 
BRANCH  19  22
HETATM   22  N   UNL     1     -10.639  10.000  71.150  1.00  0.00    -0.216 NA 
HETATM   23  H   UNL     1     -10.417  10.745  71.809  1.00  0.00     0.000 HD 
BRANCH  22  24
HETATM   24  C   UNL     1      -9.949   8.693  71.183  1.00  0.00    -0.225 C  
BRANCH  24  25
HETATM   25  C   UNL     1      -8.741   8.793  72.123  1.00  0.00    -0.055 C  
HETATM   26  O   UNL     1      -9.099   8.359  73.434  1.00  0.00    -0.216 OA 
HETATM   27  H   UNL     1      -8.351   8.420  74.016  1.00  0.00     0.000 HD 
ENDBRANCH  24  25
ENDBRANCH  22  24
ENDBRANCH  19  22
ENDBRANCH   9  19
ENDBRANCH   5   7
ENDBRANCH   2   5
TORSDOF 6
ENDMDL
MODEL      128
REMARK 921   NORMALIZED FREE ENERGY PREDICTED BY IDOCK:   -3.10 KCAL/MOL
REMARK 922        TOTAL FREE ENERGY PREDICTED BY IDOCK:   -4.71 KCAL/MOL
REMARK 923 INTER-LIGAND FREE ENERGY PREDICTED BY IDOCK:   -4.38 KCAL/MOL
REMARK 924 INTRA-LIGAND FREE ENERGY PREDICTED BY IDOCK:   -0.32 KCAL/MOL
REMARK 927      BINDING AFFINITY PREDICTED BY RF-SCORE:    0.00 PKD
ROOT
HETATM    1  C   UNL     1      -9.570   3.292  63.807  1.00  0.00    -0.131 C  
HETATM    2  C   UNL     1      -9.989   4.158  64.954  1.00  0.00    -0.199 C  
HETATM    3  H   UNL     1     -11.584   4.859  65.807  1.00  0.00     0.000 HD 
HETATM    4  O   UNL     1     -11.318   4.309  65.080  1.00  0.00    -0.222 OA 
ENDROOT
BRANCH   2   5
HETATM    5  N   UNL     1      -9.127   4.697  65.754  1.00  0.00    -0.132 NA 
HETATM    6  H   UNL     1      -8.532   4.104  66.333  1.00  0.00     0.000 HD 
BRANCH   5   7
HETATM    7  C   UNL     1      -9.004   6.106  65.830  1.00  0.00    -0.121 A  
HETATM    8  C   UNL     1      -9.502   6.809  66.965  1.00  0.00    -0.146 A  
HETATM    9  C   UNL     1      -9.424   8.224  67.060  1.00  0.00    -0.226 A  
HETATM   10  I   UNL     1     -10.283   5.612  68.575  1.00  0.00    -0.234 I  
HETATM   11  C   UNL     1      -8.900   8.942  65.953  1.00  0.00    -0.179 A  
HETATM   12  O   UNL     1      -6.806   9.791  63.874  1.00  0.00    -0.109 OA 
HETATM   13  O   UNL     1      -8.326   8.767  62.548  1.00  0.00    -0.183 OA 
HETATM   14  I   UNL     1      -7.010   5.799  63.465  1.00  0.00    -0.049 I  
HETATM   15  C   UNL     1      -8.327   8.254  64.858  1.00  0.00    -0.145 A  
HETATM   16  I   UNL     1      -9.071  11.091  65.839  1.00  0.00    -0.205 I  
HETATM   17  C   UNL     1      -8.314   6.847  64.847  1.00  0.00    -0.017 A  
HETATM   18  C   UNL     1      -7.848   8.965  63.649  1.00  0.00    -0.141 C  
BRANCH   9  19
HETATM   19  C   UNL     1      -9.819   8.971  68.297  1.00  0.00    -0.166 C  
HETATM   20  H   UNL     1      -9.100   9.610  70.001  1.00  0.00     0.000 HD 
HETATM   21  O   UNL     1      -8.850   9.136  69.216  1.00  0.00    -0.137 OA 
BRANCH  19  22
HETATM   22  N   UNL     1     -11.021   9.386  68.506  1.00  0.00    -0.454 NA 
HETATM   23  H   UNL     1     -11.808   9.067  67.940  1.00  0.00     0.000 HD 
BRANCH  22  24
HETATM   24  C   UNL     1     -11.193  10.351  69.613  1.00  0.00    -0.277 C  
BRANCH  24  25
HETATM   25  C   UNL     1     -11.504  11.732  69.024  1.00  0.00    -0.297 C  
HETATM   26  O   UNL     1     -12.067  11.598  67.721  1.00  0.00    -0.613 OA 
HETATM   27  H   UNL     1     -12.260  12.453  67.356  1.00  0.00     0.000 HD 
ENDBRANCH  24  25
ENDBRANCH  22  24
ENDBRANCH  19  22
ENDBRANCH   9  19
ENDBRANCH   5   7
ENDBRANCH   2   5
TORSDOF 6
ENDMDL
MODEL      129
REMARK 921   NORMALIZED FREE ENERGY PREDICTED BY IDOCK:   -3.10 KCAL/MOL
REMARK 922        TOTAL FREE ENERGY PREDICTED BY IDOCK:   -4.70 KCAL/MOL
REMARK 923 INTER-LIGAND FREE ENERGY PREDICTED BY IDOCK:   -4.76 KCAL/MOL
REMARK 924 INTRA-LIGAND FREE ENERGY PREDICTED BY IDOCK:    0.06 KCAL/MOL
REMARK 927      BINDING AFFINITY PREDICTED BY RF-SCORE:    0.00 PKD
ROOT
HETATM    1  C   UNL     1     -10.141  18.542  66.772  1.00  0.00    -0.406 C  
HETATM    2  C   UNL     1     -10.060  17.064  66.998  1.00  0.00    -0.295 C  
HETATM    3  H   UNL     1     -10.821  15.667  68.108  1.00  0.00     0.000 HD 
HETATM    4  O   UNL     1     -10.872  16.604  67.964  1.00  0.00    -0.343 OA 
ENDROOT
BRANCH   2   5
HETATM    5  N   UNL     1      -9.276  16.308  66.299  1.00  0.00    -0.302 NA 
HETATM    6  H   UNL     1      -8.535  16.727  65.737  1.00  0.00     0.000 HD 
BRANCH   5   7
HETATM    7  C   UNL     1      -9.441  14.901  66.311  1.00  0.00    -0.309 A  
HETATM    8  C   UNL     1      -8.684  14.098  67.212  1.00  0.00    -0.218 A  
HETATM    9  C   UNL     1      -8.801  12.682  67.229  1.00  0.00    -0.196 A  
HETATM   10  I   UNL     1      -7.430  15.142  68.616  1.00  0.00    -0.160 I  
HETATM   11  C   UNL     1      -9.646  12.068  66.268  1.00  0.00    -0.231 A  
HETATM   12  O   UNL     1     -12.272  11.444  64.805  1.00  0.00     0.141 OA 
HETATM   13  O   UNL     1     -11.131  12.525  63.179  1.00  0.00    -0.366 OA 
HETATM   14  I   UNL     1     -11.994  15.449  64.624  1.00  0.00     0.252 I  
HETATM   15  C   UNL     1     -10.465  12.856  65.425  1.00  0.00    -0.308 A  
HETATM   16  I   UNL     1      -9.618   9.931  65.967  1.00  0.00    -0.343 I  
HETATM   17  C   UNL     1     -10.412  14.259  65.513  1.00  0.00    -0.346 A  
HETATM   18  C   UNL     1     -11.295  12.255  64.353  1.00  0.00    -0.336 C  
BRANCH   9  19
HETATM   19  C   UNL     1      -8.117  11.830  68.254  1.00  0.00    -0.154 C  
HETATM   20  H   UNL     1      -8.485  10.718  69.821  1.00  0.00     0.000 HD 
HETATM   21  O   UNL     1      -8.918  11.258  69.171  1.00  0.00    -0.033 OA 
BRANCH  19  22
HETATM   22  N   UNL     1      -6.836  11.690  68.300  1.00  0.00    -0.064 NA 
HETATM   23  H   UNL     1      -6.235  11.972  67.526  1.00  0.00     0.000 HD 
BRANCH  22  24
HETATM   24  C   UNL     1      -6.291  11.098  69.540  1.00  0.00    -0.101 C  
BRANCH  24  25
HETATM   25  C   UNL     1      -5.337  12.104  70.194  1.00  0.00    -0.108 C  
HETATM   26  O   UNL     1      -5.956  12.706  71.329  1.00  0.00    -0.536 OA 
HETATM   27  H   UNL     1      -5.365  13.329  71.734  1.00  0.00     0.000 HD 
ENDBRANCH  24  25
ENDBRANCH  22  24
ENDBRANCH  19  22
ENDBRANCH   9  19
ENDBRANCH   5   7
ENDBRANCH   2   5
TORSDOF 6
ENDMDL
MODEL      130
REMARK 921   NORMALIZED FREE ENERGY PREDICTED BY IDOCK:   -3.08 KCAL/MOL
REMARK 922        TOTAL FREE ENERGY PREDICTED BY IDOCK:   -4.69 KCAL/MOL
REMARK 923 INTER-LIGAND FREE ENERGY PREDICTED BY IDOCK:   -5.19 KCAL/MOL
REMARK 924 INTRA-LIGAND FREE ENERGY PREDICTED BY IDOCK:    0.50 KCAL/MOL
REMARK 927      BINDING AFFINITY PREDICTED BY RF-SCORE:    0.00 PKD
ROOT
HETATM    1  C   UNL     1     -10.695   7.422  68.741  1.00  0.00    -0.145 C  
HETATM    2  C   UNL     1     -10.290   7.707  70.154  1.00  0.00    -0.217 C  
HETATM    3  H   UNL     1     -10.399   6.944  71.935  1.00  0.00     0.000 HD 
HETATM    4  O   UNL     1     -10.655   6.763  71.038  1.00  0.00    -0.217 OA 
ENDROOT
BRANCH   2   5
HETATM    5  N   UNL     1      -9.631   8.774  70.474  1.00  0.00    -0.180 NA 
HETATM    6  H   UNL     1      -9.090   8.796  71.338  1.00  0.00     0.000 HD 
BRANCH   5   7
HETATM    7  C   UNL     1      -9.657   9.911  69.630  1.00  0.00    -0.227 A  
HETATM    8  C   UNL     1      -8.659  10.082  68.627  1.00  0.00    -0.123 A  
HETATM    9  C   UNL     1      -8.637  11.226  67.784  1.00  0.00    -0.126 A  
HETATM   10  I   UNL     1      -7.249   8.474  68.383  1.00  0.00    -0.088 I  
HETATM   11  C   UNL     1      -9.598  12.245  68.013  1.00  0.00    -0.206 A  
HETATM   12  O   UNL     1     -12.397  13.487  68.238  1.00  0.00    -0.215 OA 
HETATM   13  O   UNL     1     -11.719  13.582  70.394  1.00  0.00    -0.247 OA 
HETATM   14  I   UNL     1     -12.540  10.326  70.714  1.00  0.00    -0.365 I  
HETATM   15  C   UNL     1     -10.643  12.051  68.946  1.00  0.00    -0.192 A  
HETATM   16  I   UNL     1      -9.431  14.168  67.045  1.00  0.00    -0.289 I  
HETATM   17  C   UNL     1     -10.706  10.855  69.685  1.00  0.00    -0.180 A  
HETATM   18  C   UNL     1     -11.613  13.123  69.273  1.00  0.00    -0.314 C  
BRANCH   9  19
HETATM   19  C   UNL     1      -7.681  11.363  66.640  1.00  0.00    -0.129 C  
HETATM   20  H   UNL     1      -5.971  12.181  66.155  1.00  0.00     0.000 HD 
HETATM   21  O   UNL     1      -6.577  12.094  66.881  1.00  0.00    -0.119 OA 
BRANCH  19  22
HETATM   22  N   UNL     1      -7.915  10.865  65.474  1.00  0.00    -0.346 NA 
HETATM   23  H   UNL     1      -7.183  10.419  64.921  1.00  0.00     0.000 HD 
BRANCH  22  24
HETATM   24  C   UNL     1      -9.307  10.976  64.987  1.00  0.00    -0.221 C  
BRANCH  24  25
HETATM   25  C   UNL     1      -9.376  10.437  63.553  1.00  0.00    -0.297 C  
HETATM   26  O   UNL     1     -10.433  11.074  62.838  1.00  0.00    -0.746 OA 
HETATM   27  H   UNL     1     -10.476  10.740  61.950  1.00  0.00     0.000 HD 
ENDBRANCH  24  25
ENDBRANCH  22  24
ENDBRANCH  19  22
ENDBRANCH   9  19
ENDBRANCH   5   7
ENDBRANCH   2   5
TORSDOF 6
ENDMDL
MODEL      131
REMARK 921   NORMALIZED FREE ENERGY PREDICTED BY IDOCK:   -3.07 KCAL/MOL
REMARK 922        TOTAL FREE ENERGY PREDICTED BY IDOCK:   -4.66 KCAL/MOL
REMARK 923 INTER-LIGAND FREE ENERGY PREDICTED BY IDOCK:   -4.15 KCAL/MOL
REMARK 924 INTRA-LIGAND FREE ENERGY PREDICTED BY IDOCK:   -0.51 KCAL/MOL
REMARK 927      BINDING AFFINITY PREDICTED BY RF-SCORE:    0.00 PKD
ROOT
HETATM    1  C   UNL     1     -13.574  14.697  72.379  1.00  0.00    -0.555 C  
HETATM    2  C   UNL     1     -12.360  14.701  71.503  1.00  0.00    -0.351 C  
HETATM    3  H   UNL     1     -10.441  14.971  71.590  1.00  0.00     0.000 HD 
HETATM    4  O   UNL     1     -11.211  14.968  72.146  1.00  0.00    -0.315 OA 
ENDROOT
BRANCH   2   5
HETATM    5  N   UNL     1     -12.432  14.450  70.235  1.00  0.00    -0.349 NA 
HETATM    6  H   UNL     1     -13.302  14.622  69.732  1.00  0.00     0.000 HD 
BRANCH   5   7
HETATM    7  C   UNL     1     -11.307  13.938  69.543  1.00  0.00    -0.237 A  
HETATM    8  C   UNL     1     -11.099  12.531  69.454  1.00  0.00    -0.079 A  
HETATM    9  C   UNL     1      -9.966  11.984  68.795  1.00  0.00    -0.086 A  
HETATM   10  I   UNL     1     -12.641  11.274  70.277  1.00  0.00    -0.046 I  
HETATM   11  C   UNL     1      -8.991  12.881  68.283  1.00  0.00    -0.175 A  
HETATM   12  O   UNL     1      -7.883  15.149  66.536  1.00  0.00     0.061 OA 
HETATM   13  O   UNL     1      -7.730  16.086  68.589  1.00  0.00    -0.156 OA 
HETATM   14  I   UNL     1     -11.019  16.819  68.412  1.00  0.00    -0.027 I  
HETATM   15  C   UNL     1      -9.225  14.276  68.290  1.00  0.00    -0.197 A  
HETATM   16  I   UNL     1      -7.074  12.165  67.596  1.00  0.00    -0.161 I  
HETATM   17  C   UNL     1     -10.414  14.782  68.847  1.00  0.00    -0.249 A  
HETATM   18  C   UNL     1      -8.197  15.246  67.843  1.00  0.00    -0.145 C  
BRANCH   9  19
HETATM   19  C   UNL     1      -9.796  10.513  68.574  1.00  0.00    -0.168 C  
HETATM   20  H   UNL     1     -10.085   9.116  67.235  1.00  0.00     0.000 HD 
HETATM   21  O   UNL     1     -10.193  10.049  67.375  1.00  0.00    -0.192 OA 
BRANCH  19  22
HETATM   22  N   UNL     1      -9.350   9.719  69.488  1.00  0.00    -0.199 NA 
HETATM   23  H   UNL     1      -8.612  10.000  70.133  1.00  0.00     0.000 HD 
BRANCH  22  24
HETATM   24  C   UNL     1      -9.972   8.379  69.544  1.00  0.00    -0.190 C  
BRANCH  24  25
HETATM   25  C   UNL     1     -10.143   7.971  71.012  1.00  0.00    -0.186 C  
HETATM   26  O   UNL     1      -8.951   8.251  71.743  1.00  0.00    -0.146 OA 
HETATM   27  H   UNL     1      -9.056   7.998  72.653  1.00  0.00     0.000 HD 
ENDBRANCH  24  25
ENDBRANCH  22  24
ENDBRANCH  19  22
ENDBRANCH   9  19
ENDBRANCH   5   7
ENDBRANCH   2   5
TORSDOF 6
ENDMDL
MODEL      132
REMARK 921   NORMALIZED FREE ENERGY PREDICTED BY IDOCK:   -3.06 KCAL/MOL
REMARK 922        TOTAL FREE ENERGY PREDICTED BY IDOCK:   -4.65 KCAL/MOL
REMARK 923 INTER-LIGAND FREE ENERGY PREDICTED BY IDOCK:   -4.28 KCAL/MOL
REMARK 924 INTRA-LIGAND FREE ENERGY PREDICTED BY IDOCK:   -0.37 KCAL/MOL
REMARK 927      BINDING AFFINITY PREDICTED BY RF-SCORE:    0.00 PKD
ROOT
HETATM    1  C   UNL     1     -12.944   9.659  72.187  1.00  0.00    -0.493 C  
HETATM    2  C   UNL     1     -11.735   9.257  71.400  1.00  0.00    -0.361 C  
HETATM    3  H   UNL     1      -9.854   8.844  71.635  1.00  0.00     0.000 HD 
HETATM    4  O   UNL     1     -10.621   9.099  72.134  1.00  0.00    -0.276 OA 
ENDROOT
BRANCH   2   5
HETATM    5  N   UNL     1     -11.785   9.068  70.121  1.00  0.00    -0.463 NA 
HETATM    6  H   UNL     1     -12.685   8.934  69.662  1.00  0.00     0.000 HD 
BRANCH   5   7
HETATM    7  C   UNL     1     -10.593   9.046  69.354  1.00  0.00    -0.221 A  
HETATM    8  C   UNL     1      -9.923   7.814  69.107  1.00  0.00    -0.182 A  
HETATM    9  C   UNL     1      -8.710   7.759  68.370  1.00  0.00    -0.127 A  
HETATM   10  I   UNL     1     -10.894   6.028  69.814  1.00  0.00    -0.374 I  
HETATM   11  C   UNL     1      -8.130   8.982  67.942  1.00  0.00    -0.106 A  
HETATM   12  O   UNL     1      -7.962  11.653  66.437  1.00  0.00    -0.112 OA 
HETATM   13  O   UNL     1      -8.023  12.379  68.578  1.00  0.00    -0.149 OA 
HETATM   14  I   UNL     1     -11.369  11.946  68.546  1.00  0.00    -0.431 I  
HETATM   15  C   UNL     1      -8.825  10.203  68.108  1.00  0.00    -0.126 A  
HETATM   16  I   UNL     1      -6.125   9.043  67.144  1.00  0.00    -0.059 I  
HETATM   17  C   UNL     1     -10.082  10.210  68.740  1.00  0.00    -0.187 A  
HETATM   18  C   UNL     1      -8.216  11.507  67.753  1.00  0.00    -0.135 C  
BRANCH   9  19
HETATM   19  C   UNL     1      -8.060   6.466  67.984  1.00  0.00    -0.116 C  
HETATM   20  H   UNL     1      -8.055   5.109  66.574  1.00  0.00     0.000 HD 
HETATM   21  O   UNL     1      -8.467   5.929  66.819  1.00  0.00    -0.109 OA 
BRANCH  19  22
HETATM   22  N   UNL     1      -7.204   5.865  68.738  1.00  0.00    -0.080 NA 
HETATM   23  H   UNL     1      -6.642   5.084  68.400  1.00  0.00     0.000 HD 
BRANCH  22  24
HETATM   24  C   UNL     1      -7.087   6.374  70.121  1.00  0.00    -0.074 C  
BRANCH  24  25
HETATM   25  C   UNL     1      -6.974   5.183  71.081  1.00  0.00    -0.051 C  
HETATM   26  O   UNL     1      -7.475   4.001  70.461  1.00  0.00    -0.044 OA 
HETATM   27  H   UNL     1      -7.405   3.263  71.056  1.00  0.00     0.000 HD 
ENDBRANCH  24  25
ENDBRANCH  22  24
ENDBRANCH  19  22
ENDBRANCH   9  19
ENDBRANCH   5   7
ENDBRANCH   2   5
TORSDOF 6
ENDMDL
MODEL      133
REMARK 921   NORMALIZED FREE ENERGY PREDICTED BY IDOCK:   -3.03 KCAL/MOL
REMARK 922        TOTAL FREE ENERGY PREDICTED BY IDOCK:   -4.61 KCAL/MOL
REMARK 923 INTER-LIGAND FREE ENERGY PREDICTED BY IDOCK:   -4.03 KCAL/MOL
REMARK 924 INTRA-LIGAND FREE ENERGY PREDICTED BY IDOCK:   -0.57 KCAL/MOL
REMARK 927      BINDING AFFINITY PREDICTED BY RF-SCORE:    0.00 PKD
ROOT
HETATM    1  C   UNL     1     -10.431   4.694  65.916  1.00  0.00    -0.305 C  
HETATM    2  C   UNL     1      -9.126   4.201  66.460  1.00  0.00    -0.134 C  
HETATM    3  H   UNL     1      -8.042   2.595  66.550  1.00  0.00     0.000 HD 
HETATM    4  O   UNL     1      -8.870   2.907  66.204  1.00  0.00    -0.131 OA 
ENDROOT
BRANCH   2   5
HETATM    5  N   UNL     1      -8.320   4.978  67.110  1.00  0.00    -0.107 NA 
HETATM    6  H   UNL     1      -7.315   4.920  66.944  1.00  0.00     0.000 HD 
BRANCH   5   7
HETATM    7  C   UNL     1      -8.826   5.908  68.051  1.00  0.00    -0.109 A  
HETATM    8  C   UNL     1      -9.179   5.480  69.363  1.00  0.00    -0.117 A  
HETATM    9  C   UNL     1      -9.719   6.380  70.321  1.00  0.00    -0.186 A  
HETATM   10  I   UNL     1      -8.756   3.428  69.856  1.00  0.00    -0.179 I  
HETATM   11  C   UNL     1      -9.973   7.716  69.917  1.00  0.00    -0.190 A  
HETATM   12  O   UNL     1      -9.306  10.526  68.874  1.00  0.00    -0.170 OA 
HETATM   13  O   UNL     1     -10.546   9.724  67.161  1.00  0.00    -0.252 OA 
HETATM   14  I   UNL     1      -7.818   8.073  66.061  1.00  0.00    -0.109 I  
HETATM   15  C   UNL     1      -9.551   8.174  68.647  1.00  0.00    -0.151 A  
HETATM   16  I   UNL     1     -11.118   9.056  71.163  1.00  0.00    -0.464 I  
HETATM   17  C   UNL     1      -8.912   7.287  67.761  1.00  0.00    -0.126 A  
HETATM   18  C   UNL     1      -9.874   9.536  68.157  1.00  0.00    -0.155 C  
BRANCH   9  19
HETATM   19  C   UNL     1      -9.971   5.984  71.744  1.00  0.00    -0.170 C  
HETATM   20  H   UNL     1      -9.111   5.930  73.500  1.00  0.00     0.000 HD 
HETATM   21  O   UNL     1      -8.951   6.181  72.598  1.00  0.00    -0.131 OA 
BRANCH  19  22
HETATM   22  N   UNL     1     -11.073   5.435  72.128  1.00  0.00    -0.207 NA 
HETATM   23  H   UNL     1     -11.869   5.324  71.500  1.00  0.00     0.000 HD 
BRANCH  22  24
HETATM   24  C   UNL     1     -11.115   4.976  73.533  1.00  0.00    -0.317 C  
BRANCH  24  25
HETATM   25  C   UNL     1     -10.798   3.476  73.576  1.00  0.00    -0.229 C  
HETATM   26  O   UNL     1      -9.430   3.271  73.920  1.00  0.00    -0.094 OA 
HETATM   27  H   UNL     1      -9.233   2.342  73.947  1.00  0.00     0.000 HD 
ENDBRANCH  24  25
ENDBRANCH  22  24
ENDBRANCH  19  22
ENDBRANCH   9  19
ENDBRANCH   5   7
ENDBRANCH   2   5
TORSDOF 6
ENDMDL
MODEL      134
REMARK 921   NORMALIZED FREE ENERGY PREDICTED BY IDOCK:   -3.01 KCAL/MOL
REMARK 922        TOTAL FREE ENERGY PREDICTED BY IDOCK:   -4.59 KCAL/MOL
REMARK 923 INTER-LIGAND FREE ENERGY PREDICTED BY IDOCK:   -4.19 KCAL/MOL
REMARK 924 INTRA-LIGAND FREE ENERGY PREDICTED BY IDOCK:   -0.40 KCAL/MOL
REMARK 927      BINDING AFFINITY PREDICTED BY RF-SCORE:    0.00 PKD
ROOT
HETATM    1  C   UNL     1      -7.571   6.018  63.713  1.00  0.00    -0.087 C  
HETATM    2  C   UNL     1      -7.723   7.117  64.717  1.00  0.00    -0.115 C  
HETATM    3  H   UNL     1      -6.664   8.242  65.890  1.00  0.00     0.000 HD 
HETATM    4  O   UNL     1      -6.567   7.545  65.252  1.00  0.00    -0.044 OA 
ENDROOT
BRANCH   2   5
HETATM    5  N   UNL     1      -8.880   7.611  65.020  1.00  0.00    -0.364 NA 
HETATM    6  H   UNL     1      -9.552   7.820  64.282  1.00  0.00     0.000 HD 
BRANCH   5   7
HETATM    7  C   UNL     1      -9.219   7.861  66.373  1.00  0.00    -0.191 A  
HETATM    8  C   UNL     1      -9.185   9.189  66.887  1.00  0.00    -0.148 A  
HETATM    9  C   UNL     1      -9.487   9.472  68.246  1.00  0.00    -0.143 A  
HETATM   10  I   UNL     1      -8.754  10.758  65.478  1.00  0.00    -0.102 I  
HETATM   11  C   UNL     1      -9.756   8.381  69.113  1.00  0.00    -0.171 A  
HETATM   12  O   UNL     1     -11.239   5.903  70.158  1.00  0.00    -0.353 OA 
HETATM   13  O   UNL     1      -9.265   4.986  69.543  1.00  0.00    -0.108 OA 
HETATM   14  I   UNL     1     -10.358   4.969  66.351  1.00  0.00    -0.165 I  
HETATM   15  C   UNL     1      -9.876   7.069  68.600  1.00  0.00    -0.148 A  
HETATM   16  I   UNL     1      -9.866   8.662  71.251  1.00  0.00    -0.383 I  
HETATM   17  C   UNL     1      -9.685   6.836  67.225  1.00  0.00    -0.140 A  
HETATM   18  C   UNL     1     -10.071   5.895  69.485  1.00  0.00    -0.203 C  
BRANCH   9  19
HETATM   19  C   UNL     1      -9.587  10.870  68.774  1.00  0.00    -0.189 C  
HETATM   20  H   UNL     1     -10.882  12.300  69.103  1.00  0.00     0.000 HD 
HETATM   21  O   UNL     1     -10.819  11.413  68.768  1.00  0.00    -0.187 OA 
BRANCH  19  22
HETATM   22  N   UNL     1      -8.558  11.543  69.161  1.00  0.00    -0.367 NA 
HETATM   23  H   UNL     1      -8.621  12.531  69.409  1.00  0.00     0.000 HD 
BRANCH  22  24
HETATM   24  C   UNL     1      -7.282  10.800  69.224  1.00  0.00    -0.122 C  
BRANCH  24  25
HETATM   25  C   UNL     1      -6.280  11.601  70.063  1.00  0.00    -0.140 C  
HETATM   26  O   UNL     1      -6.744  12.938  70.241  1.00  0.00    -0.325 OA 
HETATM   27  H   UNL     1      -6.124  13.435  70.761  1.00  0.00     0.000 HD 
ENDBRANCH  24  25
ENDBRANCH  22  24
ENDBRANCH  19  22
ENDBRANCH   9  19
ENDBRANCH   5   7
ENDBRANCH   2   5
TORSDOF 6
ENDMDL
MODEL      135
REMARK 921   NORMALIZED FREE ENERGY PREDICTED BY IDOCK:   -3.00 KCAL/MOL
REMARK 922        TOTAL FREE ENERGY PREDICTED BY IDOCK:   -4.57 KCAL/MOL
REMARK 923 INTER-LIGAND FREE ENERGY PREDICTED BY IDOCK:   -4.70 KCAL/MOL
REMARK 924 INTRA-LIGAND FREE ENERGY PREDICTED BY IDOCK:    0.13 KCAL/MOL
REMARK 927      BINDING AFFINITY PREDICTED BY RF-SCORE:    0.00 PKD
ROOT
HETATM    1  C   UNL     1     -10.303   8.685  72.119  1.00  0.00    -0.403 C  
HETATM    2  C   UNL     1     -10.150   8.693  70.630  1.00  0.00    -0.198 C  
HETATM    3  H   UNL     1     -10.799   7.782  69.045  1.00  0.00     0.000 HD 
HETATM    4  O   UNL     1     -10.896   7.777  69.990  1.00  0.00    -0.247 OA 
ENDROOT
BRANCH   2   5
HETATM    5  N   UNL     1      -9.369   9.530  70.027  1.00  0.00    -0.218 NA 
HETATM    6  H   UNL     1      -8.617   9.986  70.544  1.00  0.00     0.000 HD 
BRANCH   5   7
HETATM    7  C   UNL     1      -9.553   9.818  68.652  1.00  0.00    -0.151 A  
HETATM    8  C   UNL     1      -8.849   9.073  67.663  1.00  0.00    -0.124 A  
HETATM    9  C   UNL     1      -8.986   9.356  66.277  1.00  0.00    -0.189 A  
HETATM   10  I   UNL     1      -7.649   7.430  68.365  1.00  0.00    -0.120 I  
HETATM   11  C   UNL     1      -9.793  10.459  65.895  1.00  0.00    -0.235 A  
HETATM   12  O   UNL     1     -12.356  12.131  65.647  1.00  0.00    -0.560 OA 
HETATM   13  O   UNL     1     -11.126  13.446  67.016  1.00  0.00    -0.282 OA 
HETATM   14  I   UNL     1     -12.017  11.462  69.595  1.00  0.00    -0.371 I  
HETATM   15  C   UNL     1     -10.562  11.154  66.858  1.00  0.00    -0.304 A  
HETATM   16  I   UNL     1      -9.779  11.197  63.867  1.00  0.00    -0.370 I  
HETATM   17  C   UNL     1     -10.494  10.774  68.212  1.00  0.00    -0.181 A  
HETATM   18  C   UNL     1     -11.348  12.362  66.512  1.00  0.00    -0.340 C  
BRANCH   9  19
HETATM   19  C   UNL     1      -8.362   8.502  65.217  1.00  0.00    -0.159 C  
HETATM   20  H   UNL     1      -8.470   6.720  64.416  1.00  0.00     0.000 HD 
HETATM   21  O   UNL     1      -8.866   7.261  65.089  1.00  0.00     0.067 OA 
BRANCH  19  22
HETATM   22  N   UNL     1      -7.365   8.900  64.501  1.00  0.00    -0.099 NA 
HETATM   23  H   UNL     1      -7.478   9.180  63.527  1.00  0.00     0.000 HD 
BRANCH  22  24
HETATM   24  C   UNL     1      -6.050   8.925  65.176  1.00  0.00    -0.060 C  
BRANCH  24  25
HETATM   25  C   UNL     1      -5.717  10.372  65.560  1.00  0.00    -0.117 C  
HETATM   26  O   UNL     1      -5.667  10.507  66.979  1.00  0.00    -0.044 OA 
HETATM   27  H   UNL     1      -5.460  11.403  67.217  1.00  0.00     0.000 HD 
ENDBRANCH  24  25
ENDBRANCH  22  24
ENDBRANCH  19  22
ENDBRANCH   9  19
ENDBRANCH   5   7
ENDBRANCH   2   5
TORSDOF 6
ENDMDL
MODEL      136
REMARK 921   NORMALIZED FREE ENERGY PREDICTED BY IDOCK:   -3.00 KCAL/MOL
REMARK 922        TOTAL FREE ENERGY PREDICTED BY IDOCK:   -4.57 KCAL/MOL
REMARK 923 INTER-LIGAND FREE ENERGY PREDICTED BY IDOCK:   -4.40 KCAL/MOL
REMARK 924 INTRA-LIGAND FREE ENERGY PREDICTED BY IDOCK:   -0.17 KCAL/MOL
REMARK 927      BINDING AFFINITY PREDICTED BY RF-SCORE:    0.00 PKD
ROOT
HETATM    1  C   UNL     1     -10.270   8.391  66.685  1.00  0.00    -0.335 C  
HETATM    2  C   UNL     1     -10.252   8.361  68.181  1.00  0.00    -0.208 C  
HETATM    3  H   UNL     1     -10.068   7.119  69.660  1.00  0.00     0.000 HD 
HETATM    4  O   UNL     1     -10.079   7.138  68.710  1.00  0.00    -0.163 OA 
ENDROOT
BRANCH   2   5
HETATM    5  N   UNL     1     -10.378   9.438  68.888  1.00  0.00    -0.208 NA 
HETATM    6  H   UNL     1     -11.202   9.566  69.475  1.00  0.00     0.000 HD 
BRANCH   5   7
HETATM    7  C   UNL     1      -9.378  10.440  68.849  1.00  0.00    -0.186 A  
HETATM    8  C   UNL     1      -9.647  11.698  68.236  1.00  0.00    -0.198 A  
HETATM    9  C   UNL     1      -8.657  12.714  68.152  1.00  0.00    -0.188 A  
HETATM   10  I   UNL     1     -11.657  12.021  67.538  1.00  0.00    -0.216 I  
HETATM   11  C   UNL     1      -7.353  12.420  68.631  1.00  0.00    -0.102 A  
HETATM   12  O   UNL     1      -5.208  11.650  70.689  1.00  0.00    -0.103 OA 
HETATM   13  O   UNL     1      -5.170   9.835  69.340  1.00  0.00    -0.035 OA 
HETATM   14  I   UNL     1      -7.904   8.682  70.946  1.00  0.00    -0.185 I  
HETATM   15  C   UNL     1      -7.096  11.210  69.316  1.00  0.00    -0.123 A  
HETATM   16  I   UNL     1      -5.696  13.742  68.225  1.00  0.00    -0.131 I  
HETATM   17  C   UNL     1      -8.130  10.271  69.486  1.00  0.00    -0.162 A  
HETATM   18  C   UNL     1      -5.731  10.831  69.754  1.00  0.00    -0.053 C  
BRANCH   9  19
HETATM   19  C   UNL     1      -8.956  14.087  67.633  1.00  0.00    -0.194 C  
HETATM   20  H   UNL     1      -9.194  15.936  68.227  1.00  0.00     0.000 HD 
HETATM   21  O   UNL     1      -9.004  15.065  68.556  1.00  0.00    -0.172 OA 
BRANCH  19  22
HETATM   22  N   UNL     1      -9.207  14.322  66.391  1.00  0.00    -0.448 NA 
HETATM   23  H   UNL     1      -8.689  13.866  65.640  1.00  0.00     0.000 HD 
BRANCH  22  24
HETATM   24  C   UNL     1     -10.291  15.291  66.119  1.00  0.00    -0.302 C  
BRANCH  24  25
HETATM   25  C   UNL     1     -10.656  15.224  64.632  1.00  0.00    -0.121 C  
HETATM   26  O   UNL     1     -10.995  13.887  64.267  1.00  0.00    -0.566 OA 
HETATM   27  H   UNL     1     -11.222  13.846  63.346  1.00  0.00     0.000 HD 
ENDBRANCH  24  25
ENDBRANCH  22  24
ENDBRANCH  19  22
ENDBRANCH   9  19
ENDBRANCH   5   7
ENDBRANCH   2   5
TORSDOF 6
ENDMDL
MODEL      137
REMARK 921   NORMALIZED FREE ENERGY PREDICTED BY IDOCK:   -2.98 KCAL/MOL
REMARK 922        TOTAL FREE ENERGY PREDICTED BY IDOCK:   -4.54 KCAL/MOL
REMARK 923 INTER-LIGAND FREE ENERGY PREDICTED BY IDOCK:   -4.56 KCAL/MOL
REMARK 924 INTRA-LIGAND FREE ENERGY PREDICTED BY IDOCK:    0.01 KCAL/MOL
REMARK 927      BINDING AFFINITY PREDICTED BY RF-SCORE:    0.00 PKD
ROOT
HETATM    1  C   UNL     1      -6.021  16.841  66.990  1.00  0.00    -0.213 C  
HETATM    2  C   UNL     1      -6.497  15.538  67.554  1.00  0.00    -0.156 C  
HETATM    3  H   UNL     1      -6.427  14.487  69.183  1.00  0.00     0.000 HD 
HETATM    4  O   UNL     1      -6.126  15.314  68.826  1.00  0.00    -0.086 OA 
ENDROOT
BRANCH   2   5
HETATM    5  N   UNL     1      -7.217  14.716  66.861  1.00  0.00    -0.282 NA 
HETATM    6  H   UNL     1      -7.089  14.655  65.851  1.00  0.00     0.000 HD 
BRANCH   5   7
HETATM    7  C   UNL     1      -8.184  13.899  67.499  1.00  0.00    -0.188 A  
HETATM    8  C   UNL     1      -7.871  12.551  67.837  1.00  0.00    -0.144 A  
HETATM    9  C   UNL     1      -8.826  11.694  68.448  1.00  0.00    -0.161 A  
HETATM   10  I   UNL     1      -5.850  11.906  67.472  1.00  0.00    -0.140 I  
HETATM   11  C   UNL     1     -10.140  12.193  68.651  1.00  0.00    -0.151 A  
HETATM   12  O   UNL     1     -12.313  14.051  69.769  1.00  0.00    -0.336 OA 
HETATM   13  O   UNL     1     -12.410  14.565  67.569  1.00  0.00    -0.240 OA 
HETATM   14  I   UNL     1      -9.719  16.555  67.995  1.00  0.00    -0.257 I  
HETATM   15  C   UNL     1     -10.439  13.551  68.398  1.00  0.00    -0.252 A  
HETATM   16  I   UNL     1     -11.751  10.877  69.228  1.00  0.00    -0.338 I  
HETATM   17  C   UNL     1      -9.438  14.406  67.901  1.00  0.00    -0.214 A  
HETATM   18  C   UNL     1     -11.816  14.087  68.517  1.00  0.00    -0.364 C  
BRANCH   9  19
HETATM   19  C   UNL     1      -8.481  10.320  68.933  1.00  0.00    -0.138 C  
HETATM   20  H   UNL     1      -8.285   8.475  68.310  1.00  0.00     0.000 HD 
HETATM   21  O   UNL     1      -8.504   9.347  68.003  1.00  0.00    -0.119 OA 
BRANCH  19  22
HETATM   22  N   UNL     1      -8.229  10.061  70.170  1.00  0.00    -0.320 NA 
HETATM   23  H   UNL     1      -8.476  10.709  70.918  1.00  0.00     0.000 HD 
BRANCH  22  24
HETATM   24  C   UNL     1      -7.563   8.769  70.442  1.00  0.00    -0.082 C  
BRANCH  24  25
HETATM   25  C   UNL     1      -7.675   8.457  71.939  1.00  0.00    -0.121 C  
HETATM   26  O   UNL     1      -6.517   8.923  72.628  1.00  0.00    -0.254 OA 
HETATM   27  H   UNL     1      -6.586   8.730  73.555  1.00  0.00     0.000 HD 
ENDBRANCH  24  25
ENDBRANCH  22  24
ENDBRANCH  19  22
ENDBRANCH   9  19
ENDBRANCH   5   7
ENDBRANCH   2   5
TORSDOF 6
ENDMDL
MODEL      138
REMARK 921   NORMALIZED FREE ENERGY PREDICTED BY IDOCK:   -2.97 KCAL/MOL
REMARK 922        TOTAL FREE ENERGY PREDICTED BY IDOCK:   -4.53 KCAL/MOL
REMARK 923 INTER-LIGAND FREE ENERGY PREDICTED BY IDOCK:   -4.04 KCAL/MOL
REMARK 924 INTRA-LIGAND FREE ENERGY PREDICTED BY IDOCK:   -0.49 KCAL/MOL
REMARK 927      BINDING AFFINITY PREDICTED BY RF-SCORE:    0.00 PKD
ROOT
HETATM    1  C   UNL     1      -9.558   3.449  63.993  1.00  0.00    -0.143 C  
HETATM    2  C   UNL     1      -9.723   4.292  65.219  1.00  0.00    -0.197 C  
HETATM    3  H   UNL     1     -11.106   5.065  66.340  1.00  0.00     0.000 HD 
HETATM    4  O   UNL     1     -11.001   4.530  65.562  1.00  0.00    -0.247 OA 
ENDROOT
BRANCH   2   5
HETATM    5  N   UNL     1      -8.707   4.733  65.887  1.00  0.00    -0.121 NA 
HETATM    6  H   UNL     1      -7.920   4.114  66.083  1.00  0.00     0.000 HD 
BRANCH   5   7
HETATM    7  C   UNL     1      -8.681   6.072  66.349  1.00  0.00    -0.133 A  
HETATM    8  C   UNL     1      -8.954   6.364  67.717  1.00  0.00    -0.113 A  
HETATM    9  C   UNL     1      -8.969   7.697  68.207  1.00  0.00    -0.127 A  
HETATM   10  I   UNL     1      -9.241   4.679  69.025  1.00  0.00    -0.235 I  
HETATM   11  C   UNL     1      -8.776   8.754  67.279  1.00  0.00    -0.129 A  
HETATM   12  O   UNL     1      -7.298  10.422  65.166  1.00  0.00    -0.139 OA 
HETATM   13  O   UNL     1      -9.000   9.589  63.931  1.00  0.00    -0.228 OA 
HETATM   14  I   UNL     1      -7.277   6.702  63.649  1.00  0.00    -0.084 I  
HETATM   15  C   UNL     1      -8.421   8.477  65.938  1.00  0.00    -0.164 A  
HETATM   16  I   UNL     1      -9.138  10.807  67.841  1.00  0.00    -0.170 I  
HETATM   17  C   UNL     1      -8.300   7.142  65.510  1.00  0.00    -0.129 A  
HETATM   18  C   UNL     1      -8.295   9.548  64.922  1.00  0.00    -0.146 C  
BRANCH   9  19
HETATM   19  C   UNL     1      -9.121   8.018  69.662  1.00  0.00    -0.152 C  
HETATM   20  H   UNL     1      -8.087   8.188  71.314  1.00  0.00     0.000 HD 
HETATM   21  O   UNL     1      -7.991   7.985  70.392  1.00  0.00    -0.098 OA 
BRANCH  19  22
HETATM   22  N   UNL     1     -10.265   8.258  70.205  1.00  0.00    -0.193 NA 
HETATM   23  H   UNL     1     -10.870   9.013  69.880  1.00  0.00     0.000 HD 
BRANCH  22  24
HETATM   24  C   UNL     1     -10.649   7.376  71.328  1.00  0.00    -0.216 C  
BRANCH  24  25
HETATM   25  C   UNL     1     -11.986   6.702  70.996  1.00  0.00    -0.359 C  
HETATM   26  O   UNL     1     -12.207   6.712  69.587  1.00  0.00    -0.514 OA 
HETATM   27  H   UNL     1     -13.035   6.295  69.381  1.00  0.00     0.000 HD 
ENDBRANCH  24  25
ENDBRANCH  22  24
ENDBRANCH  19  22
ENDBRANCH   9  19
ENDBRANCH   5   7
ENDBRANCH   2   5
TORSDOF 6
ENDMDL
MODEL      139
REMARK 921   NORMALIZED FREE ENERGY PREDICTED BY IDOCK:   -2.94 KCAL/MOL
REMARK 922        TOTAL FREE ENERGY PREDICTED BY IDOCK:   -4.49 KCAL/MOL
REMARK 923 INTER-LIGAND FREE ENERGY PREDICTED BY IDOCK:   -3.94 KCAL/MOL
REMARK 924 INTRA-LIGAND FREE ENERGY PREDICTED BY IDOCK:   -0.54 KCAL/MOL
REMARK 927      BINDING AFFINITY PREDICTED BY RF-SCORE:    0.00 PKD
ROOT
HETATM    1  C   UNL     1     -11.986   6.484  72.472  1.00  0.00    -0.106 C  
HETATM    2  C   UNL     1     -11.504   7.044  71.171  1.00  0.00    -0.294 C  
HETATM    3  H   UNL     1     -11.781   6.864  69.259  1.00  0.00     0.000 HD 
HETATM    4  O   UNL     1     -12.087   6.508  70.085  1.00  0.00    -0.323 OA 
ENDROOT
BRANCH   2   5
HETATM    5  N   UNL     1     -10.610   7.979  71.118  1.00  0.00    -0.202 NA 
HETATM    6  H   UNL     1     -10.534   8.652  71.881  1.00  0.00     0.000 HD 
BRANCH   5   7
HETATM    7  C   UNL     1      -9.737   8.071  70.006  1.00  0.00    -0.173 A  
HETATM    8  C   UNL     1      -9.941   9.077  69.018  1.00  0.00    -0.185 A  
HETATM    9  C   UNL     1      -9.104   9.179  67.874  1.00  0.00    -0.134 A  
HETATM   10  I   UNL     1     -11.513  10.498  69.395  1.00  0.00    -0.281 I  
HETATM   11  C   UNL     1      -8.092   8.199  67.695  1.00  0.00    -0.127 A  
HETATM   12  O   UNL     1      -5.568   6.589  68.377  1.00  0.00    -0.011 OA 
HETATM   13  O   UNL     1      -7.152   4.985  68.555  1.00  0.00    -0.056 OA 
HETATM   14  I   UNL     1      -7.892   6.167  71.627  1.00  0.00    -0.102 I  
HETATM   15  C   UNL     1      -7.826   7.248  68.707  1.00  0.00    -0.121 A  
HETATM   16  I   UNL     1      -7.014   8.043  65.831  1.00  0.00    -0.057 I  
HETATM   17  C   UNL     1      -8.598   7.247  69.884  1.00  0.00    -0.141 A  
HETATM   18  C   UNL     1      -6.837   6.160  68.521  1.00  0.00    -0.074 C  
BRANCH   9  19
HETATM   19  C   UNL     1      -9.215  10.305  66.893  1.00  0.00    -0.150 C  
HETATM   20  H   UNL     1      -8.511  12.091  66.518  1.00  0.00     0.000 HD 
HETATM   21  O   UNL     1      -8.440  11.377  67.140  1.00  0.00    -0.142 OA 
BRANCH  19  22
HETATM   22  N   UNL     1     -10.039  10.285  65.901  1.00  0.00    -0.256 NA 
HETATM   23  H   UNL     1     -10.762   9.571  65.814  1.00  0.00     0.000 HD 
BRANCH  22  24
HETATM   24  C   UNL     1      -9.874  11.359  64.898  1.00  0.00    -0.258 C  
BRANCH  24  25
HETATM   25  C   UNL     1      -9.754  10.725  63.507  1.00  0.00    -0.341 C  
HETATM   26  O   UNL     1      -9.465  11.725  62.532  1.00  0.00    -0.407 OA 
HETATM   27  H   UNL     1      -9.390  11.333  61.671  1.00  0.00     0.000 HD 
ENDBRANCH  24  25
ENDBRANCH  22  24
ENDBRANCH  19  22
ENDBRANCH   9  19
ENDBRANCH   5   7
ENDBRANCH   2   5
TORSDOF 6
ENDMDL
MODEL      140
REMARK 921   NORMALIZED FREE ENERGY PREDICTED BY IDOCK:   -2.93 KCAL/MOL
REMARK 922        TOTAL FREE ENERGY PREDICTED BY IDOCK:   -4.48 KCAL/MOL
REMARK 923 INTER-LIGAND FREE ENERGY PREDICTED BY IDOCK:   -4.42 KCAL/MOL
REMARK 924 INTRA-LIGAND FREE ENERGY PREDICTED BY IDOCK:   -0.06 KCAL/MOL
REMARK 927      BINDING AFFINITY PREDICTED BY RF-SCORE:    0.00 PKD
ROOT
HETATM    1  C   UNL     1      -8.924   7.135  72.649  1.00  0.00    -0.148 C  
HETATM    2  C   UNL     1      -8.804   7.981  71.419  1.00  0.00    -0.141 C  
HETATM    3  H   UNL     1      -7.968   9.615  70.791  1.00  0.00     0.000 HD 
HETATM    4  O   UNL     1      -8.044   9.078  71.571  1.00  0.00    -0.303 OA 
ENDROOT
BRANCH   2   5
HETATM    5  N   UNL     1      -9.381   7.656  70.307  1.00  0.00    -0.157 NA 
HETATM    6  H   UNL     1     -10.105   6.938  70.302  1.00  0.00     0.000 HD 
BRANCH   5   7
HETATM    7  C   UNL     1      -9.012   8.294  69.097  1.00  0.00    -0.147 A  
HETATM    8  C   UNL     1      -9.737   9.431  68.637  1.00  0.00    -0.152 A  
HETATM    9  C   UNL     1      -9.414  10.076  67.412  1.00  0.00    -0.176 A  
HETATM   10  I   UNL     1     -11.275  10.188  69.938  1.00  0.00    -0.358 I  
HETATM   11  C   UNL     1      -8.389   9.512  66.608  1.00  0.00    -0.116 A  
HETATM   12  O   UNL     1      -5.556   8.562  65.900  1.00  0.00    -0.044 OA 
HETATM   13  O   UNL     1      -6.662   6.589  65.953  1.00  0.00    -0.046 OA 
HETATM   14  I   UNL     1      -6.401   6.623  69.317  1.00  0.00    -0.038 I  
HETATM   15  C   UNL     1      -7.608   8.436  67.090  1.00  0.00    -0.093 A  
HETATM   16  I   UNL     1      -8.069  10.185  64.582  1.00  0.00    -0.088 I  
HETATM   17  C   UNL     1      -7.877   7.893  68.361  1.00  0.00    -0.120 A  
HETATM   18  C   UNL     1      -6.588   7.767  66.248  1.00  0.00    -0.050 C  
BRANCH   9  19
HETATM   19  C   UNL     1     -10.072  11.348  66.975  1.00  0.00    -0.208 C  
HETATM   20  H   UNL     1      -9.938  13.291  67.162  1.00  0.00     0.000 HD 
HETATM   21  O   UNL     1      -9.521  12.484  67.439  1.00  0.00    -0.177 OA 
BRANCH  19  22
HETATM   22  N   UNL     1     -11.135  11.367  66.245  1.00  0.00    -0.264 NA 
HETATM   23  H   UNL     1     -11.458  10.541  65.740  1.00  0.00     0.000 HD 
BRANCH  22  24
HETATM   24  C   UNL     1     -11.857  12.655  66.181  1.00  0.00    -0.418 C  
BRANCH  24  25
HETATM   25  C   UNL     1     -12.045  13.048  64.711  1.00  0.00    -0.415 C  
HETATM   26  O   UNL     1     -13.195  12.402  64.170  1.00  0.00    -0.761 OA 
HETATM   27  H   UNL     1     -13.311  12.645  63.260  1.00  0.00     0.000 HD 
ENDBRANCH  24  25
ENDBRANCH  22  24
ENDBRANCH  19  22
ENDBRANCH   9  19
ENDBRANCH   5   7
ENDBRANCH   2   5
TORSDOF 6
ENDMDL
MODEL      141
REMARK 921   NORMALIZED FREE ENERGY PREDICTED BY IDOCK:   -2.93 KCAL/MOL
REMARK 922        TOTAL FREE ENERGY PREDICTED BY IDOCK:   -4.47 KCAL/MOL
REMARK 923 INTER-LIGAND FREE ENERGY PREDICTED BY IDOCK:   -3.98 KCAL/MOL
REMARK 924 INTRA-LIGAND FREE ENERGY PREDICTED BY IDOCK:   -0.49 KCAL/MOL
REMARK 927      BINDING AFFINITY PREDICTED BY RF-SCORE:    0.00 PKD
ROOT
HETATM    1  C   UNL     1     -11.999   9.360  71.275  1.00  0.00    -0.430 C  
HETATM    2  C   UNL     1     -10.870   9.308  70.293  1.00  0.00    -0.246 C  
HETATM    3  H   UNL     1      -8.962   9.634  70.175  1.00  0.00     0.000 HD 
HETATM    4  O   UNL     1      -9.678   9.667  70.798  1.00  0.00    -0.250 OA 
ENDROOT
BRANCH   2   5
HETATM    5  N   UNL     1     -11.047   8.931  69.068  1.00  0.00    -0.428 NA 
HETATM    6  H   UNL     1     -11.992   8.851  68.692  1.00  0.00     0.000 HD 
BRANCH   5   7
HETATM    7  C   UNL     1      -9.934   8.628  68.245  1.00  0.00    -0.180 A  
HETATM    8  C   UNL     1      -9.433   7.296  68.179  1.00  0.00    -0.133 A  
HETATM    9  C   UNL     1      -8.299   6.963  67.389  1.00  0.00    -0.122 A  
HETATM   10  I   UNL     1     -10.541   5.793  69.250  1.00  0.00    -0.279 I  
HETATM   11  C   UNL     1      -7.620   8.012  66.716  1.00  0.00    -0.094 A  
HETATM   12  O   UNL     1      -7.272  10.348  64.753  1.00  0.00    -0.121 OA 
HETATM   13  O   UNL     1      -7.071  11.426  66.732  1.00  0.00    -0.138 OA 
HETATM   14  I   UNL     1     -10.435  11.425  66.984  1.00  0.00    -0.323 I  
HETATM   15  C   UNL     1      -8.154   9.322  66.706  1.00  0.00    -0.112 A  
HETATM   16  I   UNL     1      -5.696   7.681  65.797  1.00  0.00    -0.038 I  
HETATM   17  C   UNL     1      -9.345   9.596  67.403  1.00  0.00    -0.134 A  
HETATM   18  C   UNL     1      -7.431  10.459  66.087  1.00  0.00    -0.131 C  
BRANCH   9  19
HETATM   19  C   UNL     1      -7.838   5.551  67.199  1.00  0.00    -0.101 C  
HETATM   20  H   UNL     1      -6.641   4.208  67.971  1.00  0.00     0.000 HD 
HETATM   21  O   UNL     1      -6.934   5.104  68.091  1.00  0.00    -0.058 OA 
BRANCH  19  22
HETATM   22  N   UNL     1      -8.230   4.817  66.215  1.00  0.00    -0.107 NA 
HETATM   23  H   UNL     1      -8.711   5.211  65.406  1.00  0.00     0.000 HD 
BRANCH  22  24
HETATM   24  C   UNL     1      -7.943   3.371  66.327  1.00  0.00    -0.091 C  
BRANCH  24  25
HETATM   25  C   UNL     1      -8.533   2.651  65.110  1.00  0.00    -0.098 C  
HETATM   26  O   UNL     1      -9.912   2.983  64.961  1.00  0.00    -0.368 OA 
HETATM   27  H   UNL     1     -10.278   2.537  64.207  1.00  0.00     0.000 HD 
ENDBRANCH  24  25
ENDBRANCH  22  24
ENDBRANCH  19  22
ENDBRANCH   9  19
ENDBRANCH   5   7
ENDBRANCH   2   5
TORSDOF 6
ENDMDL
MODEL      142
REMARK 921   NORMALIZED FREE ENERGY PREDICTED BY IDOCK:   -2.91 KCAL/MOL
REMARK 922        TOTAL FREE ENERGY PREDICTED BY IDOCK:   -4.45 KCAL/MOL
REMARK 923 INTER-LIGAND FREE ENERGY PREDICTED BY IDOCK:   -4.08 KCAL/MOL
REMARK 924 INTRA-LIGAND FREE ENERGY PREDICTED BY IDOCK:   -0.37 KCAL/MOL
REMARK 927      BINDING AFFINITY PREDICTED BY RF-SCORE:    0.00 PKD
ROOT
HETATM    1  C   UNL     1      -8.837   9.475  65.015  1.00  0.00    -0.232 C  
HETATM    2  C   UNL     1      -7.671  10.379  65.270  1.00  0.00    -0.124 C  
HETATM    3  H   UNL     1      -5.977  10.909  64.488  1.00  0.00     0.000 HD 
HETATM    4  O   UNL     1      -6.716  10.335  64.326  1.00  0.00    -0.124 OA 
ENDROOT
BRANCH   2   5
HETATM    5  N   UNL     1      -7.615  11.143  66.314  1.00  0.00    -0.284 NA 
HETATM    6  H   UNL     1      -7.080  12.011  66.279  1.00  0.00     0.000 HD 
BRANCH   5   7
HETATM    7  C   UNL     1      -8.292  10.780  67.504  1.00  0.00    -0.115 A  
HETATM    8  C   UNL     1      -7.701   9.853  68.410  1.00  0.00    -0.084 A  
HETATM    9  C   UNL     1      -8.366   9.442  69.596  1.00  0.00    -0.147 A  
HETATM   10  I   UNL     1      -5.708   9.186  67.946  1.00  0.00    -0.037 I  
HETATM   11  C   UNL     1      -9.682   9.923  69.828  1.00  0.00    -0.236 A  
HETATM   12  O   UNL     1     -11.881  12.013  70.303  1.00  0.00    -0.333 OA 
HETATM   13  O   UNL     1     -12.479  11.226  68.268  1.00  0.00    -0.317 OA 
HETATM   14  I   UNL     1     -10.126  13.214  66.894  1.00  0.00    -0.261 I  
HETATM   15  C   UNL     1     -10.246  10.907  68.982  1.00  0.00    -0.219 A  
HETATM   16  I   UNL     1     -10.912   9.087  71.393  1.00  0.00    -0.452 I  
HETATM   17  C   UNL     1      -9.514  11.381  67.878  1.00  0.00    -0.174 A  
HETATM   18  C   UNL     1     -11.645  11.370  69.141  1.00  0.00    -0.314 C  
BRANCH   9  19
HETATM   19  C   UNL     1      -7.711   8.575  70.627  1.00  0.00    -0.081 C  
HETATM   20  H   UNL     1      -6.726   8.670  72.315  1.00  0.00     0.000 HD 
HETATM   21  O   UNL     1      -7.142   9.220  71.661  1.00  0.00    -0.310 OA 
BRANCH  19  22
HETATM   22  N   UNL     1      -7.641   7.292  70.514  1.00  0.00    -0.086 NA 
HETATM   23  H   UNL     1      -8.437   6.733  70.207  1.00  0.00     0.000 HD 
BRANCH  22  24
HETATM   24  C   UNL     1      -6.339   6.680  70.856  1.00  0.00    -0.047 C  
BRANCH  24  25
HETATM   25  C   UNL     1      -6.519   5.162  70.969  1.00  0.00    -0.027 C  
HETATM   26  O   UNL     1      -7.903   4.823  70.920  1.00  0.00    -0.077 OA 
HETATM   27  H   UNL     1      -8.014   3.883  70.990  1.00  0.00     0.000 HD 
ENDBRANCH  24  25
ENDBRANCH  22  24
ENDBRANCH  19  22
ENDBRANCH   9  19
ENDBRANCH   5   7
ENDBRANCH   2   5
TORSDOF 6
ENDMDL
MODEL      143
REMARK 921   NORMALIZED FREE ENERGY PREDICTED BY IDOCK:   -2.90 KCAL/MOL
REMARK 922        TOTAL FREE ENERGY PREDICTED BY IDOCK:   -4.44 KCAL/MOL
REMARK 923 INTER-LIGAND FREE ENERGY PREDICTED BY IDOCK:   -4.36 KCAL/MOL
REMARK 924 INTRA-LIGAND FREE ENERGY PREDICTED BY IDOCK:   -0.08 KCAL/MOL
REMARK 927      BINDING AFFINITY PREDICTED BY RF-SCORE:    0.00 PKD
ROOT
HETATM    1  C   UNL     1      -6.432   7.410  69.019  1.00  0.00    -0.040 C  
HETATM    2  C   UNL     1      -7.050   8.753  68.782  1.00  0.00    -0.063 C  
HETATM    3  H   UNL     1      -8.451   9.907  69.467  1.00  0.00     0.000 HD 
HETATM    4  O   UNL     1      -8.058   9.055  69.617  1.00  0.00    -0.094 OA 
ENDROOT
BRANCH   2   5
HETATM    5  N   UNL     1      -6.623   9.548  67.854  1.00  0.00    -0.062 NA 
HETATM    6  H   UNL     1      -5.815   9.284  67.291  1.00  0.00     0.000 HD 
BRANCH   5   7
HETATM    7  C   UNL     1      -7.274  10.784  67.616  1.00  0.00    -0.092 A  
HETATM    8  C   UNL     1      -8.350  10.859  66.686  1.00  0.00    -0.143 A  
HETATM    9  C   UNL     1      -9.004  12.088  66.399  1.00  0.00    -0.161 A  
HETATM   10  I   UNL     1      -9.005   9.004  65.813  1.00  0.00    -0.253 I  
HETATM   11  C   UNL     1      -8.510  13.269  67.012  1.00  0.00    -0.128 A  
HETATM   12  O   UNL     1      -7.764  15.154  69.318  1.00  0.00    -0.176 OA 
HETATM   13  O   UNL     1      -5.716  14.673  68.488  1.00  0.00    -0.088 OA 
HETATM   14  I   UNL     1      -5.803  11.753  70.177  1.00  0.00    -0.084 I  
HETATM   15  C   UNL     1      -7.499  13.196  67.999  1.00  0.00    -0.132 A  
HETATM   16  I   UNL     1      -9.184  15.218  66.375  1.00  0.00    -0.283 I  
HETATM   17  C   UNL     1      -6.951  11.948  68.346  1.00  0.00    -0.078 A  
HETATM   18  C   UNL     1      -6.899  14.412  68.598  1.00  0.00    -0.096 C  
BRANCH   9  19
HETATM   19  C   UNL     1     -10.220  12.168  65.528  1.00  0.00    -0.265 C  
HETATM   20  H   UNL     1     -10.761  12.396  63.662  1.00  0.00     0.000 HD 
HETATM   21  O   UNL     1      -9.990  12.345  64.214  1.00  0.00    -0.280 OA 
BRANCH  19  22
HETATM   22  N   UNL     1     -11.419  12.128  66.001  1.00  0.00    -0.363 NA 
HETATM   23  H   UNL     1     -11.628  11.708  66.907  1.00  0.00     0.000 HD 
BRANCH  22  24
HETATM   24  C   UNL     1     -12.472  12.726  65.154  1.00  0.00    -0.501 C  
BRANCH  24  25
HETATM   25  C   UNL     1     -12.785  14.135  65.670  1.00  0.00    -0.441 C  
HETATM   26  O   UNL     1     -12.658  14.180  67.090  1.00  0.00    -0.533 OA 
HETATM   27  H   UNL     1     -12.852  15.052  67.410  1.00  0.00     0.000 HD 
ENDBRANCH  24  25
ENDBRANCH  22  24
ENDBRANCH  19  22
ENDBRANCH   9  19
ENDBRANCH   5   7
ENDBRANCH   2   5
TORSDOF 6
ENDMDL
MODEL      144
REMARK 921   NORMALIZED FREE ENERGY PREDICTED BY IDOCK:   -2.85 KCAL/MOL
REMARK 922        TOTAL FREE ENERGY PREDICTED BY IDOCK:   -4.37 KCAL/MOL
REMARK 923 INTER-LIGAND FREE ENERGY PREDICTED BY IDOCK:   -4.47 KCAL/MOL
REMARK 924 INTRA-LIGAND FREE ENERGY PREDICTED BY IDOCK:    0.10 KCAL/MOL
REMARK 927      BINDING AFFINITY PREDICTED BY RF-SCORE:    0.00 PKD
ROOT
HETATM    1  C   UNL     1      -8.457   4.463  64.625  1.00  0.00    -0.125 C  
HETATM    2  C   UNL     1      -9.021   4.874  65.950  1.00  0.00    -0.134 C  
HETATM    3  H   UNL     1     -10.717   5.046  66.877  1.00  0.00     0.000 HD 
HETATM    4  O   UNL     1     -10.359   4.785  66.036  1.00  0.00    -0.262 OA 
ENDROOT
BRANCH   2   5
HETATM    5  N   UNL     1      -8.263   5.266  66.923  1.00  0.00    -0.108 NA 
HETATM    6  H   UNL     1      -7.252   5.156  66.856  1.00  0.00     0.000 HD 
BRANCH   5   7
HETATM    7  C   UNL     1      -8.833   5.848  68.083  1.00  0.00    -0.110 A  
HETATM    8  C   UNL     1      -9.192   7.226  68.091  1.00  0.00    -0.132 A  
HETATM    9  C   UNL     1      -9.736   7.849  69.247  1.00  0.00    -0.159 A  
HETATM   10  I   UNL     1      -8.968   8.293  66.235  1.00  0.00    -0.237 I  
HETATM   11  C   UNL     1      -9.847   7.078  70.433  1.00  0.00    -0.179 A  
HETATM   12  O   UNL     1     -10.811   4.781  72.229  1.00  0.00    -0.165 OA 
HETATM   13  O   UNL     1      -8.609   4.292  72.064  1.00  0.00    -0.104 OA 
HETATM   14  I   UNL     1      -9.221   2.917  69.044  1.00  0.00    -0.116 I  
HETATM   15  C   UNL     1      -9.573   5.691  70.417  1.00  0.00    -0.217 A  
HETATM   16  I   UNL     1     -10.311   8.010  72.325  1.00  0.00    -0.413 I  
HETATM   17  C   UNL     1      -9.147   5.078  69.224  1.00  0.00    -0.103 A  
HETATM   18  C   UNL     1      -9.596   4.872  71.652  1.00  0.00    -0.159 C  
BRANCH   9  19
HETATM   19  C   UNL     1     -10.243   9.258  69.238  1.00  0.00    -0.206 C  
HETATM   20  H   UNL     1      -9.755  11.071  69.790  1.00  0.00     0.000 HD 
HETATM   21  O   UNL     1      -9.434  10.177  69.795  1.00  0.00    -0.220 OA 
BRANCH  19  22
HETATM   22  N   UNL     1     -11.405   9.577  68.778  1.00  0.00    -0.454 NA 
HETATM   23  H   UNL     1     -11.994   8.904  68.287  1.00  0.00     0.000 HD 
BRANCH  22  24
HETATM   24  C   UNL     1     -11.833  10.974  69.004  1.00  0.00    -0.329 C  
BRANCH  24  25
HETATM   25  C   UNL     1     -11.610  11.776  67.716  1.00  0.00    -0.304 C  
HETATM   26  O   UNL     1     -10.965  13.013  68.011  1.00  0.00    -0.235 OA 
HETATM   27  H   UNL     1     -10.827  13.510  67.214  1.00  0.00     0.000 HD 
ENDBRANCH  24  25
ENDBRANCH  22  24
ENDBRANCH  19  22
ENDBRANCH   9  19
ENDBRANCH   5   7
ENDBRANCH   2   5
TORSDOF 6
ENDMDL
MODEL      145
REMARK 921   NORMALIZED FREE ENERGY PREDICTED BY IDOCK:   -2.85 KCAL/MOL
REMARK 922        TOTAL FREE ENERGY PREDICTED BY IDOCK:   -4.37 KCAL/MOL
REMARK 923 INTER-LIGAND FREE ENERGY PREDICTED BY IDOCK:   -4.26 KCAL/MOL
REMARK 924 INTRA-LIGAND FREE ENERGY PREDICTED BY IDOCK:   -0.11 KCAL/MOL
REMARK 927      BINDING AFFINITY PREDICTED BY RF-SCORE:    0.00 PKD
ROOT
HETATM    1  C   UNL     1      -5.875  10.096  63.186  1.00  0.00    -0.134 C  
HETATM    2  C   UNL     1      -7.348  10.299  63.361  1.00  0.00    -0.097 C  
HETATM    3  H   UNL     1      -8.884  11.047  62.442  1.00  0.00     0.000 HD 
HETATM    4  O   UNL     1      -7.949  10.918  62.332  1.00  0.00    -0.182 OA 
ENDROOT
BRANCH   2   5
HETATM    5  N   UNL     1      -7.974   9.890  64.418  1.00  0.00    -0.139 NA 
HETATM    6  H   UNL     1      -8.322   8.933  64.463  1.00  0.00     0.000 HD 
BRANCH   5   7
HETATM    7  C   UNL     1      -8.177  10.767  65.512  1.00  0.00    -0.104 A  
HETATM    8  C   UNL     1      -9.391  11.505  65.621  1.00  0.00    -0.204 A  
HETATM    9  C   UNL     1      -9.615  12.417  66.688  1.00  0.00    -0.230 A  
HETATM   10  I   UNL     1     -10.908  11.095  64.151  1.00  0.00     0.145 I  
HETATM   11  C   UNL     1      -8.563  12.636  67.615  1.00  0.00    -0.180 A  
HETATM   12  O   UNL     1      -6.499  11.906  69.768  1.00  0.00    -0.126 OA 
HETATM   13  O   UNL     1      -5.138  12.413  68.034  1.00  0.00    -0.060 OA 
HETATM   14  I   UNL     1      -5.724   9.338  66.777  1.00  0.00    -0.052 I  
HETATM   15  C   UNL     1      -7.388  11.850  67.566  1.00  0.00    -0.132 A  
HETATM   16  I   UNL     1      -8.658  14.251  69.044  1.00  0.00     0.361 I  
HETATM   17  C   UNL     1      -7.244  10.871  66.565  1.00  0.00    -0.142 A  
HETATM   18  C   UNL     1      -6.235  12.106  68.462  1.00  0.00    -0.053 C  
BRANCH   9  19
HETATM   19  C   UNL     1     -10.931  13.102  66.897  1.00  0.00    -0.276 C  
HETATM   20  H   UNL     1     -12.727  12.796  67.610  1.00  0.00     0.000 HD 
HETATM   21  O   UNL     1     -11.893  12.362  67.478  1.00  0.00    -0.413 OA 
BRANCH  19  22
HETATM   22  N   UNL     1     -11.158  14.308  66.500  1.00  0.00    -0.316 NA 
HETATM   23  H   UNL     1     -10.561  15.088  66.775  1.00  0.00     0.000 HD 
BRANCH  22  24
HETATM   24  C   UNL     1     -12.334  14.492  65.624  1.00  0.00    -0.250 C  
BRANCH  24  25
HETATM   25  C   UNL     1     -11.851  14.838  64.210  1.00  0.00    -0.319 C  
HETATM   26  O   UNL     1     -12.030  16.230  63.955  1.00  0.00    -1.357 OA 
HETATM   27  H   UNL     1     -11.731  16.444  63.079  1.00  0.00     0.000 HD 
ENDBRANCH  24  25
ENDBRANCH  22  24
ENDBRANCH  19  22
ENDBRANCH   9  19
ENDBRANCH   5   7
ENDBRANCH   2   5
TORSDOF 6
ENDMDL
MODEL      146
REMARK 921   NORMALIZED FREE ENERGY PREDICTED BY IDOCK:   -2.84 KCAL/MOL
REMARK 922        TOTAL FREE ENERGY PREDICTED BY IDOCK:   -4.36 KCAL/MOL
REMARK 923 INTER-LIGAND FREE ENERGY PREDICTED BY IDOCK:   -4.32 KCAL/MOL
REMARK 924 INTRA-LIGAND FREE ENERGY PREDICTED BY IDOCK:   -0.03 KCAL/MOL
REMARK 927      BINDING AFFINITY PREDICTED BY RF-SCORE:    0.00 PKD
ROOT
HETATM    1  C   UNL     1      -9.968  15.678  69.594  1.00  0.00    -0.290 C  
HETATM    2  C   UNL     1     -10.428  16.234  68.283  1.00  0.00    -0.284 C  
HETATM    3  H   UNL     1     -11.665  17.537  67.550  1.00  0.00     0.000 HD 
HETATM    4  O   UNL     1     -11.373  17.184  68.383  1.00  0.00    -0.115 OA 
ENDROOT
BRANCH   2   5
HETATM    5  N   UNL     1      -9.933  15.829  67.157  1.00  0.00    -0.238 NA 
HETATM    6  H   UNL     1      -9.981  16.432  66.336  1.00  0.00     0.000 HD 
BRANCH   5   7
HETATM    7  C   UNL     1      -9.325  14.553  67.061  1.00  0.00    -0.238 A  
HETATM    8  C   UNL     1     -10.081  13.432  66.612  1.00  0.00    -0.275 A  
HETATM    9  C   UNL     1      -9.513  12.132  66.534  1.00  0.00    -0.235 A  
HETATM   10  I   UNL     1     -12.095  13.823  65.959  1.00  0.00    -0.495 I  
HETATM   11  C   UNL     1      -8.180  11.955  66.988  1.00  0.00    -0.170 A  
HETATM   12  O   UNL     1      -5.140  12.382  67.057  1.00  0.00    -0.295 OA 
HETATM   13  O   UNL     1      -5.740  13.303  69.034  1.00  0.00    -0.072 OA 
HETATM   14  I   UNL     1      -6.644  16.095  67.369  1.00  0.00    -0.158 I  
HETATM   15  C   UNL     1      -7.393  13.071  67.357  1.00  0.00    -0.122 A  
HETATM   16  I   UNL     1      -7.349   9.981  67.255  1.00  0.00    -0.091 I  
HETATM   17  C   UNL     1      -7.950  14.363  67.312  1.00  0.00    -0.180 A  
HETATM   18  C   UNL     1      -6.029  12.919  67.916  1.00  0.00    -0.125 C  
BRANCH   9  19
HETATM   19  C   UNL     1     -10.245  10.968  65.941  1.00  0.00    -0.254 C  
HETATM   20  H   UNL     1     -10.414   9.941  64.284  1.00  0.00     0.000 HD 
HETATM   21  O   UNL     1      -9.950  10.679  64.660  1.00  0.00    -0.287 OA 
BRANCH  19  22
HETATM   22  N   UNL     1     -11.146  10.310  66.588  1.00  0.00     0.024 NA 
HETATM   23  H   UNL     1     -12.096  10.204  66.233  1.00  0.00     0.000 HD 
BRANCH  22  24
HETATM   24  C   UNL     1     -10.720   9.717  67.874  1.00  0.00    -0.258 C  
BRANCH  24  25
HETATM   25  C   UNL     1     -10.899   8.196  67.804  1.00  0.00    -0.002 C  
HETATM   26  O   UNL     1     -10.017   7.553  68.721  1.00  0.00    -0.163 OA 
HETATM   27  H   UNL     1     -10.128   6.611  68.678  1.00  0.00     0.000 HD 
ENDBRANCH  24  25
ENDBRANCH  22  24
ENDBRANCH  19  22
ENDBRANCH   9  19
ENDBRANCH   5   7
ENDBRANCH   2   5
TORSDOF 6
ENDMDL
MODEL      147
REMARK 921   NORMALIZED FREE ENERGY PREDICTED BY IDOCK:   -2.83 KCAL/MOL
REMARK 922        TOTAL FREE ENERGY PREDICTED BY IDOCK:   -4.35 KCAL/MOL
REMARK 923 INTER-LIGAND FREE ENERGY PREDICTED BY IDOCK:   -4.43 KCAL/MOL
REMARK 924 INTRA-LIGAND FREE ENERGY PREDICTED BY IDOCK:    0.08 KCAL/MOL
REMARK 927      BINDING AFFINITY PREDICTED BY RF-SCORE:    0.00 PKD
ROOT
HETATM    1  C   UNL     1      -5.706  16.807  67.025  1.00  0.00    -0.193 C  
HETATM    2  C   UNL     1      -6.386  15.600  67.591  1.00  0.00    -0.163 C  
HETATM    3  H   UNL     1      -6.595  14.633  69.260  1.00  0.00     0.000 HD 
HETATM    4  O   UNL     1      -6.163  15.399  68.901  1.00  0.00    -0.096 OA 
ENDROOT
BRANCH   2   5
HETATM    5  N   UNL     1      -7.135  14.833  66.865  1.00  0.00    -0.272 NA 
HETATM    6  H   UNL     1      -7.037  14.841  65.850  1.00  0.00     0.000 HD 
BRANCH   5   7
HETATM    7  C   UNL     1      -8.092  13.983  67.474  1.00  0.00    -0.186 A  
HETATM    8  C   UNL     1      -7.757  12.633  67.781  1.00  0.00    -0.145 A  
HETATM    9  C   UNL     1      -8.701  11.744  68.362  1.00  0.00    -0.155 A  
HETATM   10  I   UNL     1      -5.721  12.036  67.419  1.00  0.00    -0.113 I  
HETATM   11  C   UNL     1     -10.025  12.212  68.565  1.00  0.00    -0.175 A  
HETATM   12  O   UNL     1     -12.244  14.002  69.708  1.00  0.00    -0.327 OA 
HETATM   13  O   UNL     1     -12.330  14.568  67.520  1.00  0.00    -0.240 OA 
HETATM   14  I   UNL     1      -9.682  16.597  68.021  1.00  0.00    -0.266 I  
HETATM   15  C   UNL     1     -10.348  13.571  68.343  1.00  0.00    -0.249 A  
HETATM   16  I   UNL     1     -11.617  10.853  69.094  1.00  0.00    -0.372 I  
HETATM   17  C   UNL     1      -9.359  14.457  67.877  1.00  0.00    -0.203 A  
HETATM   18  C   UNL     1     -11.736  14.078  68.461  1.00  0.00    -0.352 C  
BRANCH   9  19
HETATM   19  C   UNL     1      -8.334  10.364  68.816  1.00  0.00    -0.134 C  
HETATM   20  H   UNL     1      -7.449   9.412  70.278  1.00  0.00     0.000 HD 
HETATM   21  O   UNL     1      -7.682  10.287  69.990  1.00  0.00    -0.164 OA 
BRANCH  19  22
HETATM   22  N   UNL     1      -8.572   9.313  68.108  1.00  0.00    -0.124 NA 
HETATM   23  H   UNL     1      -8.768   8.408  68.536  1.00  0.00     0.000 HD 
BRANCH  22  24
HETATM   24  C   UNL     1      -8.545   9.497  66.642  1.00  0.00    -0.134 C  
BRANCH  24  25
HETATM   25  C   UNL     1      -9.501   8.486  65.996  1.00  0.00    -0.186 C  
HETATM   26  O   UNL     1      -9.665   7.352  66.844  1.00  0.00    -0.178 OA 
HETATM   27  H   UNL     1     -10.257   6.726  66.445  1.00  0.00     0.000 HD 
ENDBRANCH  24  25
ENDBRANCH  22  24
ENDBRANCH  19  22
ENDBRANCH   9  19
ENDBRANCH   5   7
ENDBRANCH   2   5
TORSDOF 6
ENDMDL
MODEL      148
REMARK 921   NORMALIZED FREE ENERGY PREDICTED BY IDOCK:   -2.82 KCAL/MOL
REMARK 922        TOTAL FREE ENERGY PREDICTED BY IDOCK:   -4.33 KCAL/MOL
REMARK 923 INTER-LIGAND FREE ENERGY PREDICTED BY IDOCK:   -4.20 KCAL/MOL
REMARK 924 INTRA-LIGAND FREE ENERGY PREDICTED BY IDOCK:   -0.13 KCAL/MOL
REMARK 927      BINDING AFFINITY PREDICTED BY RF-SCORE:    0.00 PKD
ROOT
HETATM    1  C   UNL     1     -13.017  10.508  71.296  1.00  0.00    -0.532 C  
HETATM    2  C   UNL     1     -12.257  10.881  70.061  1.00  0.00    -0.347 C  
HETATM    3  H   UNL     1     -11.303  12.375  69.274  1.00  0.00     0.000 HD 
HETATM    4  O   UNL     1     -11.785  12.139  70.058  1.00  0.00    -0.308 OA 
ENDROOT
BRANCH   2   5
HETATM    5  N   UNL     1     -12.068  10.040  69.095  1.00  0.00    -0.350 NA 
HETATM    6  H   UNL     1     -12.869   9.625  68.620  1.00  0.00     0.000 HD 
BRANCH   5   7
HETATM    7  C   UNL     1     -10.754   9.695  68.694  1.00  0.00    -0.201 A  
HETATM    8  C   UNL     1     -10.134   8.520  69.208  1.00  0.00    -0.202 A  
HETATM    9  C   UNL     1      -8.806   8.161  68.853  1.00  0.00    -0.141 A  
HETATM   10  I   UNL     1     -11.343   7.261  70.468  1.00  0.00    -0.242 I  
HETATM   11  C   UNL     1      -8.072   9.047  68.021  1.00  0.00    -0.105 A  
HETATM   12  O   UNL     1      -7.431  10.667  65.493  1.00  0.00    -0.138 OA 
HETATM   13  O   UNL     1      -7.862  12.332  66.963  1.00  0.00    -0.164 OA 
HETATM   14  I   UNL     1     -11.158  11.817  66.460  1.00  0.00    -0.287 I  
HETATM   15  C   UNL     1      -8.701  10.171  67.438  1.00  0.00    -0.125 A  
HETATM   16  I   UNL     1      -5.950   8.787  67.719  1.00  0.00    -0.048 I  
HETATM   17  C   UNL     1     -10.055  10.436  67.718  1.00  0.00    -0.181 A  
HETATM   18  C   UNL     1      -7.948  11.163  66.635  1.00  0.00    -0.159 C  
BRANCH   9  19
HETATM   19  C   UNL     1      -8.182   6.865  69.274  1.00  0.00    -0.125 C  
HETATM   20  H   UNL     1      -7.060   6.082  70.672  1.00  0.00     0.000 HD 
HETATM   21  O   UNL     1      -7.455   6.904  70.405  1.00  0.00    -0.082 OA 
BRANCH  19  22
HETATM   22  N   UNL     1      -8.282   5.786  68.575  1.00  0.00    -0.107 NA 
HETATM   23  H   UNL     1      -7.838   5.691  67.662  1.00  0.00     0.000 HD 
BRANCH  22  24
HETATM   24  C   UNL     1      -9.078   4.694  69.176  1.00  0.00    -0.117 C  
BRANCH  24  25
HETATM   25  C   UNL     1      -8.652   3.363  68.544  1.00  0.00    -0.092 C  
HETATM   26  O   UNL     1      -9.477   2.304  69.025  1.00  0.00    -0.144 OA 
HETATM   27  H   UNL     1      -9.213   1.479  68.634  1.00  0.00     0.000 HD 
ENDBRANCH  24  25
ENDBRANCH  22  24
ENDBRANCH  19  22
ENDBRANCH   9  19
ENDBRANCH   5   7
ENDBRANCH   2   5
TORSDOF 6
ENDMDL
MODEL      149
REMARK 921   NORMALIZED FREE ENERGY PREDICTED BY IDOCK:   -2.81 KCAL/MOL
REMARK 922        TOTAL FREE ENERGY PREDICTED BY IDOCK:   -4.32 KCAL/MOL
REMARK 923 INTER-LIGAND FREE ENERGY PREDICTED BY IDOCK:   -3.77 KCAL/MOL
REMARK 924 INTRA-LIGAND FREE ENERGY PREDICTED BY IDOCK:   -0.55 KCAL/MOL
REMARK 927      BINDING AFFINITY PREDICTED BY RF-SCORE:    0.00 PKD
ROOT
HETATM    1  C   UNL     1      -8.860  12.550  67.131  1.00  0.00    -0.202 C  
HETATM    2  C   UNL     1      -9.044  11.071  66.995  1.00  0.00    -0.147 C  
HETATM    3  H   UNL     1     -10.443   9.732  66.869  1.00  0.00     0.000 HD 
HETATM    4  O   UNL     1     -10.326  10.671  66.955  1.00  0.00    -0.210 OA 
ENDROOT
BRANCH   2   5
HETATM    5  N   UNL     1      -8.037  10.262  66.910  1.00  0.00    -0.118 NA 
HETATM    6  H   UNL     1      -7.122  10.617  66.636  1.00  0.00     0.000 HD 
BRANCH   5   7
HETATM    7  C   UNL     1      -8.201   8.883  67.196  1.00  0.00    -0.103 A  
HETATM    8  C   UNL     1      -8.267   7.935  66.135  1.00  0.00    -0.117 A  
HETATM    9  C   UNL     1      -8.463   6.549  66.384  1.00  0.00    -0.124 A  
HETATM   10  I   UNL     1      -7.952   8.689  64.144  1.00  0.00    -0.124 I  
HETATM   11  C   UNL     1      -8.668   6.132  67.725  1.00  0.00    -0.112 A  
HETATM   12  O   UNL     1      -7.987   5.727  70.692  1.00  0.00    -0.104 OA 
HETATM   13  O   UNL     1      -9.682   7.216  70.848  1.00  0.00    -0.171 OA 
HETATM   14  I   UNL     1      -7.487   9.672  70.116  1.00  0.00    -0.161 I  
HETATM   15  C   UNL     1      -8.522   7.049  68.792  1.00  0.00    -0.122 A  
HETATM   16  I   UNL     1      -9.332   4.128  68.177  1.00  0.00    -0.177 I  
HETATM   17  C   UNL     1      -8.212   8.394  68.520  1.00  0.00    -0.124 A  
HETATM   18  C   UNL     1      -8.811   6.672  70.196  1.00  0.00    -0.141 C  
BRANCH   9  19
HETATM   19  C   UNL     1      -8.402   5.520  65.297  1.00  0.00    -0.144 C  
HETATM   20  H   UNL     1      -7.152   4.332  64.375  1.00  0.00     0.000 HD 
HETATM   21  O   UNL     1      -7.190   4.984  65.063  1.00  0.00    -0.061 OA 
BRANCH  19  22
HETATM   22  N   UNL     1      -9.428   5.199  64.586  1.00  0.00    -0.350 NA 
HETATM   23  H   UNL     1     -10.367   5.522  64.816  1.00  0.00     0.000 HD 
BRANCH  22  24
HETATM   24  C   UNL     1      -9.162   4.334  63.416  1.00  0.00    -0.135 C  
BRANCH  24  25
HETATM   25  C   UNL     1     -10.446   3.577  63.056  1.00  0.00    -0.212 C  
HETATM   26  O   UNL     1     -11.167   3.237  64.238  1.00  0.00    -0.609 OA 
HETATM   27  H   UNL     1     -11.962   2.769  64.015  1.00  0.00     0.000 HD 
ENDBRANCH  24  25
ENDBRANCH  22  24
ENDBRANCH  19  22
ENDBRANCH   9  19
ENDBRANCH   5   7
ENDBRANCH   2   5
TORSDOF 6
ENDMDL
MODEL      150
REMARK 921   NORMALIZED FREE ENERGY PREDICTED BY IDOCK:   -2.79 KCAL/MOL
REMARK 922        TOTAL FREE ENERGY PREDICTED BY IDOCK:   -4.29 KCAL/MOL
REMARK 923 INTER-LIGAND FREE ENERGY PREDICTED BY IDOCK:   -3.75 KCAL/MOL
REMARK 924 INTRA-LIGAND FREE ENERGY PREDICTED BY IDOCK:   -0.54 KCAL/MOL
REMARK 927      BINDING AFFINITY PREDICTED BY RF-SCORE:    0.00 PKD
ROOT
HETATM    1  C   UNL     1     -10.614   4.558  65.552  1.00  0.00    -0.218 C  
HETATM    2  C   UNL     1     -10.244   5.517  66.641  1.00  0.00    -0.235 C  
HETATM    3  H   UNL     1     -10.994   6.966  67.690  1.00  0.00     0.000 HD 
HETATM    4  O   UNL     1     -11.229   6.358  66.999  1.00  0.00    -0.373 OA 
ENDROOT
BRANCH   2   5
HETATM    5  N   UNL     1      -9.071   5.510  67.188  1.00  0.00    -0.112 NA 
HETATM    6  H   UNL     1      -8.272   5.146  66.671  1.00  0.00     0.000 HD 
BRANCH   5   7
HETATM    7  C   UNL     1      -8.893   6.007  68.503  1.00  0.00    -0.112 A  
HETATM    8  C   UNL     1      -8.978   5.126  69.619  1.00  0.00    -0.106 A  
HETATM    9  C   UNL     1      -8.836   5.595  70.953  1.00  0.00    -0.147 A  
HETATM   10  I   UNL     1      -9.227   3.033  69.181  1.00  0.00    -0.122 I  
HETATM   11  C   UNL     1      -8.679   6.991  71.159  1.00  0.00    -0.137 A  
HETATM   12  O   UNL     1      -7.350   9.748  70.923  1.00  0.00    -0.321 OA 
HETATM   13  O   UNL     1      -9.244  10.090  69.735  1.00  0.00    -0.219 OA 
HETATM   14  I   UNL     1      -7.782   8.554  67.111  1.00  0.00    -0.097 I  
HETATM   15  C   UNL     1      -8.510   7.864  70.059  1.00  0.00    -0.134 A  
HETATM   16  I   UNL     1      -8.821   7.845  73.136  1.00  0.00    -0.335 I  
HETATM   17  C   UNL     1      -8.539   7.351  68.749  1.00  0.00    -0.129 A  
HETATM   18  C   UNL     1      -8.430   9.334  70.230  1.00  0.00    -0.203 C  
BRANCH   9  19
HETATM   19  C   UNL     1      -8.788   4.670  72.130  1.00  0.00    -0.123 C  
HETATM   20  H   UNL     1      -7.536   3.646  73.230  1.00  0.00     0.000 HD 
HETATM   21  O   UNL     1      -7.566   4.232  72.484  1.00  0.00    -0.074 OA 
BRANCH  19  22
HETATM   22  N   UNL     1      -9.849   4.267  72.741  1.00  0.00    -0.138 NA 
HETATM   23  H   UNL     1     -10.785   4.486  72.400  1.00  0.00     0.000 HD 
BRANCH  22  24
HETATM   24  C   UNL     1      -9.630   3.468  73.966  1.00  0.00    -0.096 C  
BRANCH  24  25
HETATM   25  C   UNL     1     -10.676   2.348  74.024  1.00  0.00    -0.169 C  
HETATM   26  O   UNL     1     -10.923   1.837  72.716  1.00  0.00    -0.151 OA 
HETATM   27  H   UNL     1     -11.570   1.143  72.752  1.00  0.00     0.000 HD 
ENDBRANCH  24  25
ENDBRANCH  22  24
ENDBRANCH  19  22
ENDBRANCH   9  19
ENDBRANCH   5   7
ENDBRANCH   2   5
TORSDOF 6
ENDMDL
MODEL      151
REMARK 921   NORMALIZED FREE ENERGY PREDICTED BY IDOCK:   -2.77 KCAL/MOL
REMARK 922        TOTAL FREE ENERGY PREDICTED BY IDOCK:   -4.26 KCAL/MOL
REMARK 923 INTER-LIGAND FREE ENERGY PREDICTED BY IDOCK:   -4.22 KCAL/MOL
REMARK 924 INTRA-LIGAND FREE ENERGY PREDICTED BY IDOCK:   -0.05 KCAL/MOL
REMARK 927      BINDING AFFINITY PREDICTED BY RF-SCORE:    0.00 PKD
ROOT
HETATM    1  C   UNL     1     -13.950   7.824  71.466  1.00  0.00    -0.468 C  
HETATM    2  C   UNL     1     -12.603   7.561  72.064  1.00  0.00    -0.237 C  
HETATM    3  H   UNL     1     -11.478   6.095  72.655  1.00  0.00     0.000 HD 
HETATM    4  O   UNL     1     -12.333   6.262  72.275  1.00  0.00    -0.268 OA 
ENDROOT
BRANCH   2   5
HETATM    5  N   UNL     1     -11.775   8.519  72.333  1.00  0.00    -0.377 NA 
HETATM    6  H   UNL     1     -11.991   9.182  73.078  1.00  0.00     0.000 HD 
BRANCH   5   7
HETATM    7  C   UNL     1     -10.571   8.652  71.599  1.00  0.00    -0.303 A  
HETATM    8  C   UNL     1     -10.503   9.545  70.490  1.00  0.00    -0.296 A  
HETATM    9  C   UNL     1      -9.322   9.679  69.712  1.00  0.00    -0.238 A  
HETATM   10  I   UNL     1     -12.243  10.755  70.117  1.00  0.00    -0.327 I  
HETATM   11  C   UNL     1      -8.218   8.841  70.019  1.00  0.00    -0.120 A  
HETATM   12  O   UNL     1      -5.965   7.654  71.735  1.00  0.00    -0.036 OA 
HETATM   13  O   UNL     1      -7.328   5.861  71.530  1.00  0.00    -0.084 OA 
HETATM   14  I   UNL     1      -9.258   7.147  73.980  1.00  0.00    -0.221 I  
HETATM   15  C   UNL     1      -8.243   8.013  71.165  1.00  0.00    -0.111 A  
HETATM   16  I   UNL     1      -6.524   8.702  68.689  1.00  0.00    -0.055 I  
HETATM   17  C   UNL     1      -9.387   7.988  71.985  1.00  0.00    -0.178 A  
HETATM   18  C   UNL     1      -7.147   7.062  71.471  1.00  0.00    -0.073 C  
BRANCH   9  19
HETATM   19  C   UNL     1      -9.184  10.705  68.629  1.00  0.00    -0.181 C  
HETATM   20  H   UNL     1      -8.422  12.471  68.274  1.00  0.00     0.000 HD 
HETATM   21  O   UNL     1      -8.509  11.821  68.960  1.00  0.00     0.031 OA 
BRANCH  19  22
HETATM   22  N   UNL     1      -9.721  10.564  67.466  1.00  0.00    -0.164 NA 
HETATM   23  H   UNL     1     -10.487  11.159  67.150  1.00  0.00     0.000 HD 
BRANCH  22  24
HETATM   24  C   UNL     1      -9.161   9.491  66.617  1.00  0.00    -0.152 C  
BRANCH  24  25
HETATM   25  C   UNL     1     -10.204   8.376  66.474  1.00  0.00    -0.207 C  
HETATM   26  O   UNL     1      -9.718   7.169  67.059  1.00  0.00    -0.150 OA 
HETATM   27  H   UNL     1     -10.364   6.478  66.971  1.00  0.00     0.000 HD 
ENDBRANCH  24  25
ENDBRANCH  22  24
ENDBRANCH  19  22
ENDBRANCH   9  19
ENDBRANCH   5   7
ENDBRANCH   2   5
TORSDOF 6
ENDMDL
MODEL      152
REMARK 921   NORMALIZED FREE ENERGY PREDICTED BY IDOCK:   -2.72 KCAL/MOL
REMARK 922        TOTAL FREE ENERGY PREDICTED BY IDOCK:   -4.20 KCAL/MOL
REMARK 923 INTER-LIGAND FREE ENERGY PREDICTED BY IDOCK:   -3.84 KCAL/MOL
REMARK 924 INTRA-LIGAND FREE ENERGY PREDICTED BY IDOCK:   -0.36 KCAL/MOL
REMARK 927      BINDING AFFINITY PREDICTED BY RF-SCORE:    0.00 PKD
ROOT
HETATM    1  C   UNL     1      -7.299   5.546  63.970  1.00  0.00    -0.058 C  
HETATM    2  C   UNL     1      -7.300   6.706  64.916  1.00  0.00    -0.080 C  
HETATM    3  H   UNL     1      -6.115   7.686  66.098  1.00  0.00     0.000 HD 
HETATM    4  O   UNL     1      -6.114   6.950  65.497  1.00  0.00    -0.034 OA 
ENDROOT
BRANCH   2   5
HETATM    5  N   UNL     1      -8.364   7.410  65.133  1.00  0.00    -0.260 NA 
HETATM    6  H   UNL     1      -8.896   7.780  64.346  1.00  0.00     0.000 HD 
BRANCH   5   7
HETATM    7  C   UNL     1      -8.793   7.670  66.458  1.00  0.00    -0.147 A  
HETATM    8  C   UNL     1      -8.522   8.930  67.065  1.00  0.00    -0.112 A  
HETATM    9  C   UNL     1      -8.909   9.212  68.403  1.00  0.00    -0.129 A  
HETATM   10  I   UNL     1      -7.589  10.420  65.822  1.00  0.00    -0.082 I  
HETATM   11  C   UNL     1      -9.515   8.174  69.158  1.00  0.00    -0.155 A  
HETATM   12  O   UNL     1     -11.626   6.060  69.866  1.00  0.00    -0.326 OA 
HETATM   13  O   UNL     1      -9.850   4.741  69.394  1.00  0.00    -0.186 OA 
HETATM   14  I   UNL     1     -10.540   5.122  66.113  1.00  0.00     0.163 I  
HETATM   15  C   UNL     1      -9.865   6.950  68.543  1.00  0.00    -0.144 A  
HETATM   16  I   UNL     1      -9.807   8.375  71.288  1.00  0.00    -0.336 I  
HETATM   17  C   UNL     1      -9.572   6.743  67.183  1.00  0.00    -0.144 A  
HETATM   18  C   UNL     1     -10.420   5.814  69.318  1.00  0.00    -0.287 C  
BRANCH   9  19
HETATM   19  C   UNL     1      -8.754  10.570  69.015  1.00  0.00    -0.156 C  
HETATM   20  H   UNL     1      -7.497  11.655  70.051  1.00  0.00     0.000 HD 
HETATM   21  O   UNL     1      -7.595  10.793  69.662  1.00  0.00    -0.131 OA 
BRANCH  19  22
HETATM   22  N   UNL     1      -9.686  11.460  68.980  1.00  0.00    -0.408 NA 
HETATM   23  H   UNL     1      -9.617  12.335  69.500  1.00  0.00     0.000 HD 
BRANCH  22  24
HETATM   24  C   UNL     1     -10.861  11.137  68.143  1.00  0.00    -0.219 C  
BRANCH  24  25
HETATM   25  C   UNL     1     -11.755  12.379  68.040  1.00  0.00    -0.356 C  
HETATM   26  O   UNL     1     -11.138  13.486  68.694  1.00  0.00    -0.247 OA 
HETATM   27  H   UNL     1     -11.691  14.255  68.630  1.00  0.00     0.000 HD 
ENDBRANCH  24  25
ENDBRANCH  22  24
ENDBRANCH  19  22
ENDBRANCH   9  19
ENDBRANCH   5   7
ENDBRANCH   2   5
TORSDOF 6
ENDMDL
MODEL      153
REMARK 921   NORMALIZED FREE ENERGY PREDICTED BY IDOCK:   -2.70 KCAL/MOL
REMARK 922        TOTAL FREE ENERGY PREDICTED BY IDOCK:   -4.16 KCAL/MOL
REMARK 923 INTER-LIGAND FREE ENERGY PREDICTED BY IDOCK:   -3.62 KCAL/MOL
REMARK 924 INTRA-LIGAND FREE ENERGY PREDICTED BY IDOCK:   -0.54 KCAL/MOL
REMARK 927      BINDING AFFINITY PREDICTED BY RF-SCORE:    0.00 PKD
ROOT
HETATM    1  C   UNL     1     -11.305  12.827  68.749  1.00  0.00    -0.332 C  
HETATM    2  C   UNL     1     -11.529  11.855  67.633  1.00  0.00    -0.317 C  
HETATM    3  H   UNL     1     -12.029  11.804  65.759  1.00  0.00     0.000 HD 
HETATM    4  O   UNL     1     -11.886  12.421  66.468  1.00  0.00    -0.491 OA 
ENDROOT
BRANCH   2   5
HETATM    5  N   UNL     1     -11.371  10.581  67.794  1.00  0.00    -0.526 NA 
HETATM    6  H   UNL     1     -12.083   9.934  67.455  1.00  0.00     0.000 HD 
BRANCH   5   7
HETATM    7  C   UNL     1     -10.214  10.079  68.440  1.00  0.00    -0.172 A  
HETATM    8  C   UNL     1     -10.309   9.517  69.746  1.00  0.00    -0.230 A  
HETATM    9  C   UNL     1      -9.165   9.035  70.436  1.00  0.00    -0.243 A  
HETATM   10  I   UNL     1     -12.286   9.341  70.579  1.00  0.00     0.326 I  
HETATM   11  C   UNL     1      -7.896   9.192  69.820  1.00  0.00    -0.088 A  
HETATM   12  O   UNL     1      -5.735   8.824  67.670  1.00  0.00    -0.038 OA 
HETATM   13  O   UNL     1      -6.158  11.036  67.467  1.00  0.00    -0.047 OA 
HETATM   14  I   UNL     1      -8.885  10.267  65.636  1.00  0.00    -0.241 I  
HETATM   15  C   UNL     1      -7.796   9.670  68.493  1.00  0.00    -0.085 A  
HETATM   16  I   UNL     1      -6.074   8.833  70.921  1.00  0.00    -0.058 I  
HETATM   17  C   UNL     1      -8.961  10.032  67.792  1.00  0.00    -0.131 A  
HETATM   18  C   UNL     1      -6.486   9.928  67.848  1.00  0.00    -0.059 C  
BRANCH   9  19
HETATM   19  C   UNL     1      -9.259   8.321  71.749  1.00  0.00    -0.198 C  
HETATM   20  H   UNL     1      -9.342   8.652  73.676  1.00  0.00     0.000 HD 
HETATM   21  O   UNL     1      -9.282   9.104  72.843  1.00  0.00     0.180 OA 
BRANCH  19  22
HETATM   22  N   UNL     1      -9.261   7.035  71.843  1.00  0.00    -0.141 NA 
HETATM   23  H   UNL     1      -8.530   6.461  71.422  1.00  0.00     0.000 HD 
BRANCH  22  24
HETATM   24  C   UNL     1     -10.386   6.441  72.598  1.00  0.00    -0.195 C  
BRANCH  24  25
HETATM   25  C   UNL     1      -9.834   5.756  73.854  1.00  0.00    -0.183 C  
HETATM   26  O   UNL     1     -10.869   5.031  74.515  1.00  0.00    -0.349 OA 
HETATM   27  H   UNL     1     -10.528   4.607  75.293  1.00  0.00     0.000 HD 
ENDBRANCH  24  25
ENDBRANCH  22  24
ENDBRANCH  19  22
ENDBRANCH   9  19
ENDBRANCH   5   7
ENDBRANCH   2   5
TORSDOF 6
ENDMDL
MODEL      154
REMARK 921   NORMALIZED FREE ENERGY PREDICTED BY IDOCK:   -2.66 KCAL/MOL
REMARK 922        TOTAL FREE ENERGY PREDICTED BY IDOCK:   -4.11 KCAL/MOL
REMARK 923 INTER-LIGAND FREE ENERGY PREDICTED BY IDOCK:   -4.32 KCAL/MOL
REMARK 924 INTRA-LIGAND FREE ENERGY PREDICTED BY IDOCK:    0.21 KCAL/MOL
REMARK 927      BINDING AFFINITY PREDICTED BY RF-SCORE:    0.00 PKD
ROOT
HETATM    1  C   UNL     1     -10.282   8.671  66.865  1.00  0.00    -0.367 C  
HETATM    2  C   UNL     1      -8.938   8.419  66.254  1.00  0.00    -0.174 C  
HETATM    3  H   UNL     1      -8.020   8.509  64.548  1.00  0.00     0.000 HD 
HETATM    4  O   UNL     1      -8.873   8.669  64.935  1.00  0.00    -0.145 OA 
ENDROOT
BRANCH   2   5
HETATM    5  N   UNL     1      -7.933   8.010  66.958  1.00  0.00    -0.107 NA 
HETATM    6  H   UNL     1      -6.985   8.115  66.599  1.00  0.00     0.000 HD 
BRANCH   5   7
HETATM    7  C   UNL     1      -8.144   7.414  68.227  1.00  0.00    -0.125 A  
HETATM    8  C   UNL     1      -8.104   8.211  69.407  1.00  0.00    -0.116 A  
HETATM    9  C   UNL     1      -8.279   7.642  70.698  1.00  0.00    -0.113 A  
HETATM   10  I   UNL     1      -7.869  10.333  69.133  1.00  0.00    -0.152 I  
HETATM   11  C   UNL     1      -8.424   6.233  70.795  1.00  0.00    -0.135 A  
HETATM   12  O   UNL     1      -9.710   3.487  70.314  1.00  0.00    -0.183 OA 
HETATM   13  O   UNL     1      -7.777   3.255  69.162  1.00  0.00    -0.051 OA 
HETATM   14  I   UNL     1      -9.180   4.967  66.616  1.00  0.00    -0.172 I  
HETATM   15  C   UNL     1      -8.549   5.443  69.629  1.00  0.00    -0.103 A  
HETATM   16  I   UNL     1      -8.330   5.235  72.707  1.00  0.00    -0.111 I  
HETATM   17  C   UNL     1      -8.488   6.052  68.362  1.00  0.00    -0.112 A  
HETATM   18  C   UNL     1      -8.615   3.963  69.688  1.00  0.00    -0.069 C  
BRANCH   9  19
HETATM   19  C   UNL     1      -8.374   8.476  71.939  1.00  0.00    -0.156 C  
HETATM   20  H   UNL     1      -7.265   9.434  73.234  1.00  0.00     0.000 HD 
HETATM   21  O   UNL     1      -7.205   8.906  72.448  1.00  0.00    -0.329 OA 
BRANCH  19  22
HETATM   22  N   UNL     1      -9.495   8.727  72.524  1.00  0.00    -0.294 NA 
HETATM   23  H   UNL     1      -9.570   8.794  73.539  1.00  0.00     0.000 HD 
BRANCH  22  24
HETATM   24  C   UNL     1     -10.664   8.911  71.638  1.00  0.00    -0.347 C  
BRANCH  24  25
HETATM   25  C   UNL     1     -11.766   7.932  72.059  1.00  0.00    -0.311 C  
HETATM   26  O   UNL     1     -12.642   8.551  72.999  1.00  0.00    -0.647 OA 
HETATM   27  H   UNL     1     -13.325   7.945  73.260  1.00  0.00     0.000 HD 
ENDBRANCH  24  25
ENDBRANCH  22  24
ENDBRANCH  19  22
ENDBRANCH   9  19
ENDBRANCH   5   7
ENDBRANCH   2   5
TORSDOF 6
ENDMDL
MODEL      155
REMARK 921   NORMALIZED FREE ENERGY PREDICTED BY IDOCK:   -2.64 KCAL/MOL
REMARK 922        TOTAL FREE ENERGY PREDICTED BY IDOCK:   -4.08 KCAL/MOL
REMARK 923 INTER-LIGAND FREE ENERGY PREDICTED BY IDOCK:   -4.18 KCAL/MOL
REMARK 924 INTRA-LIGAND FREE ENERGY PREDICTED BY IDOCK:    0.09 KCAL/MOL
REMARK 927      BINDING AFFINITY PREDICTED BY RF-SCORE:    0.00 PKD
ROOT
HETATM    1  C   UNL     1     -11.612  12.961  69.191  1.00  0.00    -0.375 C  
HETATM    2  C   UNL     1     -11.188  11.969  68.153  1.00  0.00    -0.260 C  
HETATM    3  H   UNL     1     -11.890  10.499  67.099  1.00  0.00     0.000 HD 
HETATM    4  O   UNL     1     -12.160  11.129  67.758  1.00  0.00    -0.606 OA 
ENDROOT
BRANCH   2   5
HETATM    5  N   UNL     1      -9.985  11.949  67.678  1.00  0.00    -0.187 NA 
HETATM    6  H   UNL     1      -9.346  12.717  67.881  1.00  0.00     0.000 HD 
BRANCH   5   7
HETATM    7  C   UNL     1      -9.550  10.864  66.876  1.00  0.00    -0.178 A  
HETATM    8  C   UNL     1      -9.121   9.650  67.485  1.00  0.00    -0.130 A  
HETATM    9  C   UNL     1      -8.649   8.554  66.714  1.00  0.00    -0.119 A  
HETATM   10  I   UNL     1      -9.319   9.520  69.625  1.00  0.00    -0.269 I  
HETATM   11  C   UNL     1      -8.543   8.721  65.308  1.00  0.00    -0.187 A  
HETATM   12  O   UNL     1      -9.520   9.251  62.446  1.00  0.00     0.015 OA 
HETATM   13  O   UNL     1      -8.251  11.089  62.805  1.00  0.00    -0.121 OA 
HETATM   14  I   UNL     1     -10.827  12.436  64.518  1.00  0.00    -0.467 I  
HETATM   15  C   UNL     1      -9.043   9.888  64.684  1.00  0.00    -0.288 A  
HETATM   16  I   UNL     1      -7.507   7.270  64.091  1.00  0.00    -0.110 I  
HETATM   17  C   UNL     1      -9.613  10.909  65.467  1.00  0.00    -0.221 A  
HETATM   18  C   UNL     1      -8.874  10.135  63.232  1.00  0.00    -0.231 C  
BRANCH   9  19
HETATM   19  C   UNL     1      -8.319   7.225  67.321  1.00  0.00    -0.119 C  
HETATM   20  H   UNL     1      -9.160   5.652  68.124  1.00  0.00     0.000 HD 
HETATM   21  O   UNL     1      -9.369   6.494  67.739  1.00  0.00    -0.120 OA 
BRANCH  19  22
HETATM   22  N   UNL     1      -7.107   6.819  67.490  1.00  0.00    -0.082 NA 
HETATM   23  H   UNL     1      -6.439   6.781  66.720  1.00  0.00     0.000 HD 
BRANCH  22  24
HETATM   24  C   UNL     1      -6.744   6.411  68.864  1.00  0.00    -0.060 C  
BRANCH  24  25
HETATM   25  C   UNL     1      -5.932   7.536  69.517  1.00  0.00    -0.030 C  
HETATM   26  O   UNL     1      -5.226   8.276  68.524  1.00  0.00    -0.031 OA 
HETATM   27  H   UNL     1      -4.723   8.973  68.929  1.00  0.00     0.000 HD 
ENDBRANCH  24  25
ENDBRANCH  22  24
ENDBRANCH  19  22
ENDBRANCH   9  19
ENDBRANCH   5   7
ENDBRANCH   2   5
TORSDOF 6
ENDMDL
MODEL      156
REMARK 921   NORMALIZED FREE ENERGY PREDICTED BY IDOCK:   -2.63 KCAL/MOL
REMARK 922        TOTAL FREE ENERGY PREDICTED BY IDOCK:   -4.07 KCAL/MOL
REMARK 923 INTER-LIGAND FREE ENERGY PREDICTED BY IDOCK:   -3.56 KCAL/MOL
REMARK 924 INTRA-LIGAND FREE ENERGY PREDICTED BY IDOCK:   -0.51 KCAL/MOL
REMARK 927      BINDING AFFINITY PREDICTED BY RF-SCORE:    0.00 PKD
ROOT
HETATM    1  C   UNL     1      -9.682  12.823  68.176  1.00  0.00    -0.223 C  
HETATM    2  C   UNL     1      -9.979  11.374  68.407  1.00  0.00    -0.204 C  
HETATM    3  H   UNL     1     -11.420  10.086  68.237  1.00  0.00     0.000 HD 
HETATM    4  O   UNL     1     -11.231  11.005  68.090  1.00  0.00    -0.253 OA 
ENDROOT
BRANCH   2   5
HETATM    5  N   UNL     1      -9.084  10.557  68.863  1.00  0.00    -0.169 NA 
HETATM    6  H   UNL     1      -8.358  10.899  69.492  1.00  0.00     0.000 HD 
BRANCH   5   7
HETATM    7  C   UNL     1      -9.108   9.190  68.491  1.00  0.00    -0.132 A  
HETATM    8  C   UNL     1      -8.401   8.749  67.336  1.00  0.00    -0.109 A  
HETATM    9  C   UNL     1      -8.429   7.392  66.916  1.00  0.00    -0.123 A  
HETATM   10  I   UNL     1      -7.203  10.219  66.317  1.00  0.00    -0.134 I  
HETATM   11  C   UNL     1      -9.248   6.484  67.639  1.00  0.00    -0.113 A  
HETATM   12  O   UNL     1     -10.232   4.892  70.073  1.00  0.00    -0.264 OA 
HETATM   13  O   UNL     1     -11.987   6.280  69.739  1.00  0.00    -0.185 OA 
HETATM   14  I   UNL     1     -10.270   8.707  71.333  1.00  0.00    -0.406 I  
HETATM   15  C   UNL     1      -9.887   6.889  68.833  1.00  0.00    -0.147 A  
HETATM   16  I   UNL     1      -9.649   4.504  66.880  1.00  0.00    -0.235 I  
HETATM   17  C   UNL     1      -9.745   8.214  69.287  1.00  0.00    -0.170 A  
HETATM   18  C   UNL     1     -10.816   5.997  69.568  1.00  0.00    -0.369 C  
BRANCH   9  19
HETATM   19  C   UNL     1      -7.589   6.881  65.786  1.00  0.00    -0.091 C  
HETATM   20  H   UNL     1      -7.565   6.728  63.836  1.00  0.00     0.000 HD 
HETATM   21  O   UNL     1      -8.098   7.052  64.552  1.00  0.00    -0.128 OA 
BRANCH  19  22
HETATM   22  N   UNL     1      -6.473   6.264  65.973  1.00  0.00    -0.045 NA 
HETATM   23  H   UNL     1      -6.240   5.828  66.866  1.00  0.00     0.000 HD 
BRANCH  22  24
HETATM   24  C   UNL     1      -5.550   6.226  64.818  1.00  0.00    -0.022 C  
BRANCH  24  25
HETATM   25  C   UNL     1      -5.393   4.772  64.356  1.00  0.00    -0.013 C  
HETATM   26  O   UNL     1      -5.831   3.879  65.378  1.00  0.00    -0.021 OA 
HETATM   27  H   UNL     1      -5.734   2.979  65.091  1.00  0.00     0.000 HD 
ENDBRANCH  24  25
ENDBRANCH  22  24
ENDBRANCH  19  22
ENDBRANCH   9  19
ENDBRANCH   5   7
ENDBRANCH   2   5
TORSDOF 6
ENDMDL
MODEL      157
REMARK 921   NORMALIZED FREE ENERGY PREDICTED BY IDOCK:   -2.62 KCAL/MOL
REMARK 922        TOTAL FREE ENERGY PREDICTED BY IDOCK:   -4.06 KCAL/MOL
REMARK 923 INTER-LIGAND FREE ENERGY PREDICTED BY IDOCK:   -4.11 KCAL/MOL
REMARK 924 INTRA-LIGAND FREE ENERGY PREDICTED BY IDOCK:    0.04 KCAL/MOL
REMARK 927      BINDING AFFINITY PREDICTED BY RF-SCORE:    0.00 PKD
ROOT
HETATM    1  C   UNL     1      -6.720  15.730  67.797  1.00  0.00    -0.178 C  
HETATM    2  C   UNL     1      -7.201  14.477  68.461  1.00  0.00    -0.120 C  
HETATM    3  H   UNL     1      -7.626  13.771  70.217  1.00  0.00     0.000 HD 
HETATM    4  O   UNL     1      -7.321  14.567  69.796  1.00  0.00    -0.084 OA 
ENDROOT
BRANCH   2   5
HETATM    5  N   UNL     1      -7.484  13.411  67.784  1.00  0.00    -0.143 NA 
HETATM    6  H   UNL     1      -7.247  13.360  66.794  1.00  0.00     0.000 HD 
BRANCH   5   7
HETATM    7  C   UNL     1      -8.122  12.313  68.414  1.00  0.00    -0.151 A  
HETATM    8  C   UNL     1      -7.345  11.288  69.026  1.00  0.00    -0.115 A  
HETATM    9  C   UNL     1      -7.951  10.157  69.637  1.00  0.00    -0.181 A  
HETATM   10  I   UNL     1      -5.214  11.586  69.070  1.00  0.00    -0.042 I  
HETATM   11  C   UNL     1      -9.363  10.031  69.561  1.00  0.00    -0.229 A  
HETATM   12  O   UNL     1     -12.297  10.816  70.014  1.00  0.00    -0.320 OA 
HETATM   13  O   UNL     1     -12.149  11.017  67.766  1.00  0.00    -0.534 OA 
HETATM   14  I   UNL     1     -10.703  14.033  68.210  1.00  0.00    -0.295 I  
HETATM   15  C   UNL     1     -10.150  11.080  69.032  1.00  0.00    -0.197 A  
HETATM   16  I   UNL     1     -10.347   8.195  70.128  1.00  0.00    -0.235 I  
HETATM   17  C   UNL     1      -9.526  12.240  68.538  1.00  0.00    -0.112 A  
HETATM   18  C   UNL     1     -11.617  10.949  68.858  1.00  0.00    -0.309 C  
BRANCH   9  19
HETATM   19  C   UNL     1      -7.164   9.137  70.401  1.00  0.00    -0.084 C  
HETATM   20  H   UNL     1      -6.154   7.479  70.160  1.00  0.00     0.000 HD 
HETATM   21  O   UNL     1      -6.653   8.126  69.675  1.00  0.00    -0.037 OA 
BRANCH  19  22
HETATM   22  N   UNL     1      -7.024   9.183  71.682  1.00  0.00    -0.301 NA 
HETATM   23  H   UNL     1      -6.563   9.964  72.147  1.00  0.00     0.000 HD 
BRANCH  22  24
HETATM   24  C   UNL     1      -7.572   8.035  72.437  1.00  0.00    -0.112 C  
BRANCH  24  25
HETATM   25  C   UNL     1      -6.705   7.797  73.679  1.00  0.00    -0.091 C  
HETATM   26  O   UNL     1      -6.096   9.017  74.096  1.00  0.00    -0.238 OA 
HETATM   27  H   UNL     1      -5.559   8.870  74.865  1.00  0.00     0.000 HD 
ENDBRANCH  24  25
ENDBRANCH  22  24
ENDBRANCH  19  22
ENDBRANCH   9  19
ENDBRANCH   5   7
ENDBRANCH   2   5
TORSDOF 6
ENDMDL
MODEL      158
REMARK 921   NORMALIZED FREE ENERGY PREDICTED BY IDOCK:   -2.56 KCAL/MOL
REMARK 922        TOTAL FREE ENERGY PREDICTED BY IDOCK:   -3.97 KCAL/MOL
REMARK 923 INTER-LIGAND FREE ENERGY PREDICTED BY IDOCK:   -5.56 KCAL/MOL
REMARK 924 INTRA-LIGAND FREE ENERGY PREDICTED BY IDOCK:    1.59 KCAL/MOL
REMARK 927      BINDING AFFINITY PREDICTED BY RF-SCORE:    0.00 PKD
ROOT
HETATM    1  C   UNL     1      -7.234   6.999  66.641  1.00  0.00    -0.083 C  
HETATM    2  C   UNL     1      -8.163   6.967  65.468  1.00  0.00    -0.135 C  
HETATM    3  H   UNL     1      -8.199   6.493  63.587  1.00  0.00     0.000 HD 
HETATM    4  O   UNL     1      -7.609   6.512  64.332  1.00  0.00    -0.084 OA 
ENDROOT
BRANCH   2   5
HETATM    5  N   UNL     1      -9.400   7.338  65.565  1.00  0.00    -0.270 NA 
HETATM    6  H   UNL     1     -10.063   7.090  64.831  1.00  0.00     0.000 HD 
BRANCH   5   7
HETATM    7  C   UNL     1      -9.836   8.086  66.686  1.00  0.00    -0.252 A  
HETATM    8  C   UNL     1      -9.994   7.453  67.953  1.00  0.00    -0.165 A  
HETATM    9  C   UNL     1     -10.459   8.166  69.091  1.00  0.00    -0.217 A  
HETATM   10  I   UNL     1      -9.394   5.390  68.083  1.00  0.00    -0.167 I  
HETATM   11  C   UNL     1     -10.840   9.523  68.921  1.00  0.00    -0.150 A  
HETATM   12  O   UNL     1     -10.474  12.494  68.236  1.00  0.00    -0.221 OA 
HETATM   13  O   UNL     1     -11.873  11.848  66.580  1.00  0.00    -0.579 OA 
HETATM   14  I   UNL     1      -9.215  10.578  64.936  1.00  0.00    -0.326 I  
HETATM   15  C   UNL     1     -10.610  10.185  67.693  1.00  0.00    -0.316 A  
HETATM   16  I   UNL     1     -11.893  10.584  70.478  1.00  0.00    -0.468 I  
HETATM   17  C   UNL     1     -10.037   9.481  66.617  1.00  0.00    -0.252 A  
HETATM   18  C   UNL     1     -11.070  11.573  67.451  1.00  0.00    -0.282 C  
BRANCH   9  19
HETATM   19  C   UNL     1     -10.506   7.557  70.458  1.00  0.00    -0.219 C  
HETATM   20  H   UNL     1      -9.403   7.260  72.047  1.00  0.00     0.000 HD 
HETATM   21  O   UNL     1      -9.374   7.647  71.180  1.00  0.00    -0.153 OA 
BRANCH  19  22
HETATM   22  N   UNL     1     -11.541   6.933  70.907  1.00  0.00    -0.318 NA 
HETATM   23  H   UNL     1     -11.884   6.075  70.475  1.00  0.00     0.000 HD 
BRANCH  22  24
HETATM   24  C   UNL     1     -12.203   7.536  72.084  1.00  0.00    -0.248 C  
BRANCH  24  25
HETATM   25  C   UNL     1     -13.713   7.285  71.988  1.00  0.00    -0.112 C  
HETATM   26  O   UNL     1     -14.229   7.840  70.781  1.00  0.00    -0.547 OA 
HETATM   27  H   UNL     1     -15.164   7.685  70.721  1.00  0.00     0.000 HD 
ENDBRANCH  24  25
ENDBRANCH  22  24
ENDBRANCH  19  22
ENDBRANCH   9  19
ENDBRANCH   5   7
ENDBRANCH   2   5
TORSDOF 6
ENDMDL
MODEL      159
REMARK 921   NORMALIZED FREE ENERGY PREDICTED BY IDOCK:   -2.39 KCAL/MOL
REMARK 922        TOTAL FREE ENERGY PREDICTED BY IDOCK:   -3.75 KCAL/MOL
REMARK 923 INTER-LIGAND FREE ENERGY PREDICTED BY IDOCK:   -3.96 KCAL/MOL
REMARK 924 INTRA-LIGAND FREE ENERGY PREDICTED BY IDOCK:    0.21 KCAL/MOL
REMARK 927      BINDING AFFINITY PREDICTED BY RF-SCORE:    0.00 PKD
ROOT
HETATM    1  C   UNL     1      -9.675  10.351  67.744  1.00  0.00    -0.181 C  
HETATM    2  C   UNL     1      -8.190  10.443  67.578  1.00  0.00    -0.114 C  
HETATM    3  H   UNL     1      -6.814  11.676  66.985  1.00  0.00     0.000 HD 
HETATM    4  O   UNL     1      -7.757  11.618  67.091  1.00  0.00    -0.144 OA 
ENDROOT
BRANCH   2   5
HETATM    5  N   UNL     1      -7.405   9.465  67.896  1.00  0.00    -0.083 NA 
HETATM    6  H   UNL     1      -6.434   9.653  68.144  1.00  0.00     0.000 HD 
BRANCH   5   7
HETATM    7  C   UNL     1      -7.888   8.133  67.901  1.00  0.00    -0.122 A  
HETATM    8  C   UNL     1      -8.280   7.517  69.125  1.00  0.00    -0.131 A  
HETATM    9  C   UNL     1      -8.739   6.173  69.171  1.00  0.00    -0.121 A  
HETATM   10  I   UNL     1      -8.242   8.756  70.884  1.00  0.00    -0.227 I  
HETATM   11  C   UNL     1      -8.729   5.421  67.967  1.00  0.00    -0.106 A  
HETATM   12  O   UNL     1      -9.479   4.709  65.076  1.00  0.00    -0.159 OA 
HETATM   13  O   UNL     1      -7.287   5.212  64.832  1.00  0.00    -0.065 OA 
HETATM   14  I   UNL     1      -8.119   8.481  64.821  1.00  0.00    -0.130 I  
HETATM   15  C   UNL     1      -8.423   6.042  66.734  1.00  0.00    -0.110 A  
HETATM   16  I   UNL     1      -9.054   3.287  67.988  1.00  0.00    -0.233 I  
HETATM   17  C   UNL     1      -8.085   7.408  66.706  1.00  0.00    -0.123 A  
HETATM   18  C   UNL     1      -8.320   5.273  65.471  1.00  0.00    -0.130 C  
BRANCH   9  19
HETATM   19  C   UNL     1      -9.281   5.550  70.420  1.00  0.00    -0.151 C  
HETATM   20  H   UNL     1      -8.709   4.765  72.119  1.00  0.00     0.000 HD 
HETATM   21  O   UNL     1      -8.365   5.160  71.326  1.00  0.00    -0.114 OA 
BRANCH  19  22
HETATM   22  N   UNL     1     -10.540   5.344  70.605  1.00  0.00    -0.256 NA 
HETATM   23  H   UNL     1     -10.884   4.527  71.111  1.00  0.00     0.000 HD 
BRANCH  22  24
HETATM   24  C   UNL     1     -11.455   6.359  70.041  1.00  0.00    -0.428 C  
BRANCH  24  25
HETATM   25  C   UNL     1     -12.290   6.961  71.178  1.00  0.00    -0.370 C  
HETATM   26  O   UNL     1     -12.440   8.366  70.989  1.00  0.00    -0.465 OA 
HETATM   27  H   UNL     1     -12.958   8.739  71.692  1.00  0.00     0.000 HD 
ENDBRANCH  24  25
ENDBRANCH  22  24
ENDBRANCH  19  22
ENDBRANCH   9  19
ENDBRANCH   5   7
ENDBRANCH   2   5
TORSDOF 6
ENDMDL
MODEL      160
REMARK 921   NORMALIZED FREE ENERGY PREDICTED BY IDOCK:   -2.38 KCAL/MOL
REMARK 922        TOTAL FREE ENERGY PREDICTED BY IDOCK:   -3.73 KCAL/MOL
REMARK 923 INTER-LIGAND FREE ENERGY PREDICTED BY IDOCK:   -3.75 KCAL/MOL
REMARK 924 INTRA-LIGAND FREE ENERGY PREDICTED BY IDOCK:    0.01 KCAL/MOL
REMARK 927      BINDING AFFINITY PREDICTED BY RF-SCORE:    0.00 PKD
ROOT
HETATM    1  C   UNL     1     -11.669  10.135  71.047  1.00  0.00    -0.470 C  
HETATM    2  C   UNL     1     -11.467  10.246  69.568  1.00  0.00    -0.210 C  
HETATM    3  H   UNL     1     -10.592   9.335  68.096  1.00  0.00     0.000 HD 
HETATM    4  O   UNL     1     -10.720   9.265  69.034  1.00  0.00    -0.218 OA 
ENDROOT
BRANCH   2   5
HETATM    5  N   UNL     1     -11.988  11.208  68.877  1.00  0.00    -0.493 NA 
HETATM    6  H   UNL     1     -12.839  11.044  68.339  1.00  0.00     0.000 HD 
BRANCH   5   7
HETATM    7  C   UNL     1     -11.383  12.489  68.865  1.00  0.00    -0.297 A  
HETATM    8  C   UNL     1     -10.486  12.847  67.818  1.00  0.00    -0.220 A  
HETATM    9  C   UNL     1      -9.837  14.111  67.792  1.00  0.00    -0.231 A  
HETATM   10  I   UNL     1     -10.241  11.421  66.225  1.00  0.00    -0.311 I  
HETATM   11  C   UNL     1     -10.046  14.995  68.883  1.00  0.00    -0.234 A  
HETATM   12  O   UNL     1     -11.642  16.779  70.805  1.00  0.00     0.041 OA 
HETATM   13  O   UNL     1     -10.984  15.131  72.208  1.00  0.00    -0.157 OA 
HETATM   14  I   UNL     1     -13.500  13.222  71.020  1.00  0.00     0.838 I  
HETATM   15  C   UNL     1     -10.997  14.687  69.883  1.00  0.00    -0.194 A  
HETATM   16  I   UNL     1      -8.839  16.768  69.124  1.00  0.00     0.264 I  
HETATM   17  C   UNL     1     -11.711  13.476  69.819  1.00  0.00    -0.295 A  
HETATM   18  C   UNL     1     -11.181  15.542  71.080  1.00  0.00    -0.370 C  
BRANCH   9  19
HETATM   19  C   UNL     1      -8.996  14.560  66.636  1.00  0.00    -0.219 C  
HETATM   20  H   UNL     1      -7.137  14.653  66.033  1.00  0.00     0.000 HD 
HETATM   21  O   UNL     1      -7.670  14.369  66.766  1.00  0.00     0.146 OA 
BRANCH  19  22
HETATM   22  N   UNL     1      -9.492  15.145  65.600  1.00  0.00    -0.431 NA 
HETATM   23  H   UNL     1      -9.871  14.618  64.813  1.00  0.00     0.000 HD 
BRANCH  22  24
HETATM   24  C   UNL     1      -9.480  16.623  65.620  1.00  0.00     0.083 C  
BRANCH  24  25
HETATM   25  C   UNL     1     -10.927  17.132  65.612  1.00  0.00     0.080 C  
HETATM   26  O   UNL     1     -11.333  17.442  64.281  1.00  0.00    -0.849 OA 
HETATM   27  H   UNL     1     -12.229  17.757  64.276  1.00  0.00     0.000 HD 
ENDBRANCH  24  25
ENDBRANCH  22  24
ENDBRANCH  19  22
ENDBRANCH   9  19
ENDBRANCH   5   7
ENDBRANCH   2   5
TORSDOF 6
ENDMDL
MODEL      161
REMARK 921   NORMALIZED FREE ENERGY PREDICTED BY IDOCK:   -2.37 KCAL/MOL
REMARK 922        TOTAL FREE ENERGY PREDICTED BY IDOCK:   -3.72 KCAL/MOL
REMARK 923 INTER-LIGAND FREE ENERGY PREDICTED BY IDOCK:   -3.69 KCAL/MOL
REMARK 924 INTRA-LIGAND FREE ENERGY PREDICTED BY IDOCK:   -0.03 KCAL/MOL
REMARK 927      BINDING AFFINITY PREDICTED BY RF-SCORE:    0.00 PKD
ROOT
HETATM    1  C   UNL     1      -8.090   5.909  65.188  1.00  0.00    -0.131 C  
HETATM    2  C   UNL     1      -8.394   6.188  66.627  1.00  0.00    -0.111 C  
HETATM    3  H   UNL     1      -9.837   6.797  67.771  1.00  0.00     0.000 HD 
HETATM    4  O   UNL     1      -9.645   6.620  66.858  1.00  0.00    -0.146 OA 
ENDROOT
BRANCH   2   5
HETATM    5  N   UNL     1      -7.513   6.008  67.559  1.00  0.00    -0.081 NA 
HETATM    6  H   UNL     1      -6.534   5.866  67.311  1.00  0.00     0.000 HD 
BRANCH   5   7
HETATM    7  C   UNL     1      -7.903   6.006  68.921  1.00  0.00    -0.096 A  
HETATM    8  C   UNL     1      -7.863   7.212  69.679  1.00  0.00    -0.118 A  
HETATM    9  C   UNL     1      -8.216   7.240  71.055  1.00  0.00    -0.107 A  
HETATM   10  I   UNL     1      -7.339   9.007  68.612  1.00  0.00    -0.077 I  
HETATM   11  C   UNL     1      -8.545   6.013  71.688  1.00  0.00    -0.131 A  
HETATM   12  O   UNL     1     -10.123   3.426  72.184  1.00  0.00    -0.164 OA 
HETATM   13  O   UNL     1      -8.145   2.585  71.480  1.00  0.00    -0.050 OA 
HETATM   14  I   UNL     1      -9.101   3.205  68.305  1.00  0.00    -0.231 I  
HETATM   15  C   UNL     1      -8.671   4.826  70.930  1.00  0.00    -0.135 A  
HETATM   16  I   UNL     1      -8.740   5.886  73.834  1.00  0.00    -0.127 I  
HETATM   17  C   UNL     1      -8.427   4.853  69.544  1.00  0.00    -0.083 A  
HETATM   18  C   UNL     1      -8.928   3.512  71.566  1.00  0.00    -0.104 C  
BRANCH   9  19
HETATM   19  C   UNL     1      -8.309   8.515  71.836  1.00  0.00    -0.156 C  
HETATM   20  H   UNL     1      -7.244   9.707  72.964  1.00  0.00     0.000 HD 
HETATM   21  O   UNL     1      -7.185   8.899  72.469  1.00  0.00    -0.335 OA 
BRANCH  19  22
HETATM   22  N   UNL     1      -9.406   9.184  71.948  1.00  0.00    -0.316 NA 
HETATM   23  H   UNL     1      -9.441  10.087  72.421  1.00  0.00     0.000 HD 
BRANCH  22  24
HETATM   24  C   UNL     1     -10.608   8.566  71.350  1.00  0.00    -0.245 C  
BRANCH  24  25
HETATM   25  C   UNL     1     -11.325   9.608  70.483  1.00  0.00    -0.296 C  
HETATM   26  O   UNL     1     -10.444  10.688  70.181  1.00  0.00    -0.450 OA 
HETATM   27  H   UNL     1     -10.887  11.333  69.644  1.00  0.00     0.000 HD 
ENDBRANCH  24  25
ENDBRANCH  22  24
ENDBRANCH  19  22
ENDBRANCH   9  19
ENDBRANCH   5   7
ENDBRANCH   2   5
TORSDOF 6
ENDMDL
MODEL      162
REMARK 921   NORMALIZED FREE ENERGY PREDICTED BY IDOCK:   -2.26 KCAL/MOL
REMARK 922        TOTAL FREE ENERGY PREDICTED BY IDOCK:   -3.57 KCAL/MOL
REMARK 923 INTER-LIGAND FREE ENERGY PREDICTED BY IDOCK:   -3.41 KCAL/MOL
REMARK 924 INTRA-LIGAND FREE ENERGY PREDICTED BY IDOCK:   -0.16 KCAL/MOL
REMARK 927      BINDING AFFINITY PREDICTED BY RF-SCORE:    0.00 PKD
ROOT
HETATM    1  C   UNL     1      -9.059   3.431  64.754  1.00  0.00    -0.136 C  
HETATM    2  C   UNL     1      -9.489   4.651  65.508  1.00  0.00    -0.173 C  
HETATM    3  H   UNL     1     -11.092   5.587  66.070  1.00  0.00     0.000 HD 
HETATM    4  O   UNL     1     -10.820   4.812  65.592  1.00  0.00    -0.274 OA 
ENDROOT
BRANCH   2   5
HETATM    5  N   UNL     1      -8.632   5.463  66.039  1.00  0.00    -0.122 NA 
HETATM    6  H   UNL     1      -7.722   5.600  65.600  1.00  0.00     0.000 HD 
BRANCH   5   7
HETATM    7  C   UNL     1      -8.953   6.164  67.228  1.00  0.00    -0.112 A  
HETATM    8  C   UNL     1      -8.924   5.493  68.484  1.00  0.00    -0.110 A  
HETATM    9  C   UNL     1      -9.271   6.156  69.692  1.00  0.00    -0.148 A  
HETATM   10  I   UNL     1      -8.229   3.456  68.476  1.00  0.00    -0.104 I  
HETATM   11  C   UNL     1      -9.724   7.499  69.613  1.00  0.00    -0.167 A  
HETATM   12  O   UNL     1      -9.569  10.499  68.977  1.00  0.00    -0.187 OA 
HETATM   13  O   UNL     1     -11.139   9.833  67.491  1.00  0.00    -0.234 OA 
HETATM   14  I   UNL     1      -8.660   8.724  65.489  1.00  0.00    -0.197 I  
HETATM   15  C   UNL     1      -9.678   8.201  68.386  1.00  0.00    -0.172 A  
HETATM   16  I   UNL     1     -10.615   8.474  71.321  1.00  0.00    -0.378 I  
HETATM   17  C   UNL     1      -9.218   7.550  67.226  1.00  0.00    -0.131 A  
HETATM   18  C   UNL     1     -10.222   9.573  68.246  1.00  0.00    -0.193 C  
BRANCH   9  19
HETATM   19  C   UNL     1      -9.119   5.512  71.036  1.00  0.00    -0.144 C  
HETATM   20  H   UNL     1     -10.079   4.388  72.319  1.00  0.00     0.000 HD 
HETATM   21  O   UNL     1     -10.175   4.797  71.467  1.00  0.00    -0.200 OA 
BRANCH  19  22
HETATM   22  N   UNL     1      -8.071   5.670  71.769  1.00  0.00    -0.117 NA 
HETATM   23  H   UNL     1      -7.905   6.527  72.297  1.00  0.00     0.000 HD 
BRANCH  22  24
HETATM   24  C   UNL     1      -7.123   4.535  71.801  1.00  0.00    -0.055 C  
BRANCH  24  25
HETATM   25  C   UNL     1      -5.699   5.082  71.958  1.00  0.00    -0.016 C  
HETATM   26  O   UNL     1      -5.725   6.343  72.622  1.00  0.00    -0.036 OA 
HETATM   27  H   UNL     1      -4.843   6.682  72.720  1.00  0.00     0.000 HD 
ENDBRANCH  24  25
ENDBRANCH  22  24
ENDBRANCH  19  22
ENDBRANCH   9  19
ENDBRANCH   5   7
ENDBRANCH   2   5
TORSDOF 6
ENDMDL
MODEL      163
REMARK 921   NORMALIZED FREE ENERGY PREDICTED BY IDOCK:   -2.25 KCAL/MOL
REMARK 922        TOTAL FREE ENERGY PREDICTED BY IDOCK:   -3.56 KCAL/MOL
REMARK 923 INTER-LIGAND FREE ENERGY PREDICTED BY IDOCK:   -3.53 KCAL/MOL
REMARK 924 INTRA-LIGAND FREE ENERGY PREDICTED BY IDOCK:   -0.03 KCAL/MOL
REMARK 927      BINDING AFFINITY PREDICTED BY RF-SCORE:    0.00 PKD
ROOT
HETATM    1  C   UNL     1      -8.368   9.379  62.757  1.00  0.00    -0.181 C  
HETATM    2  C   UNL     1      -8.347   9.265  64.249  1.00  0.00    -0.177 C  
HETATM    3  H   UNL     1      -7.237   9.708  65.778  1.00  0.00     0.000 HD 
HETATM    4  O   UNL     1      -7.251   9.781  64.830  1.00  0.00    -0.116 OA 
ENDROOT
BRANCH   2   5
HETATM    5  N   UNL     1      -9.320   8.723  64.907  1.00  0.00    -0.370 NA 
HETATM    6  H   UNL     1     -10.243   8.649  64.480  1.00  0.00     0.000 HD 
BRANCH   5   7
HETATM    7  C   UNL     1      -9.110   8.231  66.219  1.00  0.00    -0.188 A  
HETATM    8  C   UNL     1      -8.488   6.965  66.419  1.00  0.00    -0.130 A  
HETATM    9  C   UNL     1      -8.291   6.427  67.719  1.00  0.00    -0.118 A  
HETATM   10  I   UNL     1      -7.768   5.955  64.660  1.00  0.00    -0.114 I  
HETATM   11  C   UNL     1      -8.800   7.152  68.828  1.00  0.00    -0.130 A  
HETATM   12  O   UNL     1      -9.098   9.526  70.753  1.00  0.00    -0.231 OA 
HETATM   13  O   UNL     1     -11.131   9.529  69.761  1.00  0.00    -0.234 OA 
HETATM   14  I   UNL     1      -9.757  11.132  67.130  1.00  0.00    -0.218 I  
HETATM   15  C   UNL     1      -9.343   8.446  68.652  1.00  0.00    -0.143 A  
HETATM   16  I   UNL     1      -8.880   6.264  70.794  1.00  0.00    -0.149 I  
HETATM   17  C   UNL     1      -9.419   9.002  67.361  1.00  0.00    -0.144 A  
HETATM   18  C   UNL     1      -9.961   9.197  69.771  1.00  0.00    -0.193 C  
BRANCH   9  19
HETATM   19  C   UNL     1      -7.522   5.164  67.959  1.00  0.00    -0.076 C  
HETATM   20  H   UNL     1      -5.749   4.520  68.479  1.00  0.00     0.000 HD 
HETATM   21  O   UNL     1      -6.237   5.320  68.326  1.00  0.00    -0.031 OA 
BRANCH  19  22
HETATM   22  N   UNL     1      -8.031   3.994  67.776  1.00  0.00    -0.089 NA 
HETATM   23  H   UNL     1      -8.681   3.802  67.013  1.00  0.00     0.000 HD 
BRANCH  22  24
HETATM   24  C   UNL     1      -7.617   2.948  68.735  1.00  0.00    -0.048 C  
BRANCH  24  25
HETATM   25  C   UNL     1      -8.721   1.886  68.819  1.00  0.00    -0.077 C  
HETATM   26  O   UNL     1      -9.767   2.188  67.898  1.00  0.00    -0.380 OA 
HETATM   27  H   UNL     1     -10.450   1.531  67.950  1.00  0.00     0.000 HD 
ENDBRANCH  24  25
ENDBRANCH  22  24
ENDBRANCH  19  22
ENDBRANCH   9  19
ENDBRANCH   5   7
ENDBRANCH   2   5
TORSDOF 6
ENDMDL
MODEL      164
REMARK 921   NORMALIZED FREE ENERGY PREDICTED BY IDOCK:   -2.24 KCAL/MOL
REMARK 922        TOTAL FREE ENERGY PREDICTED BY IDOCK:   -3.55 KCAL/MOL
REMARK 923 INTER-LIGAND FREE ENERGY PREDICTED BY IDOCK:   -3.78 KCAL/MOL
REMARK 924 INTRA-LIGAND FREE ENERGY PREDICTED BY IDOCK:    0.23 KCAL/MOL
REMARK 927      BINDING AFFINITY PREDICTED BY RF-SCORE:    0.00 PKD
ROOT
HETATM    1  C   UNL     1      -9.971  15.028  68.038  1.00  0.00    -0.219 C  
HETATM    2  C   UNL     1      -9.634  14.741  66.608  1.00  0.00    -0.272 C  
HETATM    3  H   UNL     1     -10.129  15.271  64.809  1.00  0.00     0.000 HD 
HETATM    4  O   UNL     1     -10.343  15.454  65.716  1.00  0.00    -0.310 OA 
ENDROOT
BRANCH   2   5
HETATM    5  N   UNL     1      -8.722  13.884  66.280  1.00  0.00    -0.364 NA 
HETATM    6  H   UNL     1      -8.204  14.002  65.410  1.00  0.00     0.000 HD 
BRANCH   5   7
HETATM    7  C   UNL     1      -8.439  12.782  67.125  1.00  0.00    -0.181 A  
HETATM    8  C   UNL     1      -9.223  11.595  67.041  1.00  0.00    -0.183 A  
HETATM    9  C   UNL     1      -8.988  10.484  67.895  1.00  0.00    -0.137 A  
HETATM   10  I   UNL     1     -10.714  11.530  65.489  1.00  0.00    -0.239 I  
HETATM   11  C   UNL     1      -7.990  10.608  68.896  1.00  0.00    -0.132 A  
HETATM   12  O   UNL     1      -5.170  11.029  70.036  1.00  0.00    -0.046 OA 
HETATM   13  O   UNL     1      -6.207  12.899  70.774  1.00  0.00    -0.125 OA 
HETATM   14  I   UNL     1      -5.767  14.255  67.717  1.00  0.00     0.216 I  
HETATM   15  C   UNL     1      -7.150  11.745  68.936  1.00  0.00    -0.114 A  
HETATM   16  I   UNL     1      -7.801   9.136  70.465  1.00  0.00    -0.175 I  
HETATM   17  C   UNL     1      -7.332  12.780  68.001  1.00  0.00    -0.117 A  
HETATM   18  C   UNL     1      -6.156  11.948  70.017  1.00  0.00    -0.153 C  
BRANCH   9  19
HETATM   19  C   UNL     1      -9.710   9.181  67.736  1.00  0.00    -0.154 C  
HETATM   20  H   UNL     1      -9.535   7.419  66.903  1.00  0.00     0.000 HD 
HETATM   21  O   UNL     1      -9.078   8.245  67.004  1.00  0.00    -0.137 OA 
BRANCH  19  22
HETATM   22  N   UNL     1     -10.888   8.974  68.218  1.00  0.00    -0.454 NA 
HETATM   23  H   UNL     1     -11.722   8.992  67.631  1.00  0.00     0.000 HD 
BRANCH  22  24
HETATM   24  C   UNL     1     -10.958   8.710  69.671  1.00  0.00    -0.091 C  
BRANCH  24  25
HETATM   25  C   UNL     1     -11.054   7.196  69.897  1.00  0.00    -0.235 C  
HETATM   26  O   UNL     1     -10.234   6.505  68.957  1.00  0.00    -0.160 OA 
HETATM   27  H   UNL     1     -10.294   5.567  69.097  1.00  0.00     0.000 HD 
ENDBRANCH  24  25
ENDBRANCH  22  24
ENDBRANCH  19  22
ENDBRANCH   9  19
ENDBRANCH   5   7
ENDBRANCH   2   5
TORSDOF 6
ENDMDL
MODEL      165
REMARK 921   NORMALIZED FREE ENERGY PREDICTED BY IDOCK:   -2.20 KCAL/MOL
REMARK 922        TOTAL FREE ENERGY PREDICTED BY IDOCK:   -3.49 KCAL/MOL
REMARK 923 INTER-LIGAND FREE ENERGY PREDICTED BY IDOCK:   -3.96 KCAL/MOL
REMARK 924 INTRA-LIGAND FREE ENERGY PREDICTED BY IDOCK:    0.47 KCAL/MOL
REMARK 927      BINDING AFFINITY PREDICTED BY RF-SCORE:    0.00 PKD
ROOT
HETATM    1  C   UNL     1     -12.660  12.009  64.428  1.00  0.00    -0.292 C  
HETATM    2  C   UNL     1     -11.874  12.971  63.592  1.00  0.00    -0.516 C  
HETATM    3  H   UNL     1     -12.119  14.335  62.234  1.00  0.00     0.000 HD 
HETATM    4  O   UNL     1     -12.618  13.725  62.765  1.00  0.00    -0.447 OA 
ENDROOT
BRANCH   2   5
HETATM    5  N   UNL     1     -10.586  13.062  63.683  1.00  0.00    -0.512 NA 
HETATM    6  H   UNL     1     -10.051  13.479  62.922  1.00  0.00     0.000 HD 
BRANCH   5   7
HETATM    7  C   UNL     1      -9.915  12.585  64.836  1.00  0.00    -0.167 A  
HETATM    8  C   UNL     1     -10.029  13.284  66.072  1.00  0.00    -0.292 A  
HETATM    9  C   UNL     1      -9.345  12.852  67.240  1.00  0.00    -0.212 A  
HETATM   10  I   UNL     1     -11.370  14.967  66.109  1.00  0.00    -0.049 I  
HETATM   11  C   UNL     1      -8.475  11.736  67.132  1.00  0.00    -0.170 A  
HETATM   12  O   UNL     1      -7.673   8.823  66.584  1.00  0.00    -0.091 OA 
HETATM   13  O   UNL     1      -6.600   9.880  64.897  1.00  0.00    -0.105 OA 
HETATM   14  I   UNL     1      -9.515   9.971  63.203  1.00  0.00     0.306 I  
HETATM   15  C   UNL     1      -8.417  10.984  65.936  1.00  0.00    -0.140 A  
HETATM   16  I   UNL     1      -7.121  11.223  68.733  1.00  0.00    -0.112 I  
HETATM   17  C   UNL     1      -9.197  11.370  64.830  1.00  0.00    -0.031 A  
HETATM   18  C   UNL     1      -7.460   9.866  65.757  1.00  0.00    -0.110 C  
BRANCH   9  19
HETATM   19  C   UNL     1      -9.554  13.491  68.578  1.00  0.00    -0.151 C  
HETATM   20  H   UNL     1     -10.737  13.444  70.136  1.00  0.00     0.000 HD 
HETATM   21  O   UNL     1     -10.605  13.039  69.287  1.00  0.00    -0.037 OA 
BRANCH  19  22
HETATM   22  N   UNL     1      -8.816  14.455  69.012  1.00  0.00    -0.369 NA 
HETATM   23  H   UNL     1      -8.895  14.809  69.965  1.00  0.00     0.000 HD 
BRANCH  22  24
HETATM   24  C   UNL     1      -7.846  15.015  68.047  1.00  0.00    -0.125 C  
BRANCH  24  25
HETATM   25  C   UNL     1      -8.071  16.528  67.939  1.00  0.00    -0.163 C  
HETATM   26  O   UNL     1      -8.501  17.054  69.192  1.00  0.00    -0.173 OA 
HETATM   27  H   UNL     1      -8.640  17.991  69.125  1.00  0.00     0.000 HD 
ENDBRANCH  24  25
ENDBRANCH  22  24
ENDBRANCH  19  22
ENDBRANCH   9  19
ENDBRANCH   5   7
ENDBRANCH   2   5
TORSDOF 6
ENDMDL
MODEL      166
REMARK 921   NORMALIZED FREE ENERGY PREDICTED BY IDOCK:   -2.19 KCAL/MOL
REMARK 922        TOTAL FREE ENERGY PREDICTED BY IDOCK:   -3.47 KCAL/MOL
REMARK 923 INTER-LIGAND FREE ENERGY PREDICTED BY IDOCK:   -3.44 KCAL/MOL
REMARK 924 INTRA-LIGAND FREE ENERGY PREDICTED BY IDOCK:   -0.03 KCAL/MOL
REMARK 927      BINDING AFFINITY PREDICTED BY RF-SCORE:    0.00 PKD
ROOT
HETATM    1  C   UNL     1      -9.950  12.298  68.221  1.00  0.00    -0.216 C  
HETATM    2  C   UNL     1      -9.878  10.825  68.477  1.00  0.00    -0.177 C  
HETATM    3  H   UNL     1     -11.028   9.285  68.742  1.00  0.00     0.000 HD 
HETATM    4  O   UNL     1     -11.074  10.220  68.579  1.00  0.00    -0.248 OA 
ENDROOT
BRANCH   2   5
HETATM    5  N   UNL     1      -8.748  10.202  68.574  1.00  0.00    -0.119 NA 
HETATM    6  H   UNL     1      -7.899  10.722  68.797  1.00  0.00     0.000 HD 
BRANCH   5   7
HETATM    7  C   UNL     1      -8.683   8.801  68.373  1.00  0.00    -0.135 A  
HETATM    8  C   UNL     1      -8.795   7.913  69.481  1.00  0.00    -0.142 A  
HETATM    9  C   UNL     1      -8.703   6.504  69.320  1.00  0.00    -0.130 A  
HETATM   10  I   UNL     1      -9.214   8.803  71.396  1.00  0.00    -0.245 I  
HETATM   11  C   UNL     1      -8.420   5.995  68.026  1.00  0.00    -0.115 A  
HETATM   12  O   UNL     1      -8.873   5.479  65.033  1.00  0.00    -0.136 OA 
HETATM   13  O   UNL     1      -7.045   6.808  64.959  1.00  0.00    -0.059 OA 
HETATM   14  I   UNL     1      -9.067   9.478  65.364  1.00  0.00    -0.290 I  
HETATM   15  C   UNL     1      -8.390   6.858  66.906  1.00  0.00    -0.114 A  
HETATM   16  I   UNL     1      -7.901   3.919  67.736  1.00  0.00    -0.077 I  
HETATM   17  C   UNL     1      -8.601   8.238  67.082  1.00  0.00    -0.123 A  
HETATM   18  C   UNL     1      -8.014   6.377  65.554  1.00  0.00    -0.116 C  
BRANCH   9  19
HETATM   19  C   UNL     1      -8.950   5.547  70.446  1.00  0.00    -0.139 C  
HETATM   20  H   UNL     1      -8.040   4.650  71.928  1.00  0.00     0.000 HD 
HETATM   21  O   UNL     1      -7.884   5.257  71.214  1.00  0.00    -0.101 OA 
BRANCH  19  22
HETATM   22  N   UNL     1     -10.094   4.987  70.645  1.00  0.00    -0.234 NA 
HETATM   23  H   UNL     1     -10.826   4.986  69.934  1.00  0.00     0.000 HD 
BRANCH  22  24
HETATM   24  C   UNL     1     -10.283   4.344  71.963  1.00  0.00    -0.163 C  
BRANCH  24  25
HETATM   25  C   UNL     1     -10.531   5.432  73.015  1.00  0.00    -0.211 C  
HETATM   26  O   UNL     1      -9.868   5.100  74.233  1.00  0.00    -0.153 OA 
HETATM   27  H   UNL     1     -10.022   5.774  74.884  1.00  0.00     0.000 HD 
ENDBRANCH  24  25
ENDBRANCH  22  24
ENDBRANCH  19  22
ENDBRANCH   9  19
ENDBRANCH   5   7
ENDBRANCH   2   5
TORSDOF 6
ENDMDL
MODEL      167
REMARK 921   NORMALIZED FREE ENERGY PREDICTED BY IDOCK:   -2.16 KCAL/MOL
REMARK 922        TOTAL FREE ENERGY PREDICTED BY IDOCK:   -3.44 KCAL/MOL
REMARK 923 INTER-LIGAND FREE ENERGY PREDICTED BY IDOCK:   -3.63 KCAL/MOL
REMARK 924 INTRA-LIGAND FREE ENERGY PREDICTED BY IDOCK:    0.19 KCAL/MOL
REMARK 927      BINDING AFFINITY PREDICTED BY RF-SCORE:    0.00 PKD
ROOT
HETATM    1  C   UNL     1     -12.828  11.213  69.867  1.00  0.00     0.057 C  
HETATM    2  C   UNL     1     -11.537  10.892  69.181  1.00  0.00    -0.319 C  
HETATM    3  H   UNL     1      -9.767  11.627  68.881  1.00  0.00     0.000 HD 
HETATM    4  O   UNL     1     -10.586  11.831  69.317  1.00  0.00    -0.141 OA 
ENDROOT
BRANCH   2   5
HETATM    5  N   UNL     1     -11.367   9.788  68.527  1.00  0.00    -0.508 NA 
HETATM    6  H   UNL     1     -12.151   9.368  68.027  1.00  0.00     0.000 HD 
BRANCH   5   7
HETATM    7  C   UNL     1     -10.097   9.160  68.502  1.00  0.00    -0.191 A  
HETATM    8  C   UNL     1      -9.210   9.381  67.409  1.00  0.00    -0.126 A  
HETATM    9  C   UNL     1      -7.943   8.743  67.336  1.00  0.00    -0.098 A  
HETATM   10  I   UNL     1      -9.840  10.810  65.928  1.00  0.00    -0.342 I  
HETATM   11  C   UNL     1      -7.603   7.810  68.351  1.00  0.00    -0.109 A  
HETATM   12  O   UNL     1      -7.014   6.825  71.198  1.00  0.00    -0.067 OA 
HETATM   13  O   UNL     1      -8.934   5.714  70.757  1.00  0.00    -0.139 OA 
HETATM   14  I   UNL     1     -10.640   8.529  71.497  1.00  0.00    -0.416 I  
HETATM   15  C   UNL     1      -8.436   7.644  69.481  1.00  0.00    -0.132 A  
HETATM   16  I   UNL     1      -5.881   6.524  68.147  1.00  0.00    -0.018 I  
HETATM   17  C   UNL     1      -9.632   8.379  69.582  1.00  0.00    -0.163 A  
HETATM   18  C   UNL     1      -8.159   6.620  70.517  1.00  0.00    -0.117 C  
BRANCH   9  19
HETATM   19  C   UNL     1      -6.941   9.062  66.269  1.00  0.00    -0.079 C  
HETATM   20  H   UNL     1      -5.333  10.126  65.939  1.00  0.00     0.000 HD 
HETATM   21  O   UNL     1      -5.968   9.924  66.616  1.00  0.00    -0.053 OA 
BRANCH  19  22
HETATM   22  N   UNL     1      -7.027   8.591  65.072  1.00  0.00    -0.075 NA 
HETATM   23  H   UNL     1      -6.669   9.101  64.264  1.00  0.00     0.000 HD 
BRANCH  22  24
HETATM   24  C   UNL     1      -7.674   7.268  64.939  1.00  0.00    -0.117 C  
BRANCH  24  25
HETATM   25  C   UNL     1      -7.826   6.937  63.449  1.00  0.00    -0.101 C  
HETATM   26  O   UNL     1      -8.508   7.993  62.776  1.00  0.00    -0.375 OA 
HETATM   27  H   UNL     1      -8.603   7.788  61.854  1.00  0.00     0.000 HD 
ENDBRANCH  24  25
ENDBRANCH  22  24
ENDBRANCH  19  22
ENDBRANCH   9  19
ENDBRANCH   5   7
ENDBRANCH   2   5
TORSDOF 6
ENDMDL
MODEL      168
REMARK 921   NORMALIZED FREE ENERGY PREDICTED BY IDOCK:   -2.03 KCAL/MOL
REMARK 922        TOTAL FREE ENERGY PREDICTED BY IDOCK:   -3.26 KCAL/MOL
REMARK 923 INTER-LIGAND FREE ENERGY PREDICTED BY IDOCK:   -3.34 KCAL/MOL
REMARK 924 INTRA-LIGAND FREE ENERGY PREDICTED BY IDOCK:    0.07 KCAL/MOL
REMARK 927      BINDING AFFINITY PREDICTED BY RF-SCORE:    0.00 PKD
ROOT
HETATM    1  C   UNL     1     -10.005   9.281  70.785  1.00  0.00    -0.357 C  
HETATM    2  C   UNL     1      -9.788   8.182  69.792  1.00  0.00    -0.187 C  
HETATM    3  H   UNL     1     -10.706   7.234  68.371  1.00  0.00     0.000 HD 
HETATM    4  O   UNL     1     -10.844   7.932  69.000  1.00  0.00    -0.143 OA 
ENDROOT
BRANCH   2   5
HETATM    5  N   UNL     1      -8.663   7.547  69.711  1.00  0.00    -0.140 NA 
HETATM    6  H   UNL     1      -8.048   7.498  70.523  1.00  0.00     0.000 HD 
BRANCH   5   7
HETATM    7  C   UNL     1      -8.281   6.921  68.499  1.00  0.00    -0.121 A  
HETATM    8  C   UNL     1      -8.517   5.529  68.306  1.00  0.00    -0.097 A  
HETATM    9  C   UNL     1      -8.118   4.863  67.116  1.00  0.00    -0.107 A  
HETATM   10  I   UNL     1      -9.598   4.509  69.862  1.00  0.00    -0.278 I  
HETATM   11  C   UNL     1      -7.404   5.605  66.139  1.00  0.00    -0.078 A  
HETATM   12  O   UNL     1      -6.926   7.826  64.074  1.00  0.00    -0.062 OA 
HETATM   13  O   UNL     1      -5.433   8.407  65.671  1.00  0.00    -0.031 OA 
HETATM   14  I   UNL     1      -7.959   9.814  67.409  1.00  0.00    -0.100 I  
HETATM   15  C   UNL     1      -7.238   7.003  66.280  1.00  0.00    -0.075 A  
HETATM   16  I   UNL     1      -6.442   4.619  64.478  1.00  0.00    -0.041 I  
HETATM   17  C   UNL     1      -7.747   7.656  67.418  1.00  0.00    -0.117 A  
HETATM   18  C   UNL     1      -6.427   7.796  65.326  1.00  0.00    -0.041 C  
BRANCH   9  19
HETATM   19  C   UNL     1      -8.473   3.435  66.837  1.00  0.00    -0.107 C  
HETATM   20  H   UNL     1      -7.786   1.613  67.034  1.00  0.00     0.000 HD 
HETATM   21  O   UNL     1      -7.561   2.519  67.212  1.00  0.00    -0.060 OA 
BRANCH  19  22
HETATM   22  N   UNL     1      -9.556   3.094  66.225  1.00  0.00    -0.401 NA 
HETATM   23  H   UNL     1      -9.953   2.159  66.312  1.00  0.00     0.000 HD 
BRANCH  22  24
HETATM   24  C   UNL     1     -10.187   4.139  65.391  1.00  0.00    -0.177 C  
BRANCH  24  25
HETATM   25  C   UNL     1     -10.551   3.535  64.029  1.00  0.00    -0.239 C  
HETATM   26  O   UNL     1     -10.246   4.456  62.984  1.00  0.00    -0.378 OA 
HETATM   27  H   UNL     1     -10.471   4.082  62.141  1.00  0.00     0.000 HD 
ENDBRANCH  24  25
ENDBRANCH  22  24
ENDBRANCH  19  22
ENDBRANCH   9  19
ENDBRANCH   5   7
ENDBRANCH   2   5
TORSDOF 6
ENDMDL
MODEL      169
REMARK 921   NORMALIZED FREE ENERGY PREDICTED BY IDOCK:   -2.02 KCAL/MOL
REMARK 922        TOTAL FREE ENERGY PREDICTED BY IDOCK:   -3.25 KCAL/MOL
REMARK 923 INTER-LIGAND FREE ENERGY PREDICTED BY IDOCK:   -3.56 KCAL/MOL
REMARK 924 INTRA-LIGAND FREE ENERGY PREDICTED BY IDOCK:    0.31 KCAL/MOL
REMARK 927      BINDING AFFINITY PREDICTED BY RF-SCORE:    0.00 PKD
ROOT
HETATM    1  C   UNL     1     -12.530  11.779  70.808  1.00  0.00    -0.405 C  
HETATM    2  C   UNL     1     -11.617  11.169  69.791  1.00  0.00    -0.334 C  
HETATM    3  H   UNL     1      -9.863  11.419  69.000  1.00  0.00     0.000 HD 
HETATM    4  O   UNL     1     -10.443  11.806  69.646  1.00  0.00     0.153 OA 
ENDROOT
BRANCH   2   5
HETATM    5  N   UNL     1     -11.945  10.108  69.128  1.00  0.00    -0.508 NA 
HETATM    6  H   UNL     1     -12.853  10.057  68.666  1.00  0.00     0.000 HD 
BRANCH   5   7
HETATM    7  C   UNL     1     -11.048   9.014  69.039  1.00  0.00     0.136 A  
HETATM    8  C   UNL     1     -10.212   8.864  67.895  1.00  0.00    -0.222 A  
HETATM    9  C   UNL     1      -9.325   7.763  67.759  1.00  0.00    -0.155 A  
HETATM   10  I   UNL     1     -10.284  10.442  66.432  1.00  0.00    -0.215 I  
HETATM   11  C   UNL     1      -9.340   6.762  68.765  1.00  0.00    -0.132 A  
HETATM   12  O   UNL     1      -9.045   5.590  71.588  1.00  0.00    -0.141 OA 
HETATM   13  O   UNL     1     -11.274   5.370  71.271  1.00  0.00    -0.082 OA 
HETATM   14  I   UNL     1     -11.630   8.629  72.068  1.00  0.00    -0.389 I  
HETATM   15  C   UNL     1     -10.102   6.940  69.943  1.00  0.00    -0.200 A  
HETATM   16  I   UNL     1      -8.312   4.885  68.482  1.00  0.00    -0.090 I  
HETATM   17  C   UNL     1     -10.883   8.099  70.101  1.00  0.00    -0.241 A  
HETATM   18  C   UNL     1     -10.210   5.881  70.975  1.00  0.00    -0.211 C  
BRANCH   9  19
HETATM   19  C   UNL     1      -8.343   7.655  66.633  1.00  0.00    -0.127 C  
HETATM   20  H   UNL     1      -8.124   6.864  64.857  1.00  0.00     0.000 HD 
HETATM   21  O   UNL     1      -8.746   6.932  65.571  1.00  0.00    -0.124 OA 
BRANCH  19  22
HETATM   22  N   UNL     1      -7.163   8.170  66.686  1.00  0.00    -0.080 NA 
HETATM   23  H   UNL     1      -6.628   8.384  65.844  1.00  0.00     0.000 HD 
BRANCH  22  24
HETATM   24  C   UNL     1      -6.630   8.433  68.040  1.00  0.00    -0.058 C  
BRANCH  24  25
HETATM   25  C   UNL     1      -6.328   9.930  68.173  1.00  0.00    -0.055 C  
HETATM   26  O   UNL     1      -7.331  10.568  68.961  1.00  0.00    -0.084 OA 
HETATM   27  H   UNL     1      -7.144  11.495  69.043  1.00  0.00     0.000 HD 
ENDBRANCH  24  25
ENDBRANCH  22  24
ENDBRANCH  19  22
ENDBRANCH   9  19
ENDBRANCH   5   7
ENDBRANCH   2   5
TORSDOF 6
ENDMDL
MODEL      170
REMARK 921   NORMALIZED FREE ENERGY PREDICTED BY IDOCK:   -2.02 KCAL/MOL
REMARK 922        TOTAL FREE ENERGY PREDICTED BY IDOCK:   -3.24 KCAL/MOL
REMARK 923 INTER-LIGAND FREE ENERGY PREDICTED BY IDOCK:   -3.97 KCAL/MOL
REMARK 924 INTRA-LIGAND FREE ENERGY PREDICTED BY IDOCK:    0.72 KCAL/MOL
REMARK 927      BINDING AFFINITY PREDICTED BY RF-SCORE:    0.00 PKD
ROOT
HETATM    1  C   UNL     1     -12.404  14.956  69.210  1.00  0.00    -0.138 C  
HETATM    2  C   UNL     1     -11.387  14.052  68.586  1.00  0.00    -0.276 C  
HETATM    3  H   UNL     1     -11.076  13.022  66.972  1.00  0.00     0.000 HD 
HETATM    4  O   UNL     1     -11.722  13.596  67.368  1.00  0.00    -0.337 OA 
ENDROOT
BRANCH   2   5
HETATM    5  N   UNL     1     -10.277  13.757  69.183  1.00  0.00    -0.431 NA 
HETATM    6  H   UNL     1      -9.985  14.289  70.003  1.00  0.00     0.000 HD 
BRANCH   5   7
HETATM    7  C   UNL     1      -9.466  12.700  68.703  1.00  0.00     0.005 A  
HETATM    8  C   UNL     1      -9.921  11.352  68.788  1.00  0.00    -0.177 A  
HETATM    9  C   UNL     1      -9.121  10.265  68.345  1.00  0.00    -0.136 A  
HETATM   10  I   UNL     1     -11.922  11.053  69.522  1.00  0.00    -0.277 I  
HETATM   11  C   UNL     1      -7.809  10.545  67.879  1.00  0.00    -0.105 A  
HETATM   12  O   UNL     1      -5.661  11.788  66.072  1.00  0.00    -0.170 OA 
HETATM   13  O   UNL     1      -5.244  12.859  68.020  1.00  0.00    -0.078 OA 
HETATM   14  I   UNL     1      -7.807  14.942  67.332  1.00  0.00    -0.152 I  
HETATM   15  C   UNL     1      -7.377  11.881  67.711  1.00  0.00    -0.109 A  
HETATM   16  I   UNL     1      -6.391   8.955  67.530  1.00  0.00    -0.057 I  
HETATM   17  C   UNL     1      -8.238  12.941  68.050  1.00  0.00    -0.168 A  
HETATM   18  C   UNL     1      -5.989  12.212  67.309  1.00  0.00    -0.152 C  
BRANCH   9  19
HETATM   19  C   UNL     1      -9.629   8.857  68.301  1.00  0.00    -0.146 C  
HETATM   20  H   UNL     1     -10.882   7.705  67.335  1.00  0.00     0.000 HD 
HETATM   21  O   UNL     1     -10.560   8.598  67.363  1.00  0.00    -0.274 OA 
BRANCH  19  22
HETATM   22  N   UNL     1      -9.250   7.953  69.138  1.00  0.00    -0.145 NA 
HETATM   23  H   UNL     1      -8.285   7.625  69.177  1.00  0.00     0.000 HD 
BRANCH  22  24
HETATM   24  C   UNL     1     -10.295   7.422  70.039  1.00  0.00    -0.219 C  
BRANCH  24  25
HETATM   25  C   UNL     1      -9.702   7.251  71.443  1.00  0.00    -0.164 C  
HETATM   26  O   UNL     1      -9.578   8.518  72.084  1.00  0.00    -0.262 OA 
HETATM   27  H   UNL     1      -9.211   8.412  72.953  1.00  0.00     0.000 HD 
ENDBRANCH  24  25
ENDBRANCH  22  24
ENDBRANCH  19  22
ENDBRANCH   9  19
ENDBRANCH   5   7
ENDBRANCH   2   5
TORSDOF 6
ENDMDL
MODEL      171
REMARK 921   NORMALIZED FREE ENERGY PREDICTED BY IDOCK:   -1.91 KCAL/MOL
REMARK 922        TOTAL FREE ENERGY PREDICTED BY IDOCK:   -3.10 KCAL/MOL
REMARK 923 INTER-LIGAND FREE ENERGY PREDICTED BY IDOCK:   -3.21 KCAL/MOL
REMARK 924 INTRA-LIGAND FREE ENERGY PREDICTED BY IDOCK:    0.11 KCAL/MOL
REMARK 927      BINDING AFFINITY PREDICTED BY RF-SCORE:    0.00 PKD
ROOT
HETATM    1  C   UNL     1      -8.139   2.223  66.862  1.00  0.00    -0.077 C  
HETATM    2  C   UNL     1      -7.942   3.685  67.116  1.00  0.00    -0.087 C  
HETATM    3  H   UNL     1      -6.603   4.936  67.754  1.00  0.00     0.000 HD 
HETATM    4  O   UNL     1      -6.728   4.008  67.592  1.00  0.00    -0.045 OA 
ENDROOT
BRANCH   2   5
HETATM    5  N   UNL     1      -8.873   4.552  66.875  1.00  0.00    -0.111 NA 
HETATM    6  H   UNL     1      -9.809   4.236  66.623  1.00  0.00     0.000 HD 
BRANCH   5   7
HETATM    7  C   UNL     1      -8.597   5.939  66.959  1.00  0.00    -0.110 A  
HETATM    8  C   UNL     1      -8.735   6.622  68.202  1.00  0.00    -0.117 A  
HETATM    9  C   UNL     1      -8.498   8.019  68.316  1.00  0.00    -0.123 A  
HETATM   10  I   UNL     1      -9.221   5.417  69.918  1.00  0.00    -0.216 I  
HETATM   11  C   UNL     1      -8.187   8.744  67.136  1.00  0.00    -0.104 A  
HETATM   12  O   UNL     1      -6.581   9.512  64.634  1.00  0.00    -0.085 OA 
HETATM   13  O   UNL     1      -8.468   8.698  63.690  1.00  0.00    -0.156 OA 
HETATM   14  I   UNL     1      -7.271   5.581  64.171  1.00  0.00    -0.061 I  
HETATM   15  C   UNL     1      -7.964   8.067  65.915  1.00  0.00    -0.107 A  
HETATM   16  I   UNL     1      -8.167  10.903  67.131  1.00  0.00    -0.139 I  
HETATM   17  C   UNL     1      -8.093   6.666  65.859  1.00  0.00    -0.126 A  
HETATM   18  C   UNL     1      -7.722   8.795  64.646  1.00  0.00    -0.119 C  
BRANCH   9  19
HETATM   19  C   UNL     1      -8.508   8.732  69.634  1.00  0.00    -0.129 C  
HETATM   20  H   UNL     1      -7.308   9.419  71.018  1.00  0.00     0.000 HD 
HETATM   21  O   UNL     1      -7.302   8.967  70.183  1.00  0.00    -0.050 OA 
BRANCH  19  22
HETATM   22  N   UNL     1      -9.598   9.055  70.241  1.00  0.00    -0.185 NA 
HETATM   23  H   UNL     1      -9.654   9.106  71.259  1.00  0.00     0.000 HD 
BRANCH  22  24
HETATM   24  C   UNL     1     -10.761   9.350  69.377  1.00  0.00    -0.217 C  
BRANCH  24  25
HETATM   25  C   UNL     1     -11.652  10.382  70.078  1.00  0.00    -0.301 C  
HETATM   26  O   UNL     1     -12.939   9.825  70.339  1.00  0.00    -0.545 OA 
HETATM   27  H   UNL     1     -13.491  10.464  70.773  1.00  0.00     0.000 HD 
ENDBRANCH  24  25
ENDBRANCH  22  24
ENDBRANCH  19  22
ENDBRANCH   9  19
ENDBRANCH   5   7
ENDBRANCH   2   5
TORSDOF 6
ENDMDL
MODEL      172
REMARK 921   NORMALIZED FREE ENERGY PREDICTED BY IDOCK:   -1.87 KCAL/MOL
REMARK 922        TOTAL FREE ENERGY PREDICTED BY IDOCK:   -3.05 KCAL/MOL
REMARK 923 INTER-LIGAND FREE ENERGY PREDICTED BY IDOCK:   -2.89 KCAL/MOL
REMARK 924 INTRA-LIGAND FREE ENERGY PREDICTED BY IDOCK:   -0.17 KCAL/MOL
REMARK 927      BINDING AFFINITY PREDICTED BY RF-SCORE:    0.00 PKD
ROOT
HETATM    1  C   UNL     1     -12.780  11.157  69.807  1.00  0.00    -0.007 C  
HETATM    2  C   UNL     1     -11.495  10.857  69.101  1.00  0.00    -0.303 C  
HETATM    3  H   UNL     1      -9.778  11.663  68.691  1.00  0.00     0.000 HD 
HETATM    4  O   UNL     1     -10.594  11.853  69.139  1.00  0.00    -0.159 OA 
ENDROOT
BRANCH   2   5
HETATM    5  N   UNL     1     -11.284   9.721  68.519  1.00  0.00    -0.496 NA 
HETATM    6  H   UNL     1     -12.036   9.269  67.999  1.00  0.00     0.000 HD 
BRANCH   5   7
HETATM    7  C   UNL     1     -10.012   9.101  68.600  1.00  0.00    -0.170 A  
HETATM    8  C   UNL     1      -9.672   8.312  69.737  1.00  0.00    -0.180 A  
HETATM    9  C   UNL     1      -8.395   7.703  69.867  1.00  0.00    -0.132 A  
HETATM   10  I   UNL     1     -11.221   8.005  71.199  1.00  0.00    -0.332 I  
HETATM   11  C   UNL     1      -7.425   7.958  68.862  1.00  0.00    -0.094 A  
HETATM   12  O   UNL     1      -6.220   7.967  66.038  1.00  0.00    -0.041 OA 
HETATM   13  O   UNL     1      -6.521  10.183  66.375  1.00  0.00    -0.073 OA 
HETATM   14  I   UNL     1      -9.775   9.782  65.577  1.00  0.00    -0.192 I  
HETATM   15  C   UNL     1      -7.776   8.668  67.690  1.00  0.00    -0.102 A  
HETATM   16  I   UNL     1      -5.361   7.390  69.139  1.00  0.00    -0.015 I  
HETATM   17  C   UNL     1      -9.085   9.161  67.538  1.00  0.00    -0.124 A  
HETATM   18  C   UNL     1      -6.772   9.028  66.661  1.00  0.00    -0.075 C  
BRANCH   9  19
HETATM   19  C   UNL     1      -8.061   6.764  70.985  1.00  0.00    -0.115 C  
HETATM   20  H   UNL     1      -7.974   4.857  71.417  1.00  0.00     0.000 HD 
HETATM   21  O   UNL     1      -8.185   5.453  70.708  1.00  0.00    -0.110 OA 
BRANCH  19  22
HETATM   22  N   UNL     1      -7.729   7.173  72.162  1.00  0.00    -0.090 NA 
HETATM   23  H   UNL     1      -7.839   6.586  72.989  1.00  0.00     0.000 HD 
BRANCH  22  24
HETATM   24  C   UNL     1      -7.179   8.543  72.242  1.00  0.00    -0.056 C  
BRANCH  24  25
HETATM   25  C   UNL     1      -6.927   8.892  73.714  1.00  0.00     0.234 C  
HETATM   26  O   UNL     1      -8.022   8.461  74.518  1.00  0.00    -0.252 OA 
HETATM   27  H   UNL     1      -7.866   8.677  75.429  1.00  0.00     0.000 HD 
ENDBRANCH  24  25
ENDBRANCH  22  24
ENDBRANCH  19  22
ENDBRANCH   9  19
ENDBRANCH   5   7
ENDBRANCH   2   5
TORSDOF 6
ENDMDL
MODEL      173
REMARK 921   NORMALIZED FREE ENERGY PREDICTED BY IDOCK:   -1.77 KCAL/MOL
REMARK 922        TOTAL FREE ENERGY PREDICTED BY IDOCK:   -2.91 KCAL/MOL
REMARK 923 INTER-LIGAND FREE ENERGY PREDICTED BY IDOCK:   -3.64 KCAL/MOL
REMARK 924 INTRA-LIGAND FREE ENERGY PREDICTED BY IDOCK:    0.73 KCAL/MOL
REMARK 927      BINDING AFFINITY PREDICTED BY RF-SCORE:    0.00 PKD
ROOT
HETATM    1  C   UNL     1     -10.950   9.726  67.252  1.00  0.00    -0.142 C  
HETATM    2  C   UNL     1     -10.113   9.407  68.451  1.00  0.00    -0.185 C  
HETATM    3  H   UNL     1      -9.450   7.892  69.466  1.00  0.00     0.000 HD 
HETATM    4  O   UNL     1      -9.981   8.094  68.704  1.00  0.00    -0.179 OA 
ENDROOT
BRANCH   2   5
HETATM    5  N   UNL     1      -9.559  10.335  69.164  1.00  0.00    -0.207 NA 
HETATM    6  H   UNL     1      -8.768  10.108  69.766  1.00  0.00     0.000 HD 
BRANCH   5   7
HETATM    7  C   UNL     1     -10.046  11.664  69.111  1.00  0.00     0.079 A  
HETATM    8  C   UNL     1      -9.478  12.600  68.199  1.00  0.00    -0.218 A  
HETATM    9  C   UNL     1      -9.920  13.949  68.143  1.00  0.00    -0.240 A  
HETATM   10  I   UNL     1      -7.989  11.843  66.842  1.00  0.00     0.039 I  
HETATM   11  C   UNL     1     -10.903  14.372  69.076  1.00  0.00    -0.252 A  
HETATM   12  O   UNL     1     -13.630  14.402  70.485  1.00  0.00    -0.023 OA 
HETATM   13  O   UNL     1     -12.301  13.654  72.155  1.00  0.00    -0.027 OA 
HETATM   14  I   UNL     1     -12.434  10.577  70.778  1.00  0.00    -0.488 I  
HETATM   15  C   UNL     1     -11.534  13.435  69.928  1.00  0.00    -0.181 A  
HETATM   16  I   UNL     1     -11.378  16.463  69.319  1.00  0.00     0.110 I  
HETATM   17  C   UNL     1     -11.155  12.081  69.879  1.00  0.00     0.200 A  
HETATM   18  C   UNL     1     -12.500  13.851  70.972  1.00  0.00    -0.377 C  
BRANCH   9  19
HETATM   19  C   UNL     1      -9.432  14.912  67.105  1.00  0.00    -0.225 C  
HETATM   20  H   UNL     1      -9.438  15.224  65.173  1.00  0.00     0.000 HD 
HETATM   21  O   UNL     1      -9.747  14.612  65.831  1.00  0.00    -0.312 OA 
BRANCH  19  22
HETATM   22  N   UNL     1      -8.708  15.939  67.394  1.00  0.00    -0.177 NA 
HETATM   23  H   UNL     1      -9.018  16.648  68.059  1.00  0.00     0.000 HD 
BRANCH  22  24
HETATM   24  C   UNL     1      -7.402  16.027  66.706  1.00  0.00    -0.151 C  
BRANCH  24  25
HETATM   25  C   UNL     1      -6.878  17.464  66.818  1.00  0.00    -0.212 C  
HETATM   26  O   UNL     1      -7.409  18.266  65.765  1.00  0.00    -0.472 OA 
HETATM   27  H   UNL     1      -7.085  19.156  65.834  1.00  0.00     0.000 HD 
ENDBRANCH  24  25
ENDBRANCH  22  24
ENDBRANCH  19  22
ENDBRANCH   9  19
ENDBRANCH   5   7
ENDBRANCH   2   5
TORSDOF 6
ENDMDL
MODEL      174
REMARK 921   NORMALIZED FREE ENERGY PREDICTED BY IDOCK:   -1.28 KCAL/MOL
REMARK 922        TOTAL FREE ENERGY PREDICTED BY IDOCK:   -2.25 KCAL/MOL
REMARK 923 INTER-LIGAND FREE ENERGY PREDICTED BY IDOCK:   -1.96 KCAL/MOL
REMARK 924 INTRA-LIGAND FREE ENERGY PREDICTED BY IDOCK:   -0.29 KCAL/MOL
REMARK 927      BINDING AFFINITY PREDICTED BY RF-SCORE:    0.00 PKD
ROOT
HETATM    1  C   UNL     1      -6.900  11.837  66.983  1.00  0.00    -0.137 C  
HETATM    2  C   UNL     1      -7.207  10.417  67.342  1.00  0.00    -0.091 C  
HETATM    3  H   UNL     1      -8.709   9.205  67.543  1.00  0.00     0.000 HD 
HETATM    4  O   UNL     1      -8.514  10.106  67.315  1.00  0.00    -0.124 OA 
ENDROOT
BRANCH   2   5
HETATM    5  N   UNL     1      -6.274   9.570  67.638  1.00  0.00    -0.053 NA 
HETATM    6  H   UNL     1      -5.295   9.832  67.523  1.00  0.00     0.000 HD 
BRANCH   5   7
HETATM    7  C   UNL     1      -6.606   8.279  68.120  1.00  0.00    -0.057 A  
HETATM    8  C   UNL     1      -6.476   7.142  67.271  1.00  0.00    -0.057 A  
HETATM    9  C   UNL     1      -6.830   5.838  67.711  1.00  0.00    -0.060 A  
HETATM   10  I   UNL     1      -5.619   7.482  65.325  1.00  0.00    -0.033 I  
HETATM   11  C   UNL     1      -7.394   5.698  69.006  1.00  0.00    -0.082 A  
HETATM   12  O   UNL     1      -7.506   5.867  72.070  1.00  0.00    -0.092 OA 
HETATM   13  O   UNL     1      -9.070   7.400  71.506  1.00  0.00    -0.139 OA 
HETATM   14  I   UNL     1      -6.586   9.608  70.929  1.00  0.00     0.097 I  
HETATM   15  C   UNL     1      -7.450   6.803  69.887  1.00  0.00    -0.095 A  
HETATM   16  I   UNL     1      -8.296   3.840  69.631  1.00  0.00    -0.102 I  
HETATM   17  C   UNL     1      -6.983   8.060  69.462  1.00  0.00    -0.050 A  
HETATM   18  C   UNL     1      -8.108   6.716  71.213  1.00  0.00    -0.112 C  
BRANCH   9  19
HETATM   19  C   UNL     1      -6.578   4.614  66.885  1.00  0.00    -0.050 C  
HETATM   20  H   UNL     1      -5.464   3.007  66.821  1.00  0.00     0.000 HD 
HETATM   21  O   UNL     1      -5.624   3.783  67.344  1.00  0.00    -0.019 OA 
BRANCH  19  22
HETATM   22  N   UNL     1      -7.189   4.387  65.773  1.00  0.00    -0.071 NA 
HETATM   23  H   UNL     1      -6.683   4.172  64.913  1.00  0.00     0.000 HD 
BRANCH  22  24
HETATM   24  C   UNL     1      -8.665   4.457  65.816  1.00  0.00    -0.120 C  
BRANCH  24  25
HETATM   25  C   UNL     1      -9.242   3.209  65.138  1.00  0.00    -0.150 C  
HETATM   26  O   UNL     1      -9.590   2.232  66.117  1.00  0.00    -0.361 OA 
HETATM   27  H   UNL     1      -9.948   1.459  65.697  1.00  0.00     0.000 HD 
ENDBRANCH  24  25
ENDBRANCH  22  24
ENDBRANCH  19  22
ENDBRANCH   9  19
ENDBRANCH   5   7
ENDBRANCH   2   5
TORSDOF 6
ENDMDL
MODEL      175
REMARK 921   NORMALIZED FREE ENERGY PREDICTED BY IDOCK:   -1.09 KCAL/MOL
REMARK 922        TOTAL FREE ENERGY PREDICTED BY IDOCK:   -1.99 KCAL/MOL
REMARK 923 INTER-LIGAND FREE ENERGY PREDICTED BY IDOCK:   -1.98 KCAL/MOL
REMARK 924 INTRA-LIGAND FREE ENERGY PREDICTED BY IDOCK:   -0.02 KCAL/MOL
REMARK 927      BINDING AFFINITY PREDICTED BY RF-SCORE:    0.00 PKD
ROOT
HETATM    1  C   UNL     1      -6.084   8.719  63.837  1.00  0.00    -0.072 C  
HETATM    2  C   UNL     1      -7.109   7.680  64.172  1.00  0.00    -0.068 C  
HETATM    3  H   UNL     1      -7.250   5.819  64.701  1.00  0.00     0.000 HD 
HETATM    4  O   UNL     1      -6.599   6.478  64.489  1.00  0.00    -0.036 OA 
ENDROOT
BRANCH   2   5
HETATM    5  N   UNL     1      -8.376   7.944  64.166  1.00  0.00    -0.365 NA 
HETATM    6  H   UNL     1      -8.997   7.434  63.538  1.00  0.00     0.000 HD 
BRANCH   5   7
HETATM    7  C   UNL     1      -8.905   8.937  65.027  1.00  0.00    -0.140 A  
HETATM    8  C   UNL     1      -9.125  10.260  64.544  1.00  0.00    -0.234 A  
HETATM    9  C   UNL     1      -9.623  11.288  65.389  1.00  0.00    -0.261 A  
HETATM   10  I   UNL     1      -8.765  10.596  62.449  1.00  0.00    -0.365 I  
HETATM   11  C   UNL     1      -9.831  10.987  66.760  1.00  0.00    -0.197 A  
HETATM   12  O   UNL     1     -11.049   9.545  69.182  1.00  0.00    -0.171 OA 
HETATM   13  O   UNL     1      -8.904   8.838  69.305  1.00  0.00    -0.137 OA 
HETATM   14  I   UNL     1      -9.598   6.565  66.911  1.00  0.00    -0.211 I  
HETATM   15  C   UNL     1      -9.696   9.661  67.233  1.00  0.00    -0.213 A  
HETATM   16  I   UNL     1     -10.232  12.552  68.193  1.00  0.00    -0.236 I  
HETATM   17  C   UNL     1      -9.313   8.639  66.344  1.00  0.00    -0.211 A  
HETATM   18  C   UNL     1      -9.821   9.324  68.671  1.00  0.00    -0.162 C  
BRANCH   9  19
HETATM   19  C   UNL     1      -9.988  12.646  64.873  1.00  0.00    -0.146 C  
HETATM   20  H   UNL     1      -9.197  14.369  64.386  1.00  0.00     0.000 HD 
HETATM   21  O   UNL     1      -8.966  13.507  64.713  1.00  0.00     1.514 OA 
BRANCH  19  22
HETATM   22  N   UNL     1     -11.207  13.000  64.646  1.00  0.00    -0.311 NA 
HETATM   23  H   UNL     1     -11.455  13.962  64.413  1.00  0.00     0.000 HD 
BRANCH  22  24
HETATM   24  C   UNL     1     -12.223  11.930  64.742  1.00  0.00    -0.027 C  
BRANCH  24  25
HETATM   25  C   UNL     1     -13.354  12.229  63.751  1.00  0.00     0.454 C  
HETATM   26  O   UNL     1     -13.121  11.553  62.517  1.00  0.00    -0.384 OA 
HETATM   27  H   UNL     1     -13.822  11.738  61.904  1.00  0.00     0.000 HD 
ENDBRANCH  24  25
ENDBRANCH  22  24
ENDBRANCH  19  22
ENDBRANCH   9  19
ENDBRANCH   5   7
ENDBRANCH   2   5
TORSDOF 6
ENDMDL
MODEL      176
REMARK 921   NORMALIZED FREE ENERGY PREDICTED BY IDOCK:   -0.93 KCAL/MOL
REMARK 922        TOTAL FREE ENERGY PREDICTED BY IDOCK:   -1.77 KCAL/MOL
REMARK 923 INTER-LIGAND FREE ENERGY PREDICTED BY IDOCK:   -2.93 KCAL/MOL
REMARK 924 INTRA-LIGAND FREE ENERGY PREDICTED BY IDOCK:    1.16 KCAL/MOL
REMARK 927      BINDING AFFINITY PREDICTED BY RF-SCORE:    0.00 PKD
ROOT
HETATM    1  C   UNL     1      -9.208  18.127  68.095  1.00  0.00    -0.298 C  
HETATM    2  C   UNL     1      -8.099  17.123  68.144  1.00  0.00    -0.219 C  
HETATM    3  H   UNL     1      -6.587  16.601  69.241  1.00  0.00     0.000 HD 
HETATM    4  O   UNL     1      -7.291  17.239  69.211  1.00  0.00    -0.201 OA 
ENDROOT
BRANCH   2   5
HETATM    5  N   UNL     1      -7.957  16.217  67.230  1.00  0.00    -0.159 NA 
HETATM    6  H   UNL     1      -7.543  16.463  66.331  1.00  0.00     0.000 HD 
BRANCH   5   7
HETATM    7  C   UNL     1      -8.373  14.884  67.474  1.00  0.00    -0.180 A  
HETATM    8  C   UNL     1      -7.467  13.944  68.045  1.00  0.00    -0.135 A  
HETATM    9  C   UNL     1      -7.841  12.592  68.273  1.00  0.00    -0.144 A  
HETATM   10  I   UNL     1      -5.541  14.697  68.641  1.00  0.00    -0.114 I  
HETATM   11  C   UNL     1      -9.128  12.172  67.847  1.00  0.00    -0.185 A  
HETATM   12  O   UNL     1     -12.197  12.139  67.742  1.00  0.00    -0.451 OA 
HETATM   13  O   UNL     1     -11.712  12.907  65.671  1.00  0.00    -0.345 OA 
HETATM   14  I   UNL     1     -11.246  15.972  67.002  1.00  0.00     0.406 I  
HETATM   15  C   UNL     1     -10.064  13.112  67.357  1.00  0.00    -0.229 A  
HETATM   16  I   UNL     1      -9.659  10.080  67.810  1.00  0.00    -0.192 I  
HETATM   17  C   UNL     1      -9.703  14.468  67.251  1.00  0.00    -0.232 A  
HETATM   18  C   UNL     1     -11.385  12.699  66.824  1.00  0.00    -0.320 C  
BRANCH   9  19
HETATM   19  C   UNL     1      -6.954  11.623  68.992  1.00  0.00    -0.111 C  
HETATM   20  H   UNL     1      -6.524  10.974  70.787  1.00  0.00     0.000 HD 
HETATM   21  O   UNL     1      -7.086  11.588  70.331  1.00  0.00     0.322 OA 
BRANCH  19  22
HETATM   22  N   UNL     1      -6.076  10.901  68.385  1.00  0.00    -0.046 NA 
HETATM   23  H   UNL     1      -5.889  11.004  67.387  1.00  0.00     0.000 HD 
BRANCH  22  24
HETATM   24  C   UNL     1      -5.355   9.915  69.219  1.00  0.00    -0.035 C  
BRANCH  24  25
HETATM   25  C   UNL     1      -6.119   8.586  69.189  1.00  0.00    -0.042 C  
HETATM   26  O   UNL     1      -5.684   7.742  70.253  1.00  0.00    -0.023 OA 
HETATM   27  H   UNL     1      -6.157   6.919  70.234  1.00  0.00     0.000 HD 
ENDBRANCH  24  25
ENDBRANCH  22  24
ENDBRANCH  19  22
ENDBRANCH   9  19
ENDBRANCH   5   7
ENDBRANCH   2   5
TORSDOF 6
ENDMDL
MODEL      177
REMARK 921   NORMALIZED FREE ENERGY PREDICTED BY IDOCK:   -0.36 KCAL/MOL
REMARK 922        TOTAL FREE ENERGY PREDICTED BY IDOCK:   -1.01 KCAL/MOL
REMARK 923 INTER-LIGAND FREE ENERGY PREDICTED BY IDOCK:   -0.83 KCAL/MOL
REMARK 924 INTRA-LIGAND FREE ENERGY PREDICTED BY IDOCK:   -0.18 KCAL/MOL
REMARK 927      BINDING AFFINITY PREDICTED BY RF-SCORE:    0.00 PKD
ROOT
HETATM    1  C   UNL     1      -5.375  18.371  67.467  1.00  0.00    -0.143 C  
HETATM    2  C   UNL     1      -5.939  17.093  68.005  1.00  0.00    -0.123 C  
HETATM    3  H   UNL     1      -5.490  15.216  68.207  1.00  0.00     0.000 HD 
HETATM    4  O   UNL     1      -5.132  16.027  67.865  1.00  0.00    -0.111 OA 
ENDROOT
BRANCH   2   5
HETATM    5  N   UNL     1      -7.103  17.042  68.568  1.00  0.00    -0.191 NA 
HETATM    6  H   UNL     1      -7.182  17.121  69.581  1.00  0.00     0.000 HD 
BRANCH   5   7
HETATM    7  C   UNL     1      -8.271  16.877  67.781  1.00  0.00    -0.189 A  
HETATM    8  C   UNL     1      -8.782  15.573  67.522  1.00  0.00    -0.172 A  
HETATM    9  C   UNL     1      -9.931  15.369  66.712  1.00  0.00    -0.256 A  
HETATM   10  I   UNL     1      -7.789  13.934  68.504  1.00  0.00    -0.050 I  
HETATM   11  C   UNL     1     -10.526  16.501  66.096  1.00  0.00    -0.294 A  
HETATM   12  O   UNL     1     -11.927  19.230  65.957  1.00  0.00     1.964 OA 
HETATM   13  O   UNL     1      -9.914  19.743  65.062  1.00  0.00     0.289 OA 
HETATM   14  I   UNL     1      -8.661  19.934  68.188  1.00  0.00    -0.098 I  
HETATM   15  C   UNL     1     -10.081  17.806  66.411  1.00  0.00    -0.357 A  
HETATM   16  I   UNL     1     -12.035  16.272  64.570  1.00  0.00     1.757 I  
HETATM   17  C   UNL     1      -9.012  17.982  67.310  1.00  0.00    -0.251 A  
HETATM   18  C   UNL     1     -10.618  19.006  65.725  1.00  0.00    -0.318 C  
BRANCH   9  19
HETATM   19  C   UNL     1     -10.563  14.022  66.536  1.00  0.00    -0.279 C  
HETATM   20  H   UNL     1     -12.058  12.931  67.170  1.00  0.00     0.000 HD 
HETATM   21  O   UNL     1     -11.657  13.785  67.282  1.00  0.00    -0.322 OA 
BRANCH  19  22
HETATM   22  N   UNL     1     -10.067  13.117  65.763  1.00  0.00    -0.289 NA 
HETATM   23  H   UNL     1      -9.120  13.185  65.391  1.00  0.00     0.000 HD 
BRANCH  22  24
HETATM   24  C   UNL     1     -10.953  11.976  65.448  1.00  0.00    -0.300 C  
BRANCH  24  25
HETATM   25  C   UNL     1     -11.597  12.210  64.077  1.00  0.00    -0.423 C  
HETATM   26  O   UNL     1     -10.672  11.897  63.037  1.00  0.00    -0.667 OA 
HETATM   27  H   UNL     1     -11.071  12.042  62.188  1.00  0.00     0.000 HD 
ENDBRANCH  24  25
ENDBRANCH  22  24
ENDBRANCH  19  22
ENDBRANCH   9  19
ENDBRANCH   5   7
ENDBRANCH   2   5
TORSDOF 6
ENDMDL
MODEL      178
REMARK 921   NORMALIZED FREE ENERGY PREDICTED BY IDOCK:    0.09 KCAL/MOL
REMARK 922        TOTAL FREE ENERGY PREDICTED BY IDOCK:   -0.40 KCAL/MOL
REMARK 923 INTER-LIGAND FREE ENERGY PREDICTED BY IDOCK:   -2.00 KCAL/MOL
REMARK 924 INTRA-LIGAND FREE ENERGY PREDICTED BY IDOCK:    1.61 KCAL/MOL
REMARK 927      BINDING AFFINITY PREDICTED BY RF-SCORE:    0.00 PKD
ROOT
HETATM    1  C   UNL     1     -10.573  14.146  69.369  1.00  0.00    -0.061 C  
HETATM    2  C   UNL     1      -9.394  14.669  68.609  1.00  0.00    -0.206 C  
HETATM    3  H   UNL     1      -7.664  15.498  68.896  1.00  0.00     0.000 HD 
HETATM    4  O   UNL     1      -8.411  15.165  69.379  1.00  0.00    -0.225 OA 
ENDROOT
BRANCH   2   5
HETATM    5  N   UNL     1      -9.340  14.624  67.316  1.00  0.00    -0.201 NA 
HETATM    6  H   UNL     1      -9.353  15.489  66.777  1.00  0.00     0.000 HD 
BRANCH   5   7
HETATM    7  C   UNL     1      -9.262  13.378  66.647  1.00  0.00    -0.214 A  
HETATM    8  C   UNL     1      -8.243  12.443  66.990  1.00  0.00    -0.141 A  
HETATM    9  C   UNL     1      -8.116  11.197  66.317  1.00  0.00    -0.142 A  
HETATM   10  I   UNL     1      -6.971  12.964  68.646  1.00  0.00    -0.069 I  
HETATM   11  C   UNL     1      -8.991  10.930  65.231  1.00  0.00    -0.186 A  
HETATM   12  O   UNL     1     -11.677  10.485  63.813  1.00  0.00     1.798 OA 
HETATM   13  O   UNL     1     -11.014  12.426  62.860  1.00  0.00    -0.051 OA 
HETATM   14  I   UNL     1     -12.110  14.056  65.604  1.00  0.00    -0.476 I  
HETATM   15  C   UNL     1     -10.057  11.811  64.935  1.00  0.00    -0.298 A  
HETATM   16  I   UNL     1      -8.653   9.249  63.920  1.00  0.00    -0.074 I  
HETATM   17  C   UNL     1     -10.228  12.982  65.696  1.00  0.00    -0.287 A  
HETATM   18  C   UNL     1     -10.937  11.610  63.759  1.00  0.00    -0.422 C  
BRANCH   9  19
HETATM   19  C   UNL     1      -7.141  10.146  66.749  1.00  0.00    -0.092 C  
HETATM   20  H   UNL     1      -5.235   9.706  66.704  1.00  0.00     0.000 HD 
HETATM   21  O   UNL     1      -5.853  10.373  66.430  1.00  0.00    -0.060 OA 
BRANCH  19  22
HETATM   22  N   UNL     1      -7.505   9.059  67.339  1.00  0.00    -0.084 NA 
HETATM   23  H   UNL     1      -8.163   8.407  66.912  1.00  0.00     0.000 HD 
BRANCH  22  24
HETATM   24  C   UNL     1      -6.912   8.813  68.671  1.00  0.00    -0.064 C  
BRANCH  24  25
HETATM   25  C   UNL     1      -7.939   9.184  69.748  1.00  0.00    -0.098 C  
HETATM   26  O   UNL     1      -7.347  10.048  70.717  1.00  0.00    -0.350 OA 
HETATM   27  H   UNL     1      -7.983  10.278  71.383  1.00  0.00     0.000 HD 
ENDBRANCH  24  25
ENDBRANCH  22  24
ENDBRANCH  19  22
ENDBRANCH   9  19
ENDBRANCH   5   7
ENDBRANCH   2   5
TORSDOF 6
ENDMDL
MODEL      179
REMARK 921   NORMALIZED FREE ENERGY PREDICTED BY IDOCK:    0.29 KCAL/MOL
REMARK 922        TOTAL FREE ENERGY PREDICTED BY IDOCK:   -0.13 KCAL/MOL
REMARK 923 INTER-LIGAND FREE ENERGY PREDICTED BY IDOCK:   -1.74 KCAL/MOL
REMARK 924 INTRA-LIGAND FREE ENERGY PREDICTED BY IDOCK:    1.62 KCAL/MOL
REMARK 927      BINDING AFFINITY PREDICTED BY RF-SCORE:    0.00 PKD
ROOT
HETATM    1  C   UNL     1      -8.030   4.867  67.576  1.00  0.00    -0.095 C  
HETATM    2  C   UNL     1      -8.434   6.197  67.021  1.00  0.00    -0.105 C  
HETATM    3  H   UNL     1      -9.998   7.150  66.380  1.00  0.00     0.000 HD 
HETATM    4  O   UNL     1      -9.742   6.305  66.732  1.00  0.00    -0.147 OA 
ENDROOT
BRANCH   2   5
HETATM    5  N   UNL     1      -7.580   7.156  66.855  1.00  0.00    -0.099 NA 
HETATM    6  H   UNL     1      -6.585   6.979  66.990  1.00  0.00     0.000 HD 
BRANCH   5   7
HETATM    7  C   UNL     1      -8.022   8.450  66.485  1.00  0.00    -0.096 A  
HETATM    8  C   UNL     1      -8.197   9.458  67.477  1.00  0.00    -0.117 A  
HETATM    9  C   UNL     1      -8.669  10.757  67.146  1.00  0.00    -0.131 A  
HETATM   10  I   UNL     1      -7.614   8.948  69.485  1.00  0.00    -0.091 I  
HETATM   11  C   UNL     1      -9.038  11.013  65.799  1.00  0.00    -0.202 A  
HETATM   12  O   UNL     1      -8.643  11.282  62.766  1.00  0.00    -0.171 OA 
HETATM   13  O   UNL     1     -10.030   9.498  62.854  1.00  0.00     0.892 OA 
HETATM   14  I   UNL     1      -7.365   7.561  63.580  1.00  0.00    -0.111 I  
HETATM   15  C   UNL     1      -8.790  10.051  64.792  1.00  0.00    -0.222 A  
HETATM   16  I   UNL     1     -10.099  12.814  65.260  1.00  0.00    -0.122 I  
HETATM   17  C   UNL     1      -8.212   8.814  65.135  1.00  0.00    -0.148 A  
HETATM   18  C   UNL     1      -9.238  10.247  63.393  1.00  0.00    -0.292 C  
BRANCH   9  19
HETATM   19  C   UNL     1      -8.734  11.868  68.148  1.00  0.00    -0.173 C  
HETATM   20  H   UNL     1      -8.818  12.198  70.074  1.00  0.00     0.000 HD 
HETATM   21  O   UNL     1      -8.777  11.493  69.439  1.00  0.00     0.301 OA 
BRANCH  19  22
HETATM   22  N   UNL     1      -8.802  13.110  67.806  1.00  0.00    -0.179 NA 
HETATM   23  H   UNL     1      -9.655  13.519  67.426  1.00  0.00     0.000 HD 
BRANCH  22  24
HETATM   24  C   UNL     1      -7.570  13.904  67.997  1.00  0.00    -0.144 C  
BRANCH  24  25
HETATM   25  C   UNL     1      -7.957  15.353  68.318  1.00  0.00    -0.128 C  
HETATM   26  O   UNL     1      -7.872  16.158  67.144  1.00  0.00    -0.161 OA 
HETATM   27  H   UNL     1      -8.112  17.055  67.343  1.00  0.00     0.000 HD 
ENDBRANCH  24  25
ENDBRANCH  22  24
ENDBRANCH  19  22
ENDBRANCH   9  19
ENDBRANCH   5   7
ENDBRANCH   2   5
TORSDOF 6
ENDMDL
MODEL      180
REMARK 921   NORMALIZED FREE ENERGY PREDICTED BY IDOCK:    0.50 KCAL/MOL
REMARK 922        TOTAL FREE ENERGY PREDICTED BY IDOCK:    0.15 KCAL/MOL
REMARK 923 INTER-LIGAND FREE ENERGY PREDICTED BY IDOCK:   -1.06 KCAL/MOL
REMARK 924 INTRA-LIGAND FREE ENERGY PREDICTED BY IDOCK:    1.21 KCAL/MOL
REMARK 927      BINDING AFFINITY PREDICTED BY RF-SCORE:    0.00 PKD
ROOT
HETATM    1  C   UNL     1      -9.878  10.595  63.026  1.00  0.00    -0.318 C  
HETATM    2  C   UNL     1      -8.784  10.610  64.048  1.00  0.00    -0.131 C  
HETATM    3  H   UNL     1      -6.861  10.821  64.192  1.00  0.00     0.000 HD 
HETATM    4  O   UNL     1      -7.555  10.812  63.543  1.00  0.00     0.068 OA 
ENDROOT
BRANCH   2   5
HETATM    5  N   UNL     1      -9.025  10.453  65.310  1.00  0.00    -0.177 NA 
HETATM    6  H   UNL     1      -9.128   9.514  65.694  1.00  0.00     0.000 HD 
BRANCH   5   7
HETATM    7  C   UNL     1      -9.147  11.580  66.160  1.00  0.00    -0.209 A  
HETATM    8  C   UNL     1      -7.987  12.165  66.745  1.00  0.00    -0.023 A  
HETATM    9  C   UNL     1      -8.076  13.275  67.627  1.00  0.00    -0.174 A  
HETATM   10  I   UNL     1      -6.087  11.350  66.146  1.00  0.00     0.621 I  
HETATM   11  C   UNL     1      -9.366  13.752  67.977  1.00  0.00    -0.199 A  
HETATM   12  O   UNL     1     -12.156  14.948  67.514  1.00  0.00    -0.246 OA 
HETATM   13  O   UNL     1     -12.700  12.855  68.176  1.00  0.00     0.477 OA 
HETATM   14  I   UNL     1     -12.042  11.779  65.047  1.00  0.00     0.819 I  
HETATM   15  C   UNL     1     -10.519  13.236  67.340  1.00  0.00    -0.243 A  
HETATM   16  I   UNL     1      -9.629  15.180  69.575  1.00  0.00     0.081 I  
HETATM   17  C   UNL     1     -10.389  12.213  66.382  1.00  0.00    -0.218 A  
HETATM   18  C   UNL     1     -11.886  13.646  67.739  1.00  0.00    -0.368 C  
BRANCH   9  19
HETATM   19  C   UNL     1      -6.866  13.988  68.148  1.00  0.00    -0.122 C  
HETATM   20  H   UNL     1      -5.486  13.866  69.529  1.00  0.00     0.000 HD 
HETATM   21  O   UNL     1      -6.253  13.414  69.199  1.00  0.00    -0.086 OA 
BRANCH  19  22
HETATM   22  N   UNL     1      -6.458  15.111  67.663  1.00  0.00    -0.185 NA 
HETATM   23  H   UNL     1      -7.020  15.652  67.006  1.00  0.00     0.000 HD 
BRANCH  22  24
HETATM   24  C   UNL     1      -5.127  15.570  68.117  1.00  0.00    -0.119 C  
BRANCH  24  25
HETATM   25  C   UNL     1      -5.199  17.068  68.434  1.00  0.00    -0.126 C  
HETATM   26  O   UNL     1      -6.559  17.491  68.511  1.00  0.00    -0.183 OA 
HETATM   27  H   UNL     1      -6.604  18.419  68.707  1.00  0.00     0.000 HD 
ENDBRANCH  24  25
ENDBRANCH  22  24
ENDBRANCH  19  22
ENDBRANCH   9  19
ENDBRANCH   5   7
ENDBRANCH   2   5
TORSDOF 6
ENDMDL
MODEL      181
REMARK 921   NORMALIZED FREE ENERGY PREDICTED BY IDOCK:    0.71 KCAL/MOL
REMARK 922        TOTAL FREE ENERGY PREDICTED BY IDOCK:    0.44 KCAL/MOL
REMARK 923 INTER-LIGAND FREE ENERGY PREDICTED BY IDOCK:    0.53 KCAL/MOL
REMARK 924 INTRA-LIGAND FREE ENERGY PREDICTED BY IDOCK:   -0.10 KCAL/MOL
REMARK 927      BINDING AFFINITY PREDICTED BY RF-SCORE:    0.00 PKD
ROOT
HETATM    1  C   UNL     1      -5.203  17.954  65.552  1.00  0.00    -0.169 C  
HETATM    2  C   UNL     1      -5.547  17.154  66.770  1.00  0.00    -0.181 C  
HETATM    3  H   UNL     1      -5.351  15.370  67.505  1.00  0.00     0.000 HD 
HETATM    4  O   UNL     1      -5.132  15.877  66.732  1.00  0.00    -0.187 OA 
ENDROOT
BRANCH   2   5
HETATM    5  N   UNL     1      -6.181  17.674  67.772  1.00  0.00    -0.166 NA 
HETATM    6  H   UNL     1      -5.674  18.233  68.458  1.00  0.00     0.000 HD 
BRANCH   5   7
HETATM    7  C   UNL     1      -7.575  17.469  67.921  1.00  0.00    -0.204 A  
HETATM    8  C   UNL     1      -8.060  16.428  68.763  1.00  0.00    -0.234 A  
HETATM    9  C   UNL     1      -9.451  16.175  68.910  1.00  0.00    -0.244 A  
HETATM   10  I   UNL     1      -6.589  15.326  69.883  1.00  0.00    -0.007 I  
HETATM   11  C   UNL     1     -10.358  16.942  68.133  1.00  0.00    -0.336 A  
HETATM   12  O   UNL     1     -11.766  19.476  67.121  1.00  0.00     0.505 OA 
HETATM   13  O   UNL     1     -10.632  18.854  65.265  1.00  0.00    -0.439 OA 
HETATM   14  I   UNL     1      -7.862  20.260  66.583  1.00  0.00    -0.183 I  
HETATM   15  C   UNL     1      -9.895  18.031  67.358  1.00  0.00    -0.309 A  
HETATM   16  I   UNL     1     -12.444  16.402  68.003  1.00  0.00     3.528 I  
HETATM   17  C   UNL     1      -8.521  18.331  67.325  1.00  0.00    -0.250 A  
HETATM   18  C   UNL     1     -10.798  18.801  66.469  1.00  0.00    -0.120 C  
BRANCH   9  19
HETATM   19  C   UNL     1      -9.988  15.177  69.890  1.00  0.00    -0.089 C  
HETATM   20  H   UNL     1     -10.459  14.977  71.778  1.00  0.00     0.000 HD 
HETATM   21  O   UNL     1     -10.119  15.610  71.157  1.00  0.00     0.593 OA 
BRANCH  19  22
HETATM   22  N   UNL     1     -10.259  13.959  69.564  1.00  0.00    -0.322 NA 
HETATM   23  H   UNL     1     -10.929  13.396  70.088  1.00  0.00     0.000 HD 
BRANCH  22  24
HETATM   24  C   UNL     1      -9.542  13.426  68.386  1.00  0.00    -0.188 C  
BRANCH  24  25
HETATM   25  C   UNL     1     -10.567  13.026  67.318  1.00  0.00    -0.242 C  
HETATM   26  O   UNL     1      -9.937  12.266  66.289  1.00  0.00    -0.222 OA 
HETATM   27  H   UNL     1     -10.573  12.019  65.628  1.00  0.00     0.000 HD 
ENDBRANCH  24  25
ENDBRANCH  22  24
ENDBRANCH  19  22
ENDBRANCH   9  19
ENDBRANCH   5   7
ENDBRANCH   2   5
TORSDOF 6
ENDMDL
MODEL      182
REMARK 921   NORMALIZED FREE ENERGY PREDICTED BY IDOCK:    1.08 KCAL/MOL
REMARK 922        TOTAL FREE ENERGY PREDICTED BY IDOCK:    0.94 KCAL/MOL
REMARK 923 INTER-LIGAND FREE ENERGY PREDICTED BY IDOCK:   -0.52 KCAL/MOL
REMARK 924 INTRA-LIGAND FREE ENERGY PREDICTED BY IDOCK:    1.46 KCAL/MOL
REMARK 927      BINDING AFFINITY PREDICTED BY RF-SCORE:    0.00 PKD
ROOT
HETATM    1  C   UNL     1      -9.449  12.857  68.292  1.00  0.00    -0.206 C  
HETATM    2  C   UNL     1      -8.042  12.350  68.363  1.00  0.00    -0.143 C  
HETATM    3  H   UNL     1      -6.746  11.678  69.641  1.00  0.00     0.000 HD 
HETATM    4  O   UNL     1      -7.639  11.999  69.596  1.00  0.00     0.387 OA 
ENDROOT
BRANCH   2   5
HETATM    5  N   UNL     1      -7.297  12.253  67.310  1.00  0.00    -0.194 NA 
HETATM    6  H   UNL     1      -6.557  12.936  67.147  1.00  0.00     0.000 HD 
BRANCH   5   7
HETATM    7  C   UNL     1      -7.504  11.203  66.381  1.00  0.00    -0.103 A  
HETATM    8  C   UNL     1      -6.900   9.930  66.593  1.00  0.00    -0.084 A  
HETATM    9  C   UNL     1      -7.061   8.865  65.667  1.00  0.00    -0.084 A  
HETATM   10  I   UNL     1      -5.821   9.668  68.437  1.00  0.00    -0.038 I  
HETATM   11  C   UNL     1      -7.783   9.119  64.472  1.00  0.00    -0.114 A  
HETATM   12  O   UNL     1     -10.202   9.890  62.744  1.00  0.00     0.682 OA 
HETATM   13  O   UNL     1      -8.817  11.630  62.331  1.00  0.00    -0.265 OA 
HETATM   14  I   UNL     1      -9.784  12.994  65.261  1.00  0.00     0.325 I  
HETATM   15  C   UNL     1      -8.456  10.350  64.288  1.00  0.00    -0.159 A  
HETATM   16  I   UNL     1      -7.777   7.700  62.845  1.00  0.00    -0.088 I  
HETATM   17  C   UNL     1      -8.374  11.345  65.279  1.00  0.00     0.370 A  
HETATM   18  C   UNL     1      -9.148  10.684  63.020  1.00  0.00    -0.280 C  
BRANCH   9  19
HETATM   19  C   UNL     1      -6.549   7.483  65.933  1.00  0.00    -0.046 C  
HETATM   20  H   UNL     1      -5.051   6.293  65.522  1.00  0.00     0.000 HD 
HETATM   21  O   UNL     1      -5.375   7.169  65.353  1.00  0.00    -0.027 OA 
BRANCH  19  22
HETATM   22  N   UNL     1      -7.207   6.619  66.627  1.00  0.00    -0.072 NA 
HETATM   23  H   UNL     1      -6.792   5.735  66.924  1.00  0.00     0.000 HD 
BRANCH  22  24
HETATM   24  C   UNL     1      -8.599   6.983  66.967  1.00  0.00    -0.122 C  
BRANCH  24  25
HETATM   25  C   UNL     1      -9.555   6.032  66.236  1.00  0.00    -0.102 C  
HETATM   26  O   UNL     1      -9.695   4.816  66.967  1.00  0.00    -0.158 OA 
HETATM   27  H   UNL     1     -10.287   4.227  66.515  1.00  0.00     0.000 HD 
ENDBRANCH  24  25
ENDBRANCH  22  24
ENDBRANCH  19  22
ENDBRANCH   9  19
ENDBRANCH   5   7
ENDBRANCH   2   5
TORSDOF 6
ENDMDL
MODEL      183
REMARK 921   NORMALIZED FREE ENERGY PREDICTED BY IDOCK:    1.31 KCAL/MOL
REMARK 922        TOTAL FREE ENERGY PREDICTED BY IDOCK:    1.26 KCAL/MOL
REMARK 923 INTER-LIGAND FREE ENERGY PREDICTED BY IDOCK:   -1.96 KCAL/MOL
REMARK 924 INTRA-LIGAND FREE ENERGY PREDICTED BY IDOCK:    3.22 KCAL/MOL
REMARK 927      BINDING AFFINITY PREDICTED BY RF-SCORE:    0.00 PKD
ROOT
HETATM    1  C   UNL     1      -7.741   7.351  72.500  1.00  0.00    -0.102 C  
HETATM    2  C   UNL     1      -7.490   8.612  71.733  1.00  0.00    -0.081 C  
HETATM    3  H   UNL     1      -6.356  10.186  71.752  1.00  0.00     0.000 HD 
HETATM    4  O   UNL     1      -6.515   9.385  72.238  1.00  0.00    -0.298 OA 
ENDROOT
BRANCH   2   5
HETATM    5  N   UNL     1      -8.160   8.907  70.665  1.00  0.00    -0.127 NA 
HETATM    6  H   UNL     1      -8.693   9.775  70.625  1.00  0.00     0.000 HD 
BRANCH   5   7
HETATM    7  C   UNL     1      -8.156   8.030  69.553  1.00  0.00    -0.120 A  
HETATM    8  C   UNL     1      -7.017   7.962  68.699  1.00  0.00    -0.071 A  
HETATM    9  C   UNL     1      -6.991   7.117  67.557  1.00  0.00    -0.079 A  
HETATM   10  I   UNL     1      -5.301   9.123  69.281  1.00  0.00    -0.035 I  
HETATM   11  C   UNL     1      -8.166   6.386  67.237  1.00  0.00    -0.113 A  
HETATM   12  O   UNL     1     -10.435   4.362  67.660  1.00  0.00     0.134 OA 
HETATM   13  O   UNL     1     -11.594   6.304  67.679  1.00  0.00     0.111 OA 
HETATM   14  I   UNL     1     -10.651   6.745  70.888  1.00  0.00    -0.294 I  
HETATM   15  C   UNL     1      -9.270   6.380  68.120  1.00  0.00    -0.111 A  
HETATM   16  I   UNL     1      -8.360   5.367  65.343  1.00  0.00    -0.145 I  
HETATM   17  C   UNL     1      -9.221   7.137  69.305  1.00  0.00    -0.140 A  
HETATM   18  C   UNL     1     -10.543   5.700  67.780  1.00  0.00    -0.200 C  
BRANCH   9  19
HETATM   19  C   UNL     1      -5.761   6.929  66.723  1.00  0.00    -0.018 C  
HETATM   20  H   UNL     1      -4.529   5.547  66.091  1.00  0.00     0.000 HD 
HETATM   21  O   UNL     1      -5.309   5.666  66.620  1.00  0.00    -0.011 OA 
BRANCH  19  22
HETATM   22  N   UNL     1      -5.134   7.914  66.177  1.00  0.00    -0.024 NA 
HETATM   23  H   UNL     1      -4.215   8.215  66.502  1.00  0.00     0.000 HD 
BRANCH  22  24
HETATM   24  C   UNL     1      -5.824   8.582  65.053  1.00  0.00    -0.048 C  
BRANCH  24  25
HETATM   25  C   UNL     1      -7.333   8.577  65.323  1.00  0.00    -0.084 C  
HETATM   26  O   UNL     1      -7.758   9.864  65.766  1.00  0.00    -0.104 OA 
HETATM   27  H   UNL     1      -8.693   9.862  65.933  1.00  0.00     0.000 HD 
ENDBRANCH  24  25
ENDBRANCH  22  24
ENDBRANCH  19  22
ENDBRANCH   9  19
ENDBRANCH   5   7
ENDBRANCH   2   5
TORSDOF 6
ENDMDL
MODEL      184
REMARK 921   NORMALIZED FREE ENERGY PREDICTED BY IDOCK:    1.45 KCAL/MOL
REMARK 922        TOTAL FREE ENERGY PREDICTED BY IDOCK:    1.44 KCAL/MOL
REMARK 923 INTER-LIGAND FREE ENERGY PREDICTED BY IDOCK:   -0.05 KCAL/MOL
REMARK 924 INTRA-LIGAND FREE ENERGY PREDICTED BY IDOCK:    1.49 KCAL/MOL
REMARK 927      BINDING AFFINITY PREDICTED BY RF-SCORE:    0.00 PKD
ROOT
HETATM    1  C   UNL     1     -11.216  10.354  70.860  1.00  0.00    -0.205 C  
HETATM    2  C   UNL     1     -10.778  10.122  69.447  1.00  0.00    -0.238 C  
HETATM    3  H   UNL     1     -11.001   8.861  67.989  1.00  0.00     0.000 HD 
HETATM    4  O   UNL     1     -11.279   9.009  68.886  1.00  0.00     0.076 OA 
ENDROOT
BRANCH   2   5
HETATM    5  N   UNL     1      -9.993  10.946  68.831  1.00  0.00    -0.196 NA 
HETATM    6  H   UNL     1      -9.004  10.984  69.075  1.00  0.00     0.000 HD 
BRANCH   5   7
HETATM    7  C   UNL     1     -10.502  11.796  67.818  1.00  0.00    -0.194 A  
HETATM    8  C   UNL     1     -10.637  11.318  66.482  1.00  0.00    -0.266 A  
HETATM    9  C   UNL     1     -11.114  12.153  65.436  1.00  0.00    -0.362 A  
HETATM   10  I   UNL     1     -10.184   9.240  66.150  1.00  0.00     0.354 I  
HETATM   11  C   UNL     1     -11.386  13.513  65.735  1.00  0.00    -0.305 A  
HETATM   12  O   UNL     1     -12.763  15.876  67.130  1.00  0.00     1.925 OA 
HETATM   13  O   UNL     1     -10.663  16.070  67.947  1.00  0.00    -0.297 OA 
HETATM   14  I   UNL     1     -11.383  13.633  70.165  1.00  0.00     0.481 I  
HETATM   15  C   UNL     1     -11.336  13.978  67.070  1.00  0.00    -0.346 A  
HETATM   16  I   UNL     1     -11.759  14.944  64.162  1.00  0.00     0.400 I  
HETATM   17  C   UNL     1     -10.973  13.096  68.104  1.00  0.00    -0.251 A  
HETATM   18  C   UNL     1     -11.530  15.408  67.410  1.00  0.00    -0.195 C  
BRANCH   9  19
HETATM   19  C   UNL     1     -11.390  11.636  64.057  1.00  0.00    -0.345 C  
HETATM   20  H   UNL     1     -12.785  10.774  62.990  1.00  0.00     0.000 HD 
HETATM   21  O   UNL     1     -12.610  11.102  63.864  1.00  0.00     0.552 OA 
BRANCH  19  22
HETATM   22  N   UNL     1     -10.504  11.645  63.120  1.00  0.00    -0.657 NA 
HETATM   23  H   UNL     1     -10.066  12.509  62.800  1.00  0.00     0.000 HD 
BRANCH  22  24
HETATM   24  C   UNL     1     -10.160  10.330  62.538  1.00  0.00     0.531 C  
BRANCH  24  25
HETATM   25  C   UNL     1      -8.654  10.094  62.699  1.00  0.00    -0.190 C  
HETATM   26  O   UNL     1      -8.191  10.674  63.916  1.00  0.00    -0.323 OA 
HETATM   27  H   UNL     1      -7.258  10.528  64.016  1.00  0.00     0.000 HD 
ENDBRANCH  24  25
ENDBRANCH  22  24
ENDBRANCH  19  22
ENDBRANCH   9  19
ENDBRANCH   5   7
ENDBRANCH   2   5
TORSDOF 6
ENDMDL
MODEL      185
REMARK 921   NORMALIZED FREE ENERGY PREDICTED BY IDOCK:    1.76 KCAL/MOL
REMARK 922        TOTAL FREE ENERGY PREDICTED BY IDOCK:    1.86 KCAL/MOL
REMARK 923 INTER-LIGAND FREE ENERGY PREDICTED BY IDOCK:   -0.53 KCAL/MOL
REMARK 924 INTRA-LIGAND FREE ENERGY PREDICTED BY IDOCK:    2.39 KCAL/MOL
REMARK 927      BINDING AFFINITY PREDICTED BY RF-SCORE:    0.00 PKD
ROOT
HETATM    1  C   UNL     1     -11.386  11.855  67.515  1.00  0.00    -0.381 C  
HETATM    2  C   UNL     1     -10.894  10.992  66.396  1.00  0.00    -0.191 C  
HETATM    3  H   UNL     1     -11.056  10.780  64.474  1.00  0.00     0.000 HD 
HETATM    4  O   UNL     1     -11.368  11.328  65.184  1.00  0.00    -0.089 OA 
ENDROOT
BRANCH   2   5
HETATM    5  N   UNL     1     -10.069  10.015  66.598  1.00  0.00    -0.217 NA 
HETATM    6  H   UNL     1     -10.194   9.134  66.100  1.00  0.00     0.000 HD 
BRANCH   5   7
HETATM    7  C   UNL     1      -8.993  10.165  67.508  1.00  0.00    -0.131 A  
HETATM    8  C   UNL     1      -8.581   9.066  68.317  1.00  0.00    -0.130 A  
HETATM    9  C   UNL     1      -7.528   9.190  69.262  1.00  0.00    -0.075 A  
HETATM   10  I   UNL     1      -9.564   7.184  67.964  1.00  0.00    -0.170 I  
HETATM   11  C   UNL     1      -6.933  10.467  69.440  1.00  0.00    -0.091 A  
HETATM   12  O   UNL     1      -5.404  13.006  68.638  1.00  0.00    -0.063 OA 
HETATM   13  O   UNL     1      -7.462  13.859  69.030  1.00  0.00    -0.108 OA 
HETATM   14  I   UNL     1      -8.398  12.798  65.967  1.00  0.00     1.846 I  
HETATM   15  C   UNL     1      -7.274  11.542  68.587  1.00  0.00    -0.102 A  
HETATM   16  I   UNL     1      -5.592  10.849  71.087  1.00  0.00     0.275 I  
HETATM   17  C   UNL     1      -8.240  11.356  67.580  1.00  0.00    -0.128 A  
HETATM   18  C   UNL     1      -6.739  12.909  68.795  1.00  0.00    -0.093 C  
BRANCH   9  19
HETATM   19  C   UNL     1      -6.991   8.019  70.026  1.00  0.00    -0.048 C  
HETATM   20  H   UNL     1      -6.095   6.298  69.772  1.00  0.00     0.000 HD 
HETATM   21  O   UNL     1      -6.435   7.041  69.287  1.00  0.00    -0.040 OA 
BRANCH  19  22
HETATM   22  N   UNL     1      -7.097   7.916  71.307  1.00  0.00    -0.053 NA 
HETATM   23  H   UNL     1      -6.367   7.488  71.876  1.00  0.00     0.000 HD 
BRANCH  22  24
HETATM   24  C   UNL     1      -8.340   8.453  71.901  1.00  0.00    -0.167 C  
BRANCH  24  25
HETATM   25  C   UNL     1      -9.537   7.679  71.335  1.00  0.00    -0.158 C  
HETATM   26  O   UNL     1     -10.436   7.326  72.384  1.00  0.00    -0.212 OA 
HETATM   27  H   UNL     1     -11.177   6.847  72.034  1.00  0.00     0.000 HD 
ENDBRANCH  24  25
ENDBRANCH  22  24
ENDBRANCH  19  22
ENDBRANCH   9  19
ENDBRANCH   5   7
ENDBRANCH   2   5
TORSDOF 6
ENDMDL
MODEL      186
REMARK 921   NORMALIZED FREE ENERGY PREDICTED BY IDOCK:    1.85 KCAL/MOL
REMARK 922        TOTAL FREE ENERGY PREDICTED BY IDOCK:    1.98 KCAL/MOL
REMARK 923 INTER-LIGAND FREE ENERGY PREDICTED BY IDOCK:   -1.57 KCAL/MOL
REMARK 924 INTRA-LIGAND FREE ENERGY PREDICTED BY IDOCK:    3.55 KCAL/MOL
REMARK 927      BINDING AFFINITY PREDICTED BY RF-SCORE:    0.00 PKD
ROOT
HETATM    1  C   UNL     1     -11.239  10.432  70.563  1.00  0.00    -0.395 C  
HETATM    2  C   UNL     1     -10.981  10.189  69.108  1.00  0.00    -0.230 C  
HETATM    3  H   UNL     1     -11.797   9.368  67.551  1.00  0.00     0.000 HD 
HETATM    4  O   UNL     1     -11.961   9.523  68.474  1.00  0.00     0.793 OA 
ENDROOT
BRANCH   2   5
HETATM    5  N   UNL     1      -9.903  10.606  68.526  1.00  0.00    -0.162 NA 
HETATM    6  H   UNL     1      -9.197  11.107  69.065  1.00  0.00     0.000 HD 
BRANCH   5   7
HETATM    7  C   UNL     1      -9.701  10.372  67.143  1.00  0.00    -0.172 A  
HETATM    8  C   UNL     1      -9.124   9.146  66.702  1.00  0.00    -0.148 A  
HETATM    9  C   UNL     1      -8.877   8.891  65.326  1.00  0.00    -0.227 A  
HETATM   10  I   UNL     1      -8.740   7.660  68.211  1.00  0.00    -0.118 I  
HETATM   11  C   UNL     1      -9.152   9.925  64.393  1.00  0.00    -0.254 A  
HETATM   12  O   UNL     1     -10.862  11.963  62.859  1.00  0.00    -0.143 OA 
HETATM   13  O   UNL     1      -9.543  13.345  64.070  1.00  0.00     0.308 OA 
HETATM   14  I   UNL     1     -11.563  12.824  66.721  1.00  0.00    -0.411 I  
HETATM   15  C   UNL     1      -9.801  11.111  64.807  1.00  0.00    -0.326 A  
HETATM   16  I   UNL     1      -8.481   9.782  62.346  1.00  0.00    -0.264 I  
HETATM   17  C   UNL     1     -10.139  11.286  66.162  1.00  0.00    -0.236 A  
HETATM   18  C   UNL     1     -10.028  12.246  63.880  1.00  0.00    -0.277 C  
BRANCH   9  19
HETATM   19  C   UNL     1      -8.397   7.563  64.828  1.00  0.00    -0.006 C  
HETATM   20  H   UNL     1      -9.042   5.786  64.324  1.00  0.00     0.000 HD 
HETATM   21  O   UNL     1      -9.346   6.628  64.640  1.00  0.00     0.950 OA 
BRANCH  19  22
HETATM   22  N   UNL     1      -7.148   7.300  64.640  1.00  0.00    -0.055 NA 
HETATM   23  H   UNL     1      -6.818   6.821  63.802  1.00  0.00     0.000 HD 
BRANCH  22  24
HETATM   24  C   UNL     1      -6.225   7.734  65.710  1.00  0.00    -0.042 C  
BRANCH  24  25
HETATM   25  C   UNL     1      -6.527   9.195  66.065  1.00  0.00    -0.068 C  
HETATM   26  O   UNL     1      -5.934  10.068  65.106  1.00  0.00    -0.086 OA 
HETATM   27  H   UNL     1      -6.122  10.973  65.326  1.00  0.00     0.000 HD 
ENDBRANCH  24  25
ENDBRANCH  22  24
ENDBRANCH  19  22
ENDBRANCH   9  19
ENDBRANCH   5   7
ENDBRANCH   2   5
TORSDOF 6
ENDMDL
MODEL      187
REMARK 921   NORMALIZED FREE ENERGY PREDICTED BY IDOCK:    2.74 KCAL/MOL
REMARK 922        TOTAL FREE ENERGY PREDICTED BY IDOCK:    3.19 KCAL/MOL
REMARK 923 INTER-LIGAND FREE ENERGY PREDICTED BY IDOCK:    1.75 KCAL/MOL
REMARK 924 INTRA-LIGAND FREE ENERGY PREDICTED BY IDOCK:    1.44 KCAL/MOL
REMARK 927      BINDING AFFINITY PREDICTED BY RF-SCORE:    0.00 PKD
ROOT
HETATM    1  C   UNL     1      -7.220  10.366  71.615  1.00  0.00     2.624 C  
HETATM    2  C   UNL     1      -6.760   9.148  70.876  1.00  0.00    -0.087 C  
HETATM    3  H   UNL     1      -5.180   8.055  70.609  1.00  0.00     0.000 HD 
HETATM    4  O   UNL     1      -5.471   8.828  71.079  1.00  0.00    -0.031 OA 
ENDROOT
BRANCH   2   5
HETATM    5  N   UNL     1      -7.559   8.466  70.120  1.00  0.00    -0.069 NA 
HETATM    6  H   UNL     1      -7.962   7.594  70.463  1.00  0.00     0.000 HD 
BRANCH   5   7
HETATM    7  C   UNL     1      -7.877   8.924  68.817  1.00  0.00    -0.101 A  
HETATM    8  C   UNL     1      -8.928   9.866  68.626  1.00  0.00    -0.128 A  
HETATM    9  C   UNL     1      -9.294  10.323  67.331  1.00  0.00    -0.163 A  
HETATM   10  I   UNL     1      -9.865  10.643  70.401  1.00  0.00     2.153 I  
HETATM   11  C   UNL     1      -8.631   9.758  66.209  1.00  0.00    -0.127 A  
HETATM   12  O   UNL     1      -6.260   9.055  64.390  1.00  0.00    -0.070 OA 
HETATM   13  O   UNL     1      -6.842   7.001  65.137  1.00  0.00    -0.049 OA 
HETATM   14  I   UNL     1      -5.165   7.650  67.991  1.00  0.00    -0.033 I  
HETATM   15  C   UNL     1      -7.532   8.887  66.389  1.00  0.00    -0.088 A  
HETATM   16  I   UNL     1      -9.351  10.103  64.204  1.00  0.00    -0.235 I  
HETATM   17  C   UNL     1      -7.118   8.544  67.689  1.00  0.00    -0.080 A  
HETATM   18  C   UNL     1      -6.871   8.212  65.247  1.00  0.00    -0.059 C  
BRANCH   9  19
HETATM   19  C   UNL     1     -10.302  11.409  67.116  1.00  0.00    -0.212 C  
HETATM   20  H   UNL     1     -12.232  11.730  67.080  1.00  0.00     0.000 HD 
HETATM   21  O   UNL     1     -11.592  11.041  67.216  1.00  0.00    -0.496 OA 
BRANCH  19  22
HETATM   22  N   UNL     1      -9.970  12.614  66.799  1.00  0.00    -0.229 NA 
HETATM   23  H   UNL     1      -9.649  12.857  65.861  1.00  0.00     0.000 HD 
BRANCH  22  24
HETATM   24  C   UNL     1     -10.081  13.623  67.874  1.00  0.00    -0.244 C  
BRANCH  24  25
HETATM   25  C   UNL     1      -9.103  14.768  67.584  1.00  0.00    -0.185 C  
HETATM   26  O   UNL     1      -8.311  14.462  66.438  1.00  0.00    -0.342 OA 
HETATM   27  H   UNL     1      -7.706  15.171  66.258  1.00  0.00     0.000 HD 
ENDBRANCH  24  25
ENDBRANCH  22  24
ENDBRANCH  19  22
ENDBRANCH   9  19
ENDBRANCH   5   7
ENDBRANCH   2   5
TORSDOF 6
ENDMDL
MODEL      188
REMARK 921   NORMALIZED FREE ENERGY PREDICTED BY IDOCK:    3.81 KCAL/MOL
REMARK 922        TOTAL FREE ENERGY PREDICTED BY IDOCK:    4.63 KCAL/MOL
REMARK 923 INTER-LIGAND FREE ENERGY PREDICTED BY IDOCK:    1.65 KCAL/MOL
REMARK 924 INTRA-LIGAND FREE ENERGY PREDICTED BY IDOCK:    2.98 KCAL/MOL
REMARK 927      BINDING AFFINITY PREDICTED BY RF-SCORE:    0.00 PKD
ROOT
HETATM    1  C   UNL     1      -6.020  10.952  65.347  1.00  0.00     0.014 C  
HETATM    2  C   UNL     1      -6.706  11.933  66.247  1.00  0.00     0.567 C  
HETATM    3  H   UNL     1      -6.699  13.819  66.702  1.00  0.00     0.000 HD 
HETATM    4  O   UNL     1      -6.264  13.197  66.131  1.00  0.00     2.364 OA 
ENDROOT
BRANCH   2   5
HETATM    5  N   UNL     1      -7.654  11.575  67.052  1.00  0.00    -0.148 NA 
HETATM    6  H   UNL     1      -8.511  12.124  67.103  1.00  0.00     0.000 HD 
BRANCH   5   7
HETATM    7  C   UNL     1      -7.505  10.424  67.865  1.00  0.00    -0.087 A  
HETATM    8  C   UNL     1      -8.047   9.175  67.444  1.00  0.00    -0.107 A  
HETATM    9  C   UNL     1      -7.944   8.008  68.248  1.00  0.00    -0.128 A  
HETATM   10  I   UNL     1      -8.937   9.120  65.485  1.00  0.00    -0.225 I  
HETATM   11  C   UNL     1      -7.347   8.128  69.530  1.00  0.00    -0.081 A  
HETATM   12  O   UNL     1      -5.129   8.727  71.567  1.00  0.00    -0.032 OA 
HETATM   13  O   UNL     1      -6.598  10.378  72.046  1.00  0.00     0.692 OA 
HETATM   14  I   UNL     1      -5.397  12.106  69.410  1.00  0.00    -0.082 I  
HETATM   15  C   UNL     1      -6.732   9.339  69.924  1.00  0.00    -0.050 A  
HETATM   16  I   UNL     1      -7.466   6.522  70.967  1.00  0.00    -0.087 I  
HETATM   17  C   UNL     1      -6.748  10.446  69.056  1.00  0.00    -0.061 A  
HETATM   18  C   UNL     1      -6.175   9.529  71.285  1.00  0.00    -0.042 C  
BRANCH   9  19
HETATM   19  C   UNL     1      -8.387   6.660  67.769  1.00  0.00    -0.122 C  
HETATM   20  H   UNL     1      -8.128   5.387  66.305  1.00  0.00     0.000 HD 
HETATM   21  O   UNL     1      -7.847   6.242  66.609  1.00  0.00    -0.101 OA 
BRANCH  19  22
HETATM   22  N   UNL     1      -9.271   5.956  68.390  1.00  0.00    -0.117 NA 
HETATM   23  H   UNL     1      -9.420   6.043  69.396  1.00  0.00     0.000 HD 
BRANCH  22  24
HETATM   24  C   UNL     1     -10.056   5.018  67.560  1.00  0.00    -0.154 C  
BRANCH  24  25
HETATM   25  C   UNL     1      -9.521   5.059  66.123  1.00  0.00    -0.160 C  
HETATM   26  O   UNL     1      -9.745   3.808  65.478  1.00  0.00    -0.199 OA 
HETATM   27  H   UNL     1      -9.415   3.833  64.588  1.00  0.00     0.000 HD 
ENDBRANCH  24  25
ENDBRANCH  22  24
ENDBRANCH  19  22
ENDBRANCH   9  19
ENDBRANCH   5   7
ENDBRANCH   2   5
TORSDOF 6
ENDMDL
MODEL      189
REMARK 921   NORMALIZED FREE ENERGY PREDICTED BY IDOCK:    4.79 KCAL/MOL
REMARK 922        TOTAL FREE ENERGY PREDICTED BY IDOCK:    5.96 KCAL/MOL
REMARK 923 INTER-LIGAND FREE ENERGY PREDICTED BY IDOCK:   -0.25 KCAL/MOL
REMARK 924 INTRA-LIGAND FREE ENERGY PREDICTED BY IDOCK:    6.21 KCAL/MOL
REMARK 927      BINDING AFFINITY PREDICTED BY RF-SCORE:    0.00 PKD
ROOT
HETATM    1  C   UNL     1      -8.321  11.377  68.778  1.00  0.00    -0.096 C  
HETATM    2  C   UNL     1      -9.728  11.486  68.279  1.00  0.00    -0.198 C  
HETATM    3  H   UNL     1     -11.211  10.377  67.701  1.00  0.00     0.000 HD 
HETATM    4  O   UNL     1     -10.318  10.308  68.017  1.00  0.00    -0.162 OA 
ENDROOT
BRANCH   2   5
HETATM    5  N   UNL     1     -10.315  12.631  68.134  1.00  0.00    -0.227 NA 
HETATM    6  H   UNL     1     -11.326  12.700  68.245  1.00  0.00     0.000 HD 
BRANCH   5   7
HETATM    7  C   UNL     1      -9.559  13.787  67.821  1.00  0.00    -0.219 A  
HETATM    8  C   UNL     1     -10.176  14.889  67.160  1.00  0.00    -0.245 A  
HETATM    9  C   UNL     1      -9.440  16.051  66.802  1.00  0.00    -0.250 A  
HETATM   10  I   UNL     1     -12.297  14.749  66.823  1.00  0.00     0.981 I  
HETATM   11  C   UNL     1      -8.043  16.063  67.053  1.00  0.00    -0.222 A  
HETATM   12  O   UNL     1      -5.475  15.960  68.734  1.00  0.00    -0.101 OA 
HETATM   13  O   UNL     1      -5.294  14.030  67.568  1.00  0.00    -0.335 OA 
HETATM   14  I   UNL     1      -7.432  12.602  69.753  1.00  0.00     2.005 I  
HETATM   15  C   UNL     1      -7.436  15.014  67.782  1.00  0.00    -0.175 A  
HETATM   16  I   UNL     1      -6.779  17.607  66.229  1.00  0.00    -0.275 I  
HETATM   17  C   UNL     1      -8.214  13.930  68.226  1.00  0.00    -0.158 A  
HETATM   18  C   UNL     1      -5.969  14.950  67.990  1.00  0.00    -0.148 C  
BRANCH   9  19
HETATM   19  C   UNL     1     -10.093  17.271  66.229  1.00  0.00    -0.316 C  
HETATM   20  H   UNL     1     -10.586  18.093  64.523  1.00  0.00     0.000 HD 
HETATM   21  O   UNL     1     -10.172  17.319  64.887  1.00  0.00    -0.019 OA 
BRANCH  19  22
HETATM   22  N   UNL     1     -10.506  18.248  66.962  1.00  0.00    -0.390 NA 
HETATM   23  H   UNL     1     -11.332  18.165  67.556  1.00  0.00     0.000 HD 
BRANCH  22  24
HETATM   24  C   UNL     1      -9.714  19.494  66.891  1.00  0.00    -0.356 C  
BRANCH  24  25
HETATM   25  C   UNL     1     -10.614  20.627  66.384  1.00  0.00     0.629 C  
HETATM   26  O   UNL     1     -10.661  20.620  64.959  1.00  0.00     0.026 OA 
HETATM   27  H   UNL     1     -11.218  21.321  64.644  1.00  0.00     0.000 HD 
ENDBRANCH  24  25
ENDBRANCH  22  24
ENDBRANCH  19  22
ENDBRANCH   9  19
ENDBRANCH   5   7
ENDBRANCH   2   5
TORSDOF 6
ENDMDL
MODEL      190
REMARK 921   NORMALIZED FREE ENERGY PREDICTED BY IDOCK:    4.80 KCAL/MOL
REMARK 922        TOTAL FREE ENERGY PREDICTED BY IDOCK:    5.97 KCAL/MOL
REMARK 923 INTER-LIGAND FREE ENERGY PREDICTED BY IDOCK:    0.60 KCAL/MOL
REMARK 924 INTRA-LIGAND FREE ENERGY PREDICTED BY IDOCK:    5.36 KCAL/MOL
REMARK 927      BINDING AFFINITY PREDICTED BY RF-SCORE:    0.00 PKD
ROOT
HETATM    1  C   UNL     1      -7.741   7.998  66.532  1.00  0.00    -0.093 C  
HETATM    2  C   UNL     1      -8.516   9.188  67.006  1.00  0.00    -0.123 C  
HETATM    3  H   UNL     1     -10.239  10.051  66.779  1.00  0.00     0.000 HD 
HETATM    4  O   UNL     1      -9.747   9.295  66.478  1.00  0.00    -0.200 OA 
ENDROOT
BRANCH   2   5
HETATM    5  N   UNL     1      -8.027  10.025  67.864  1.00  0.00    -0.104 NA 
HETATM    6  H   UNL     1      -7.073   9.905  68.203  1.00  0.00     0.000 HD 
BRANCH   5   7
HETATM    7  C   UNL     1      -8.812  11.106  68.335  1.00  0.00    -0.157 A  
HETATM    8  C   UNL     1      -8.273  12.424  68.362  1.00  0.00    -0.144 A  
HETATM    9  C   UNL     1      -9.021  13.526  68.857  1.00  0.00     0.221 A  
HETATM   10  I   UNL     1      -6.310  12.682  67.518  1.00  0.00    -0.023 I  
HETATM   11  C   UNL     1     -10.307  13.273  69.402  1.00  0.00     0.418 A  
HETATM   12  O   UNL     1     -13.232  12.340  69.420  1.00  0.00     1.436 OA 
HETATM   13  O   UNL     1     -12.295  10.817  70.804  1.00  0.00    -0.317 OA 
HETATM   14  I   UNL     1     -11.204   9.136  68.090  1.00  0.00     1.116 I  
HETATM   15  C   UNL     1     -10.886  11.986  69.306  1.00  0.00    -0.130 A  
HETATM   16  I   UNL     1     -11.368  14.796  70.504  1.00  0.00    -0.065 I  
HETATM   17  C   UNL     1     -10.165  10.939  68.703  1.00  0.00    -0.189 A  
HETATM   18  C   UNL     1     -12.188  11.663  69.937  1.00  0.00    -0.239 C  
BRANCH   9  19
HETATM   19  C   UNL     1      -8.526  14.938  68.772  1.00  0.00    -0.172 C  
HETATM   20  H   UNL     1      -8.020  16.459  69.893  1.00  0.00     0.000 HD 
HETATM   21  O   UNL     1      -8.333  15.564  69.947  1.00  0.00    -0.113 OA 
BRANCH  19  22
HETATM   22  N   UNL     1      -8.346  15.545  67.649  1.00  0.00    -0.148 NA 
HETATM   23  H   UNL     1      -9.107  16.023  67.166  1.00  0.00     0.000 HD 
BRANCH  22  24
HETATM   24  C   UNL     1      -6.973  15.507  67.103  1.00  0.00    -0.090 C  
BRANCH  24  25
HETATM   25  C   UNL     1      -6.343  16.898  67.245  1.00  0.00    -0.171 C  
HETATM   26  O   UNL     1      -5.193  16.836  68.085  1.00  0.00    -0.110 OA 
HETATM   27  H   UNL     1      -4.803  17.697  68.172  1.00  0.00     0.000 HD 
ENDBRANCH  24  25
ENDBRANCH  22  24
ENDBRANCH  19  22
ENDBRANCH   9  19
ENDBRANCH   5   7
ENDBRANCH   2   5
TORSDOF 6
ENDMDL
MODEL      191
REMARK 921   NORMALIZED FREE ENERGY PREDICTED BY IDOCK:    7.16 KCAL/MOL
REMARK 922        TOTAL FREE ENERGY PREDICTED BY IDOCK:    9.16 KCAL/MOL
REMARK 923 INTER-LIGAND FREE ENERGY PREDICTED BY IDOCK:    1.59 KCAL/MOL
REMARK 924 INTRA-LIGAND FREE ENERGY PREDICTED BY IDOCK:    7.57 KCAL/MOL
REMARK 927      BINDING AFFINITY PREDICTED BY RF-SCORE:    0.00 PKD
ROOT
HETATM    1  C   UNL     1      -7.663   4.603  68.146  1.00  0.00    -0.081 C  
HETATM    2  C   UNL     1      -7.653   6.098  68.064  1.00  0.00    -0.101 C  
HETATM    3  H   UNL     1      -7.690   7.669  69.202  1.00  0.00     0.000 HD 
HETATM    4  O   UNL     1      -7.695   6.720  69.254  1.00  0.00    -0.101 OA 
ENDROOT
BRANCH   2   5
HETATM    5  N   UNL     1      -7.595   6.720  66.930  1.00  0.00    -0.090 NA 
HETATM    6  H   UNL     1      -7.682   6.197  66.059  1.00  0.00     0.000 HD 
BRANCH   5   7
HETATM    7  C   UNL     1      -7.410   8.124  66.894  1.00  0.00    -0.087 A  
HETATM    8  C   UNL     1      -7.775   8.924  68.015  1.00  0.00    -0.101 A  
HETATM    9  C   UNL     1      -7.633  10.338  68.001  1.00  0.00    -0.088 A  
HETATM   10  I   UNL     1      -8.452   7.877  69.769  1.00  0.00    -0.133 I  
HETATM   11  C   UNL     1      -7.184  10.954  66.803  1.00  0.00    -0.134 A  
HETATM   12  O   UNL     1      -5.256  11.563  64.492  1.00  0.00     0.246 OA 
HETATM   13  O   UNL     1      -6.930  10.522  63.382  1.00  0.00    -0.073 OA 
HETATM   14  I   UNL     1      -5.654   7.566  64.390  1.00  0.00    -0.033 I  
HETATM   15  C   UNL     1      -6.740  10.168  65.714  1.00  0.00    -0.110 A  
HETATM   16  I   UNL     1      -7.280  13.096  66.551  1.00  0.00     2.900 I  
HETATM   17  C   UNL     1      -6.784   8.764  65.803  1.00  0.00    -0.068 A  
HETATM   18  C   UNL     1      -6.346  10.773  64.419  1.00  0.00     0.272 C  
BRANCH   9  19
HETATM   19  C   UNL     1      -7.883  11.184  69.211  1.00  0.00    -0.001 C  
HETATM   20  H   UNL     1      -6.974  11.951  70.764  1.00  0.00     0.000 HD 
HETATM   21  O   UNL     1      -6.815  11.414  69.997  1.00  0.00    -0.067 OA 
BRANCH  19  22
HETATM   22  N   UNL     1      -9.054  11.624  69.522  1.00  0.00     0.208 NA 
HETATM   23  H   UNL     1      -9.195  12.300  70.273  1.00  0.00     0.000 HD 
BRANCH  22  24
HETATM   24  C   UNL     1     -10.181  11.092  68.727  1.00  0.00    -0.198 C  
BRANCH  24  25
HETATM   25  C   UNL     1     -11.499  11.533  69.374  1.00  0.00    -0.309 C  
HETATM   26  O   UNL     1     -12.517  11.661  68.384  1.00  0.00    -0.261 OA 
HETATM   27  H   UNL     1     -13.333  11.934  68.785  1.00  0.00     0.000 HD 
ENDBRANCH  24  25
ENDBRANCH  22  24
ENDBRANCH  19  22
ENDBRANCH   9  19
ENDBRANCH   5   7
ENDBRANCH   2   5
TORSDOF 6
ENDMDL
MODEL      192
REMARK 921   NORMALIZED FREE ENERGY PREDICTED BY IDOCK:   10.43 KCAL/MOL
REMARK 922        TOTAL FREE ENERGY PREDICTED BY IDOCK:   13.57 KCAL/MOL
REMARK 923 INTER-LIGAND FREE ENERGY PREDICTED BY IDOCK:   11.89 KCAL/MOL
REMARK 924 INTRA-LIGAND FREE ENERGY PREDICTED BY IDOCK:    1.68 KCAL/MOL
REMARK 927      BINDING AFFINITY PREDICTED BY RF-SCORE:    0.00 PKD
ROOT
HETATM    1  C   UNL     1      -7.764  14.170  67.815  1.00  0.00    -0.175 C  
HETATM    2  C   UNL     1      -6.969  13.368  68.798  1.00  0.00    -0.103 C  
HETATM    3  H   UNL     1      -5.568  13.572  70.124  1.00  0.00     0.000 HD 
HETATM    4  O   UNL     1      -6.072  14.081  69.500  1.00  0.00    -0.096 OA 
ENDROOT
BRANCH   2   5
HETATM    5  N   UNL     1      -7.156  12.097  68.953  1.00  0.00    -0.142 NA 
HETATM    6  H   UNL     1      -6.584  11.577  69.617  1.00  0.00     0.000 HD 
BRANCH   5   7
HETATM    7  C   UNL     1      -8.153  11.424  68.203  1.00  0.00    -0.137 A  
HETATM    8  C   UNL     1      -7.815  10.276  67.430  1.00  0.00    -0.102 A  
HETATM    9  C   UNL     1      -8.782   9.597  66.642  1.00  0.00    -0.146 A  
HETATM   10  I   UNL     1      -5.791   9.561  67.596  1.00  0.00    -0.044 I  
HETATM   11  C   UNL     1     -10.094  10.134  66.581  1.00  0.00    -0.223 A  
HETATM   12  O   UNL     1     -12.821  11.056  67.651  1.00  0.00     2.311 OA 
HETATM   13  O   UNL     1     -11.932  13.032  67.003  1.00  0.00    -0.383 OA 
HETATM   14  I   UNL     1     -10.170  13.093  69.879  1.00  0.00     2.687 I  
HETATM   15  C   UNL     1     -10.464  11.221  67.407  1.00  0.00    -0.247 A  
HETATM   16  I   UNL     1     -11.530   9.403  65.143  1.00  0.00     9.764 I  
HETATM   17  C   UNL     1      -9.512  11.801  68.266  1.00  0.00    -0.193 A  
HETATM   18  C   UNL     1     -11.797  11.863  67.310  1.00  0.00    -0.148 C  
BRANCH   9  19
HETATM   19  C   UNL     1      -8.482   8.314  65.928  1.00  0.00    -0.140 C  
HETATM   20  H   UNL     1      -8.077   6.429  66.261  1.00  0.00     0.000 HD 
HETATM   21  O   UNL     1      -8.267   7.242  66.713  1.00  0.00    -0.116 OA 
BRANCH  19  22
HETATM   22  N   UNL     1      -8.377   8.240  64.645  1.00  0.00    -0.294 NA 
HETATM   23  H   UNL     1      -9.090   8.619  64.023  1.00  0.00     0.000 HD 
BRANCH  22  24
HETATM   24  C   UNL     1      -7.161   7.573  64.131  1.00  0.00    -0.080 C  
BRANCH  24  25
HETATM   25  C   UNL     1      -7.305   6.059  64.323  1.00  0.00    -0.069 C  
HETATM   26  O   UNL     1      -6.872   5.370  63.152  1.00  0.00    -0.035 OA 
HETATM   27  H   UNL     1      -6.961   4.432  63.272  1.00  0.00     0.000 HD 
ENDBRANCH  24  25
ENDBRANCH  22  24
ENDBRANCH  19  22
ENDBRANCH   9  19
ENDBRANCH   5   7
ENDBRANCH   2   5
TORSDOF 6
ENDMDL
MODEL      193
REMARK 921   NORMALIZED FREE ENERGY PREDICTED BY IDOCK:   14.72 KCAL/MOL
REMARK 922        TOTAL FREE ENERGY PREDICTED BY IDOCK:   19.36 KCAL/MOL
REMARK 923 INTER-LIGAND FREE ENERGY PREDICTED BY IDOCK:    5.71 KCAL/MOL
REMARK 924 INTRA-LIGAND FREE ENERGY PREDICTED BY IDOCK:   13.65 KCAL/MOL
REMARK 927      BINDING AFFINITY PREDICTED BY RF-SCORE:    0.00 PKD
ROOT
HETATM    1  C   UNL     1     -11.390  11.078  65.096  1.00  0.00     0.236 C  
HETATM    2  C   UNL     1     -10.205  10.298  65.575  1.00  0.00    -0.238 C  
HETATM    3  H   UNL     1      -9.745   8.577  66.342  1.00  0.00     0.000 HD 
HETATM    4  O   UNL     1     -10.497   9.071  66.038  1.00  0.00    -0.020 OA 
ENDROOT
BRANCH   2   5
HETATM    5  N   UNL     1      -9.005  10.780  65.525  1.00  0.00    -0.189 NA 
HETATM    6  H   UNL     1      -8.306  10.341  64.926  1.00  0.00     0.000 HD 
BRANCH   5   7
HETATM    7  C   UNL     1      -8.656  11.914  66.300  1.00  0.00    -0.016 A  
HETATM    8  C   UNL     1      -7.956  11.753  67.530  1.00  0.00    -0.148 A  
HETATM    9  C   UNL     1      -7.620  12.866  68.348  1.00  0.00    -0.133 A  
HETATM   10  I   UNL     1      -7.343   9.754  68.039  1.00  0.00    -0.080 I  
HETATM   11  C   UNL     1      -8.065  14.152  67.945  1.00  0.00    -0.154 A  
HETATM   12  O   UNL     1      -8.313  16.613  66.126  1.00  0.00    -0.310 OA 
HETATM   13  O   UNL     1     -10.422  15.802  66.028  1.00  0.00    -0.308 OA 
HETATM   14  I   UNL     1      -9.365  13.547  63.752  1.00  0.00     7.019 I  
HETATM   15  C   UNL     1      -8.686  14.336  66.688  1.00  0.00    -0.098 A  
HETATM   16  I   UNL     1      -7.929  15.844  69.280  1.00  0.00    -0.001 I  
HETATM   17  C   UNL     1      -8.902  13.228  65.847  1.00  0.00     0.702 A  
HETATM   18  C   UNL     1      -9.240  15.646  66.270  1.00  0.00    -0.330 C  
BRANCH   9  19
HETATM   19  C   UNL     1      -6.770  12.735  69.574  1.00  0.00     0.032 C  
HETATM   20  H   UNL     1      -5.556  13.757  70.719  1.00  0.00     0.000 HD 
HETATM   21  O   UNL     1      -6.095  13.839  69.941  1.00  0.00    -0.126 OA 
BRANCH  19  22
HETATM   22  N   UNL     1      -6.641  11.624  70.216  1.00  0.00    -0.498 NA 
HETATM   23  H   UNL     1      -5.863  11.456  70.854  1.00  0.00     0.000 HD 
BRANCH  22  24
HETATM   24  C   UNL     1      -7.689  10.609  69.974  1.00  0.00     0.255 C  
BRANCH  24  25
HETATM   25  C   UNL     1      -8.873  11.276  69.264  1.00  0.00     0.269 C  
HETATM   26  O   UNL     1     -10.049  11.172  70.064  1.00  0.00    -0.154 OA 
HETATM   27  H   UNL     1     -10.782  11.586  69.624  1.00  0.00     0.000 HD 
ENDBRANCH  24  25
ENDBRANCH  22  24
ENDBRANCH  19  22
ENDBRANCH   9  19
ENDBRANCH   5   7
ENDBRANCH   2   5
TORSDOF 6
ENDMDL
MODEL      194
REMARK 921   NORMALIZED FREE ENERGY PREDICTED BY IDOCK:   15.64 KCAL/MOL
REMARK 922        TOTAL FREE ENERGY PREDICTED BY IDOCK:   20.61 KCAL/MOL
REMARK 923 INTER-LIGAND FREE ENERGY PREDICTED BY IDOCK:   11.42 KCAL/MOL
REMARK 924 INTRA-LIGAND FREE ENERGY PREDICTED BY IDOCK:    9.19 KCAL/MOL
REMARK 927      BINDING AFFINITY PREDICTED BY RF-SCORE:    0.00 PKD
ROOT
HETATM    1  C   UNL     1     -12.468  12.758  70.994  1.00  0.00    -0.369 C  
HETATM    2  C   UNL     1     -12.965  12.163  69.714  1.00  0.00     0.993 C  
HETATM    3  H   UNL     1     -13.678  10.505  69.001  1.00  0.00     0.000 HD 
HETATM    4  O   UNL     1     -13.362  10.883  69.814  1.00  0.00     0.156 OA 
ENDROOT
BRANCH   2   5
HETATM    5  N   UNL     1     -13.014  12.846  68.616  1.00  0.00     1.309 NA 
HETATM    6  H   UNL     1     -13.825  12.767  68.004  1.00  0.00     0.000 HD 
BRANCH   5   7
HETATM    7  C   UNL     1     -11.944  13.705  68.260  1.00  0.00    -0.350 A  
HETATM    8  C   UNL     1     -11.891  14.281  66.958  1.00  0.00    -0.428 A  
HETATM    9  C   UNL     1     -10.816  15.121  66.557  1.00  0.00    -0.317 A  
HETATM   10  I   UNL     1     -13.569  13.903  65.665  1.00  0.00     3.992 I  
HETATM   11  C   UNL     1      -9.744  15.317  67.467  1.00  0.00    -0.204 A  
HETATM   12  O   UNL     1      -8.376  16.200  70.070  1.00  0.00     0.485 OA 
HETATM   13  O   UNL     1      -8.144  13.954  70.212  1.00  0.00     1.560 OA 
HETATM   14  I   UNL     1     -11.330  13.774  71.306  1.00  0.00     2.699 I  
HETATM   15  C   UNL     1      -9.824  14.821  68.789  1.00  0.00    -0.227 A  
HETATM   16  I   UNL     1      -7.910  16.263  66.835  1.00  0.00    -0.297 I  
HETATM   17  C   UNL     1     -10.957  14.090  69.193  1.00  0.00    -0.230 A  
HETATM   18  C   UNL     1      -8.692  14.932  69.739  1.00  0.00     0.221 C  
BRANCH   9  19
HETATM   19  C   UNL     1     -10.806  15.843  65.245  1.00  0.00    -0.387 C  
HETATM   20  H   UNL     1     -10.384  15.584  63.352  1.00  0.00     0.000 HD 
HETATM   21  O   UNL     1     -10.391  15.127  64.184  1.00  0.00     0.445 OA 
BRANCH  19  22
HETATM   22  N   UNL     1     -11.120  17.088  65.134  1.00  0.00    -0.399 NA 
HETATM   23  H   UNL     1     -12.076  17.418  65.264  1.00  0.00     0.000 HD 
BRANCH  22  24
HETATM   24  C   UNL     1     -10.012  18.011  64.807  1.00  0.00     3.296 C  
BRANCH  24  25
HETATM   25  C   UNL     1      -9.366  18.494  66.111  1.00  0.00    -0.143 C  
HETATM   26  O   UNL     1      -9.912  19.755  66.494  1.00  0.00    -0.386 OA 
HETATM   27  H   UNL     1      -9.513  20.054  67.301  1.00  0.00     0.000 HD 
ENDBRANCH  24  25
ENDBRANCH  22  24
ENDBRANCH  19  22
ENDBRANCH   9  19
ENDBRANCH   5   7
ENDBRANCH   2   5
TORSDOF 6
ENDMDL
MODEL      195
REMARK 921   NORMALIZED FREE ENERGY PREDICTED BY IDOCK:   23.78 KCAL/MOL
REMARK 922        TOTAL FREE ENERGY PREDICTED BY IDOCK:   31.61 KCAL/MOL
REMARK 923 INTER-LIGAND FREE ENERGY PREDICTED BY IDOCK:   28.06 KCAL/MOL
REMARK 924 INTRA-LIGAND FREE ENERGY PREDICTED BY IDOCK:    3.55 KCAL/MOL
REMARK 927      BINDING AFFINITY PREDICTED BY RF-SCORE:    0.00 PKD
ROOT
HETATM    1  C   UNL     1      -7.147  18.228  64.986  1.00  0.00     1.037 C  
HETATM    2  C   UNL     1      -6.022  17.787  65.870  1.00  0.00    -0.180 C  
HETATM    3  H   UNL     1      -4.700  18.503  67.096  1.00  0.00     0.000 HD 
HETATM    4  O   UNL     1      -5.415  18.783  66.536  1.00  0.00    -0.145 OA 
ENDROOT
BRANCH   2   5
HETATM    5  N   UNL     1      -5.687  16.541  65.980  1.00  0.00     0.583 NA 
HETATM    6  H   UNL     1      -5.243  16.063  65.196  1.00  0.00     0.000 HD 
BRANCH   5   7
HETATM    7  C   UNL     1      -5.935  15.838  67.185  1.00  0.00     0.175 A  
HETATM    8  C   UNL     1      -6.079  14.421  67.171  1.00  0.00     0.812 A  
HETATM    9  C   UNL     1      -6.360  13.688  68.356  1.00  0.00    -0.098 A  
HETATM   10  I   UNL     1      -5.747  13.435  65.287  1.00  0.00    14.375 I  
HETATM   11  C   UNL     1      -6.570  14.412  69.558  1.00  0.00    -0.141 A  
HETATM   12  O   UNL     1      -5.870  16.298  71.877  1.00  0.00     0.868 OA 
HETATM   13  O   UNL     1      -7.463  17.506  70.818  1.00  0.00     3.144 OA 
HETATM   14  I   UNL     1      -5.126  18.489  68.592  1.00  0.00    -0.182 I  
HETATM   15  C   UNL     1      -6.348  15.808  69.603  1.00  0.00    -0.178 A  
HETATM   16  I   UNL     1      -7.354  13.440  71.319  1.00  0.00     7.065 I  
HETATM   17  C   UNL     1      -5.957  16.491  68.437  1.00  0.00    -0.123 A  
HETATM   18  C   UNL     1      -6.639  16.610  70.815  1.00  0.00     1.627 C  
BRANCH   9  19
HETATM   19  C   UNL     1      -6.383  12.190  68.389  1.00  0.00    -0.054 C  
HETATM   20  H   UNL     1      -5.204  10.639  68.561  1.00  0.00     0.000 HD 
HETATM   21  O   UNL     1      -5.189  11.588  68.540  1.00  0.00    -0.043 OA 
BRANCH  19  22
HETATM   22  N   UNL     1      -7.464  11.507  68.227  1.00  0.00    -0.096 NA 
HETATM   23  H   UNL     1      -8.359  11.815  68.607  1.00  0.00     0.000 HD 
BRANCH  22  24
HETATM   24  C   UNL     1      -7.331  10.252  67.457  1.00  0.00    -0.089 C  
BRANCH  24  25
HETATM   25  C   UNL     1      -8.730   9.745  67.088  1.00  0.00    -0.132 C  
HETATM   26  O   UNL     1      -9.281  10.536  66.037  1.00  0.00    -0.165 OA 
HETATM   27  H   UNL     1     -10.147  10.221  65.808  1.00  0.00     0.000 HD 
ENDBRANCH  24  25
ENDBRANCH  22  24
ENDBRANCH  19  22
ENDBRANCH   9  19
ENDBRANCH   5   7
ENDBRANCH   2   5
TORSDOF 6
ENDMDL
MODEL      196
REMARK 921   NORMALIZED FREE ENERGY PREDICTED BY IDOCK:   26.62 KCAL/MOL
REMARK 922        TOTAL FREE ENERGY PREDICTED BY IDOCK:   35.44 KCAL/MOL
REMARK 923 INTER-LIGAND FREE ENERGY PREDICTED BY IDOCK:   29.33 KCAL/MOL
REMARK 924 INTRA-LIGAND FREE ENERGY PREDICTED BY IDOCK:    6.12 KCAL/MOL
REMARK 927      BINDING AFFINITY PREDICTED BY RF-SCORE:    0.00 PKD
ROOT
HETATM    1  C   UNL     1      -7.351  18.238  65.371  1.00  0.00     0.318 C  
HETATM    2  C   UNL     1      -6.215  17.808  66.247  1.00  0.00    -0.230 C  
HETATM    3  H   UNL     1      -4.902  18.537  67.475  1.00  0.00     0.000 HD 
HETATM    4  O   UNL     1      -5.623  18.809  66.919  1.00  0.00    -0.144 OA 
ENDROOT
BRANCH   2   5
HETATM    5  N   UNL     1      -5.859  16.568  66.345  1.00  0.00    -0.134 NA 
HETATM    6  H   UNL     1      -5.410  16.105  65.555  1.00  0.00     0.000 HD 
BRANCH   5   7
HETATM    7  C   UNL     1      -6.090  15.850  67.545  1.00  0.00    -0.145 A  
HETATM    8  C   UNL     1      -6.157  14.427  67.527  1.00  0.00     0.073 A  
HETATM    9  C   UNL     1      -6.418  13.678  68.705  1.00  0.00    -0.097 A  
HETATM   10  I   UNL     1      -5.738  13.464  65.648  1.00  0.00    11.107 I  
HETATM   11  C   UNL     1      -6.689  14.387  69.904  1.00  0.00    -0.101 A  
HETATM   12  O   UNL     1      -6.135  16.304  72.238  1.00  0.00     1.798 OA 
HETATM   13  O   UNL     1      -7.772  17.425  71.151  1.00  0.00     5.304 OA 
HETATM   14  I   UNL     1      -5.452  18.538  68.969  1.00  0.00    -0.219 I  
HETATM   15  C   UNL     1      -6.545  15.793  69.955  1.00  0.00    -0.099 A  
HETATM   16  I   UNL     1      -7.451  13.371  71.650  1.00  0.00     9.587 I  
HETATM   17  C   UNL     1      -6.170  16.498  68.796  1.00  0.00    -0.138 A  
HETATM   18  C   UNL     1      -6.901  16.576  71.162  1.00  0.00     3.131 C  
BRANCH   9  19
HETATM   19  C   UNL     1      -6.360  12.181  68.737  1.00  0.00    -0.076 C  
HETATM   20  H   UNL     1      -6.157  10.626  67.566  1.00  0.00     0.000 HD 
HETATM   21  O   UNL     1      -6.194  11.575  67.547  1.00  0.00    -0.060 OA 
BRANCH  19  22
HETATM   22  N   UNL     1      -6.515  11.501  69.821  1.00  0.00    -0.190 NA 
HETATM   23  H   UNL     1      -6.724  11.949  70.714  1.00  0.00     0.000 HD 
BRANCH  22  24
HETATM   24  C   UNL     1      -6.374  10.035  69.694  1.00  0.00    -0.053 C  
BRANCH  24  25
HETATM   25  C   UNL     1      -5.463   9.525  70.817  1.00  0.00    -0.049 C  
HETATM   26  O   UNL     1      -5.309  10.526  71.821  1.00  0.00    -0.254 OA 
HETATM   27  H   UNL     1      -4.745  10.210  72.516  1.00  0.00     0.000 HD 
ENDBRANCH  24  25
ENDBRANCH  22  24
ENDBRANCH  19  22
ENDBRANCH   9  19
ENDBRANCH   5   7
ENDBRANCH   2   5
TORSDOF 6
ENDMDL
MODEL      197
REMARK 921   NORMALIZED FREE ENERGY PREDICTED BY IDOCK:   30.43 KCAL/MOL
REMARK 922        TOTAL FREE ENERGY PREDICTED BY IDOCK:   40.58 KCAL/MOL
REMARK 923 INTER-LIGAND FREE ENERGY PREDICTED BY IDOCK:   18.16 KCAL/MOL
REMARK 924 INTRA-LIGAND FREE ENERGY PREDICTED BY IDOCK:   22.42 KCAL/MOL
REMARK 927      BINDING AFFINITY PREDICTED BY RF-SCORE:    0.00 PKD
ROOT
HETATM    1  C   UNL     1      -9.262  11.665  63.005  1.00  0.00    -0.108 C  
HETATM    2  C   UNL     1      -8.545  12.444  64.063  1.00  0.00     2.437 C  
HETATM    3  H   UNL     1      -7.065  13.679  64.281  1.00  0.00     0.000 HD 
HETATM    4  O   UNL     1      -7.520  13.185  63.609  1.00  0.00     9.244 OA 
ENDROOT
BRANCH   2   5
HETATM    5  N   UNL     1      -8.907  12.404  65.305  1.00  0.00     0.110 NA 
HETATM    6  H   UNL     1      -9.384  11.579  65.668  1.00  0.00     0.000 HD 
BRANCH   5   7
HETATM    7  C   UNL     1      -8.644  13.501  66.162  1.00  0.00     0.764 A  
HETATM    8  C   UNL     1      -7.472  13.512  66.972  1.00  0.00     0.282 A  
HETATM    9  C   UNL     1      -7.193  14.581  67.866  1.00  0.00    -0.169 A  
HETATM   10  I   UNL     1      -6.093  11.882  66.698  1.00  0.00     0.684 I  
HETATM   11  C   UNL     1      -8.155  15.616  67.993  1.00  0.00    -0.136 A  
HETATM   12  O   UNL     1      -9.939  17.942  67.077  1.00  0.00    -0.298 OA 
HETATM   13  O   UNL     1     -11.499  16.372  67.546  1.00  0.00    -0.003 OA 
HETATM   14  I   UNL     1     -10.865  14.959  64.549  1.00  0.00     0.472 I  
HETATM   15  C   UNL     1      -9.280  15.660  67.137  1.00  0.00    -0.226 A  
HETATM   16  I   UNL     1      -8.009  17.082  69.571  1.00  0.00     1.190 I  
HETATM   17  C   UNL     1      -9.468  14.647  66.179  1.00  0.00    -0.276 A  
HETATM   18  C   UNL     1     -10.348  16.676  67.296  1.00  0.00    -0.298 C  
BRANCH   9  19
HETATM   19  C   UNL     1      -5.906  14.679  68.626  1.00  0.00    -0.090 C  
HETATM   20  H   UNL     1      -4.551  13.573  69.504  1.00  0.00     0.000 HD 
HETATM   21  O   UNL     1      -5.367  13.511  69.022  1.00  0.00    -0.069 OA 
BRANCH  19  22
HETATM   22  N   UNL     1      -5.366  15.807  68.937  1.00  0.00    -0.102 NA 
HETATM   23  H   UNL     1      -4.395  16.023  68.708  1.00  0.00     0.000 HD 
BRANCH  22  24
HETATM   24  C   UNL     1      -6.236  16.771  69.645  1.00  0.00    -0.228 C  
BRANCH  24  25
HETATM   25  C   UNL     1      -7.613  16.131  69.861  1.00  0.00     0.483 C  
HETATM   26  O   UNL     1      -8.034  16.313  71.211  1.00  0.00     4.498 OA 
HETATM   27  H   UNL     1      -8.887  15.917  71.345  1.00  0.00     0.000 HD 
ENDBRANCH  24  25
ENDBRANCH  22  24
ENDBRANCH  19  22
ENDBRANCH   9  19
ENDBRANCH   5   7
ENDBRANCH   2   5
TORSDOF 6
ENDMDL
MODEL      198
REMARK 921   NORMALIZED FREE ENERGY PREDICTED BY IDOCK:   34.39 KCAL/MOL
REMARK 922        TOTAL FREE ENERGY PREDICTED BY IDOCK:   45.94 KCAL/MOL
REMARK 923 INTER-LIGAND FREE ENERGY PREDICTED BY IDOCK:   42.02 KCAL/MOL
REMARK 924 INTRA-LIGAND FREE ENERGY PREDICTED BY IDOCK:    3.92 KCAL/MOL
REMARK 927      BINDING AFFINITY PREDICTED BY RF-SCORE:    0.00 PKD
ROOT
HETATM    1  C   UNL     1     -12.207  13.148  71.745  1.00  0.00     0.403 C  
HETATM    2  C   UNL     1     -12.740  13.300  70.355  1.00  0.00    -0.033 C  
HETATM    3  H   UNL     1     -13.968  12.455  69.113  1.00  0.00     0.000 HD 
HETATM    4  O   UNL     1     -13.630  12.359  69.995  1.00  0.00     1.865 OA 
ENDROOT
BRANCH   2   5
HETATM    5  N   UNL     1     -12.372  14.272  69.584  1.00  0.00    -0.469 NA 
HETATM    6  H   UNL     1     -12.948  14.531  68.784  1.00  0.00     0.000 HD 
BRANCH   5   7
HETATM    7  C   UNL     1     -11.172  14.978  69.847  1.00  0.00    -0.276 A  
HETATM    8  C   UNL     1     -10.324  15.375  68.772  1.00  0.00    -0.229 A  
HETATM    9  C   UNL     1      -9.098  16.055  69.001  1.00  0.00    -0.242 A  
HETATM   10  I   UNL     1     -11.043  14.985  66.781  1.00  0.00    -0.216 I  
HETATM   11  C   UNL     1      -8.692  16.270  70.344  1.00  0.00     2.169 A  
HETATM   12  O   UNL     1      -8.877  17.354  73.211  1.00  0.00    13.907 OA 
HETATM   13  O   UNL     1      -9.095  15.134  73.585  1.00  0.00     8.047 OA 
HETATM   14  I   UNL     1     -12.340  15.383  72.698  1.00  0.00    -0.669 I  
HETATM   15  C   UNL     1      -9.560  15.957  71.415  1.00  0.00     3.389 A  
HETATM   16  I   UNL     1      -6.699  16.959  70.806  1.00  0.00     3.356 I  
HETATM   17  C   UNL     1     -10.820  15.389  71.150  1.00  0.00    -0.108 A  
HETATM   18  C   UNL     1      -9.139  16.088  72.831  1.00  0.00    12.240 C  
BRANCH   9  19
HETATM   19  C   UNL     1      -8.259  16.599  67.886  1.00  0.00    -0.180 C  
HETATM   20  H   UNL     1      -6.625  16.234  66.874  1.00  0.00     0.000 HD 
HETATM   21  O   UNL     1      -7.157  15.889  67.581  1.00  0.00    -0.131 OA 
BRANCH  19  22
HETATM   22  N   UNL     1      -8.534  17.705  67.284  1.00  0.00    -0.213 NA 
HETATM   23  H   UNL     1      -9.265  18.334  67.617  1.00  0.00     0.000 HD 
BRANCH  22  24
HETATM   24  C   UNL     1      -7.726  18.010  66.084  1.00  0.00    -0.231 C  
BRANCH  24  25
HETATM   25  C   UNL     1      -6.389  18.618  66.525  1.00  0.00    -0.183 C  
HETATM   26  O   UNL     1      -6.387  20.025  66.295  1.00  0.00    -0.178 OA 
HETATM   27  H   UNL     1      -5.559  20.401  66.568  1.00  0.00     0.000 HD 
ENDBRANCH  24  25
ENDBRANCH  22  24
ENDBRANCH  19  22
ENDBRANCH   9  19
ENDBRANCH   5   7
ENDBRANCH   2   5
TORSDOF 6
ENDMDL
MODEL      199
REMARK 921   NORMALIZED FREE ENERGY PREDICTED BY IDOCK:   38.18 KCAL/MOL
REMARK 922        TOTAL FREE ENERGY PREDICTED BY IDOCK:   51.05 KCAL/MOL
REMARK 923 INTER-LIGAND FREE ENERGY PREDICTED BY IDOCK:   48.79 KCAL/MOL
REMARK 924 INTRA-LIGAND FREE ENERGY PREDICTED BY IDOCK:    2.26 KCAL/MOL
REMARK 927      BINDING AFFINITY PREDICTED BY RF-SCORE:    0.00 PKD
ROOT
HETATM    1  C   UNL     1      -7.631  17.908  71.462  1.00  0.00     7.829 C  
HETATM    2  C   UNL     1      -7.491  16.927  70.339  1.00  0.00     2.381 C  
HETATM    3  H   UNL     1      -6.180  16.271  69.068  1.00  0.00     0.000 HD 
HETATM    4  O   UNL     1      -6.269  16.892  69.781  1.00  0.00    -0.229 OA 
ENDROOT
BRANCH   2   5
HETATM    5  N   UNL     1      -8.474  16.175  69.961  1.00  0.00     0.708 NA 
HETATM    6  H   UNL     1      -9.425  16.544  69.960  1.00  0.00     0.000 HD 
BRANCH   5   7
HETATM    7  C   UNL     1      -8.236  14.840  69.550  1.00  0.00     0.051 A  
HETATM    8  C   UNL     1      -8.051  13.814  70.520  1.00  0.00     3.297 A  
HETATM    9  C   UNL     1      -7.779  12.471  70.143  1.00  0.00     2.585 A  
HETATM   10  I   UNL     1      -8.308  14.376  72.582  1.00  0.00    12.846 I  
HETATM   11  C   UNL     1      -7.619  12.182  68.763  1.00  0.00    -0.056 A  
HETATM   12  O   UNL     1      -8.430  11.978  65.808  1.00  0.00     0.237 OA 
HETATM   13  O   UNL     1      -6.847  13.589  65.700  1.00  0.00     5.294 OA 
HETATM   14  I   UNL     1      -9.155  15.817  66.746  1.00  0.00    -0.364 I  
HETATM   15  C   UNL     1      -7.882  13.172  67.787  1.00  0.00    -0.152 A  
HETATM   16  I   UNL     1      -6.851  10.274  68.108  1.00  0.00    -0.066 I  
HETATM   17  C   UNL     1      -8.264  14.465  68.190  1.00  0.00    -0.149 A  
HETATM   18  C   UNL     1      -7.644  12.933  66.343  1.00  0.00     1.210 C  
BRANCH   9  19
HETATM   19  C   UNL     1      -7.714  11.353  71.138  1.00  0.00     5.821 C  
HETATM   20  H   UNL     1      -7.137  10.953  72.964  1.00  0.00     0.000 HD 
HETATM   21  O   UNL     1      -7.178  11.662  72.333  1.00  0.00     7.360 OA 
BRANCH  19  22
HETATM   22  N   UNL     1      -8.093  10.152  70.861  1.00  0.00    -0.115 NA 
HETATM   23  H   UNL     1      -8.493   9.908  69.955  1.00  0.00     0.000 HD 
BRANCH  22  24
HETATM   24  C   UNL     1      -7.913   9.151  71.934  1.00  0.00     0.406 C  
BRANCH  24  25
HETATM   25  C   UNL     1      -6.604   8.390  71.689  1.00  0.00    -0.067 C  
HETATM   26  O   UNL     1      -6.038   8.773  70.438  1.00  0.00    -0.033 OA 
HETATM   27  H   UNL     1      -5.227   8.302  70.287  1.00  0.00     0.000 HD 
ENDBRANCH  24  25
ENDBRANCH  22  24
ENDBRANCH  19  22
ENDBRANCH   9  19
ENDBRANCH   5   7
ENDBRANCH   2   5
TORSDOF 6
ENDMDL
