MODEL        1
REMARK 921   NORMALIZED FREE ENERGY PREDICTED BY IDOCK:   -6.06 KCAL/MOL
REMARK 922        TOTAL FREE ENERGY PREDICTED BY IDOCK:  -10.57 KCAL/MOL
REMARK 923 INTER-LIGAND FREE ENERGY PREDICTED BY IDOCK:   -9.96 KCAL/MOL
REMARK 924 INTRA-LIGAND FREE ENERGY PREDICTED BY IDOCK:   -0.61 KCAL/MOL
REMARK 927      BINDING AFFINITY PREDICTED BY RF-SCORE:    0.00 PKD
ROOT
HETATM    1  C   UNL     1      -9.605  14.215  66.162  1.00  0.00    -0.278 C  
HETATM    2  C   UNL     1      -9.413  12.849  66.758  1.00  0.00    -0.245 C  
HETATM    3  N   UNL     1     -10.370  11.872  66.468  1.00  0.00    -0.212 N  
HETATM    4  O   UNL     1      -8.415  12.619  67.445  1.00  0.00    -0.168 OA 
ENDROOT
BRANCH   3   5
HETATM    5  C   UNL     1     -10.151  10.596  67.085  1.00  0.00    -0.207 A  
HETATM    6  I   UNL     1      -8.930   6.457  69.544  1.00  0.00    -0.136 I  
HETATM    7  C   UNL     1      -9.654   8.153  68.393  1.00  0.00    -0.147 A  
HETATM    8  C   UNL     1      -9.489   9.542  66.398  1.00  0.00    -0.195 A  
HETATM    9  I   UNL     1      -9.003   9.821  64.306  1.00  0.00    -0.206 I  
HETATM   10  C   UNL     1     -10.669  10.375  68.388  1.00  0.00    -0.225 A  
HETATM   11  C   UNL     1     -10.416   9.157  69.057  1.00  0.00    -0.238 A  
HETATM   12  C   UNL     1      -9.231   8.309  67.047  1.00  0.00    -0.187 A  
HETATM   13  I   UNL     1     -11.906  11.934  69.282  1.00  0.00    -0.288 I  
BRANCH  12  14
HETATM   14  C   UNL     1      -8.442   7.250  66.338  1.00  0.00    -0.129 C  
HETATM   15  N   UNL     1      -9.146   6.259  65.681  1.00  0.00    -0.357 N  
HETATM   16  O   UNL     1      -7.216   7.277  66.365  1.00  0.00    -0.075 OA 
HETATM   17  H   UNL     1     -10.166   6.280  65.698  1.00  0.00     0.000 HD 
BRANCH  15  18
HETATM   18  C   UNL     1      -8.466   5.183  64.964  1.00  0.00    -0.148 C  
BRANCH  18  19
HETATM   19  C   UNL     1      -9.190   3.836  65.114  1.00  0.00    -0.150 C  
HETATM   20  H   UNL     1      -9.954   2.787  66.591  1.00  0.00     0.000 HD 
HETATM   21  O   UNL     1      -9.506   3.620  66.498  1.00  0.00    -0.184 OA 
BRANCH  19  22
HETATM   22  C   UNL     1     -10.464   3.779  64.254  1.00  0.00    -0.241 C  
HETATM   23  O   UNL     1     -11.546   4.478  64.866  1.00  0.00    -1.064 OA 
HETATM   24  H   UNL     1     -12.333   4.443  64.336  1.00  0.00     0.000 HD 
ENDBRANCH  19  22
ENDBRANCH  18  19
ENDBRANCH  15  18
ENDBRANCH  12  14
BRANCH  11  25
HETATM   25  C   UNL     1     -11.007   8.877  70.394  1.00  0.00    -0.244 C  
HETATM   26  O   UNL     1     -10.467   9.326  71.400  1.00  0.00    -0.319 OA 
HETATM   27  H   UNL     1     -12.573   7.783  69.568  1.00  0.00     0.000 HD 
HETATM   28  N   UNL     1     -12.150   8.097  70.441  1.00  0.00     0.152 N  
BRANCH  28  29
HETATM   29  C   UNL     1     -12.762   7.713  71.699  1.00  0.00    -0.343 C  
BRANCH  29  30
HETATM   30  C   UNL     1     -14.048   8.494  71.926  1.00  0.00    -0.447 C  
HETATM   31  O   UNL     1     -14.110   8.921  73.289  1.00  0.00    -1.211 OA 
HETATM   32  H   UNL     1     -14.913   9.409  73.431  1.00  0.00     0.000 HD 
ENDBRANCH  29  30
ENDBRANCH  28  29
ENDBRANCH  11  25
ENDBRANCH   3   5
BRANCH   3  33
HETATM   33  C   UNL     1     -11.659  12.106  65.757  1.00  0.00    -0.355 C  
BRANCH  33  34
HETATM   34  C   UNL     1     -11.578  12.490  64.254  1.00  0.00    -0.371 C  
HETATM   35  O   UNL     1     -12.137  11.480  63.400  1.00  0.00    -0.755 OA 
HETATM   36  H   UNL     1     -12.088  11.715  62.481  1.00  0.00     0.000 HD 
BRANCH  34  37
HETATM   37  C   UNL     1     -12.300  13.815  63.946  1.00  0.00    -0.292 C  
HETATM   38  H   UNL     1     -13.621  15.002  64.824  1.00  0.00     0.000 HD 
HETATM   39  O   UNL     1     -13.175  14.185  65.014  1.00  0.00    -0.691 OA 
ENDBRANCH  34  37
ENDBRANCH  33  34
ENDBRANCH   3  33
TORSDOF 11
ENDMDL
MODEL        2
REMARK 921   NORMALIZED FREE ENERGY PREDICTED BY IDOCK:   -5.83 KCAL/MOL
REMARK 922        TOTAL FREE ENERGY PREDICTED BY IDOCK:  -10.18 KCAL/MOL
REMARK 923 INTER-LIGAND FREE ENERGY PREDICTED BY IDOCK:   -8.80 KCAL/MOL
REMARK 924 INTRA-LIGAND FREE ENERGY PREDICTED BY IDOCK:   -1.39 KCAL/MOL
REMARK 927      BINDING AFFINITY PREDICTED BY RF-SCORE:    0.00 PKD
ROOT
HETATM    1  C   UNL     1     -12.539  12.430  64.549  1.00  0.00    -0.477 C  
HETATM    2  C   UNL     1     -11.205  13.004  64.937  1.00  0.00    -0.302 C  
HETATM    3  N   UNL     1     -11.040  13.434  66.257  1.00  0.00    -0.291 N  
HETATM    4  O   UNL     1     -10.296  13.046  64.105  1.00  0.00    -0.419 OA 
ENDROOT
BRANCH   3   5
HETATM    5  C   UNL     1      -9.758  13.997  66.563  1.00  0.00    -0.295 A  
HETATM    6  I   UNL     1      -5.496  15.933  68.224  1.00  0.00    -0.144 I  
HETATM    7  C   UNL     1      -7.256  15.065  67.289  1.00  0.00    -0.140 A  
HETATM    8  C   UNL     1      -9.477  15.372  66.335  1.00  0.00    -0.296 A  
HETATM    9  I   UNL     1     -10.959  16.570  65.307  1.00  0.00     0.285 I  
HETATM   10  C   UNL     1      -8.736  13.137  67.043  1.00  0.00    -0.189 A  
HETATM   11  C   UNL     1      -7.481  13.664  67.420  1.00  0.00    -0.139 A  
HETATM   12  C   UNL     1      -8.223  15.921  66.700  1.00  0.00    -0.317 A  
HETATM   13  I   UNL     1      -9.144  10.995  67.114  1.00  0.00    -0.167 I  
BRANCH  12  14
HETATM   14  C   UNL     1      -7.985  17.393  66.545  1.00  0.00    -0.281 C  
HETATM   15  N   UNL     1      -8.438  18.224  67.551  1.00  0.00    -0.247 N  
HETATM   16  O   UNL     1      -7.418  17.820  65.545  1.00  0.00    -0.491 OA 
HETATM   17  H   UNL     1      -8.912  17.817  68.357  1.00  0.00     0.000 HD 
BRANCH  15  18
HETATM   18  C   UNL     1      -8.254  19.673  67.489  1.00  0.00    -0.297 C  
BRANCH  18  19
HETATM   19  C   UNL     1      -9.550  20.407  67.114  1.00  0.00    -0.447 C  
HETATM   20  H   UNL     1     -10.612  20.678  65.482  1.00  0.00     0.000 HD 
HETATM   21  O   UNL     1      -9.811  20.223  65.714  1.00  0.00    -0.357 OA 
BRANCH  19  22
HETATM   22  C   UNL     1     -10.742  19.918  67.954  1.00  0.00    -0.181 C  
HETATM   23  O   UNL     1     -10.405  19.806  69.335  1.00  0.00    -0.638 OA 
HETATM   24  H   UNL     1     -11.141  19.504  69.854  1.00  0.00     0.000 HD 
ENDBRANCH  19  22
ENDBRANCH  18  19
ENDBRANCH  15  18
ENDBRANCH  12  14
BRANCH  11  25
HETATM   25  C   UNL     1      -6.374  12.772  67.859  1.00  0.00    -0.118 C  
HETATM   26  O   UNL     1      -5.571  12.352  67.032  1.00  0.00    -0.295 OA 
HETATM   27  H   UNL     1      -6.985  12.849  69.847  1.00  0.00     0.000 HD 
HETATM   28  N   UNL     1      -6.310  12.439  69.202  1.00  0.00    -0.089 N  
BRANCH  28  29
HETATM   29  C   UNL     1      -5.309  11.522  69.715  1.00  0.00    -0.068 C  
BRANCH  29  30
HETATM   30  C   UNL     1      -5.930  10.568  70.726  1.00  0.00    -0.073 C  
HETATM   31  O   UNL     1      -7.328  10.437  70.459  1.00  0.00    -0.449 OA 
HETATM   32  H   UNL     1      -7.715   9.842  71.090  1.00  0.00     0.000 HD 
ENDBRANCH  29  30
ENDBRANCH  28  29
ENDBRANCH  11  25
ENDBRANCH   3   5
BRANCH   3  33
HETATM   33  C   UNL     1     -12.122  13.532  67.278  1.00  0.00    -0.323 C  
BRANCH  33  34
HETATM   34  C   UNL     1     -11.777  14.256  68.608  1.00  0.00    -0.345 C  
HETATM   35  O   UNL     1     -12.515  15.476  68.774  1.00  0.00    -0.555 OA 
HETATM   36  H   UNL     1     -12.304  15.919  69.587  1.00  0.00     0.000 HD 
BRANCH  34  37
HETATM   37  C   UNL     1     -12.043  13.376  69.843  1.00  0.00    -0.322 C  
HETATM   38  H   UNL     1     -12.876  13.572  71.629  1.00  0.00     0.000 HD 
HETATM   39  O   UNL     1     -12.712  14.115  70.867  1.00  0.00    -0.330 OA 
ENDBRANCH  34  37
ENDBRANCH  33  34
ENDBRANCH   3  33
TORSDOF 11
ENDMDL
MODEL        3
REMARK 921   NORMALIZED FREE ENERGY PREDICTED BY IDOCK:   -5.71 KCAL/MOL
REMARK 922        TOTAL FREE ENERGY PREDICTED BY IDOCK:   -9.99 KCAL/MOL
REMARK 923 INTER-LIGAND FREE ENERGY PREDICTED BY IDOCK:   -9.19 KCAL/MOL
REMARK 924 INTRA-LIGAND FREE ENERGY PREDICTED BY IDOCK:   -0.80 KCAL/MOL
REMARK 927      BINDING AFFINITY PREDICTED BY RF-SCORE:    0.00 PKD
ROOT
HETATM    1  C   UNL     1      -6.305   5.238  66.271  1.00  0.00    -0.039 C  
HETATM    2  C   UNL     1      -7.092   6.216  67.098  1.00  0.00    -0.070 C  
HETATM    3  N   UNL     1      -8.428   6.434  66.750  1.00  0.00    -0.110 N  
HETATM    4  O   UNL     1      -6.558   6.763  68.065  1.00  0.00    -0.053 OA 
ENDROOT
BRANCH   3   5
HETATM    5  C   UNL     1      -9.122   7.396  67.555  1.00  0.00    -0.125 A  
HETATM    6  I   UNL     1     -12.054  10.497  70.097  1.00  0.00    -0.308 I  
HETATM    7  C   UNL     1     -10.595   9.215  69.119  1.00  0.00    -0.208 A  
HETATM    8  C   UNL     1      -9.165   8.771  67.198  1.00  0.00    -0.136 A  
HETATM    9  I   UNL     1      -7.974   9.437  65.516  1.00  0.00    -0.130 I  
HETATM   10  C   UNL     1      -9.720   6.962  68.768  1.00  0.00    -0.137 A  
HETATM   11  C   UNL     1     -10.470   7.865  69.554  1.00  0.00    -0.226 A  
HETATM   12  C   UNL     1      -9.906   9.696  67.975  1.00  0.00    -0.175 A  
HETATM   13  I   UNL     1      -9.390   4.899  69.396  1.00  0.00    -0.243 I  
BRANCH  12  14
HETATM   14  C   UNL     1     -10.021  11.120  67.523  1.00  0.00    -0.181 C  
HETATM   15  N   UNL     1     -11.018  11.426  66.617  1.00  0.00    -0.291 N  
HETATM   16  O   UNL     1      -9.238  11.963  67.947  1.00  0.00    -0.174 OA 
HETATM   17  H   UNL     1     -11.637  10.684  66.289  1.00  0.00     0.000 HD 
BRANCH  15  18
HETATM   18  C   UNL     1     -11.209  12.785  66.116  1.00  0.00    -0.298 C  
BRANCH  18  19
HETATM   19  C   UNL     1     -12.403  12.889  65.155  1.00  0.00    -0.493 C  
HETATM   20  H   UNL     1     -13.837  14.186  64.800  1.00  0.00     0.000 HD 
HETATM   21  O   UNL     1     -13.099  14.122  65.394  1.00  0.00    -0.743 OA 
BRANCH  19  22
HETATM   22  C   UNL     1     -11.956  12.798  63.685  1.00  0.00    -0.539 C  
HETATM   23  O   UNL     1     -12.480  13.872  62.907  1.00  0.00    -1.034 OA 
HETATM   24  H   UNL     1     -12.205  13.816  62.000  1.00  0.00     0.000 HD 
ENDBRANCH  19  22
ENDBRANCH  18  19
ENDBRANCH  15  18
ENDBRANCH  12  14
BRANCH  11  25
HETATM   25  C   UNL     1     -11.046   7.449  70.861  1.00  0.00    -0.263 C  
HETATM   26  O   UNL     1     -12.163   6.941  70.897  1.00  0.00    -0.381 OA 
HETATM   27  H   UNL     1      -9.352   8.065  71.901  1.00  0.00     0.000 HD 
HETATM   28  N   UNL     1     -10.288   7.672  71.999  1.00  0.00    -0.200 N  
BRANCH  28  29
HETATM   29  C   UNL     1     -10.790   7.364  73.325  1.00  0.00    -0.368 C  
BRANCH  29  30
HETATM   30  C   UNL     1     -10.525   5.906  73.669  1.00  0.00    -0.265 C  
HETATM   31  O   UNL     1     -11.708   5.139  73.434  1.00  0.00    -0.498 OA 
HETATM   32  H   UNL     1     -11.543   4.229  73.648  1.00  0.00     0.000 HD 
ENDBRANCH  29  30
ENDBRANCH  28  29
ENDBRANCH  11  25
ENDBRANCH   3   5
BRANCH   3  33
HETATM   33  C   UNL     1      -9.103   5.911  65.528  1.00  0.00     0.010 C  
BRANCH  33  34
HETATM   34  C   UNL     1     -10.077   4.715  65.713  1.00  0.00    -0.244 C  
HETATM   35  O   UNL     1     -11.453   5.117  65.649  1.00  0.00    -0.787 OA 
HETATM   36  H   UNL     1     -12.049   4.386  65.763  1.00  0.00     0.000 HD 
BRANCH  34  37
HETATM   37  C   UNL     1      -9.861   3.612  64.661  1.00  0.00    -0.181 C  
HETATM   38  H   UNL     1     -10.907   2.728  63.230  1.00  0.00     0.000 HD 
HETATM   39  O   UNL     1     -11.040   3.409  63.879  1.00  0.00    -0.296 OA 
ENDBRANCH  34  37
ENDBRANCH  33  34
ENDBRANCH   3  33
TORSDOF 11
ENDMDL
MODEL        4
REMARK 921   NORMALIZED FREE ENERGY PREDICTED BY IDOCK:   -5.70 KCAL/MOL
REMARK 922        TOTAL FREE ENERGY PREDICTED BY IDOCK:   -9.98 KCAL/MOL
REMARK 923 INTER-LIGAND FREE ENERGY PREDICTED BY IDOCK:   -8.72 KCAL/MOL
REMARK 924 INTRA-LIGAND FREE ENERGY PREDICTED BY IDOCK:   -1.25 KCAL/MOL
REMARK 927      BINDING AFFINITY PREDICTED BY RF-SCORE:    0.00 PKD
ROOT
HETATM    1  C   UNL     1      -6.408   4.951  65.947  1.00  0.00    -0.039 C  
HETATM    2  C   UNL     1      -7.094   6.135  66.570  1.00  0.00    -0.068 C  
HETATM    3  N   UNL     1      -8.448   6.327  66.285  1.00  0.00    -0.128 N  
HETATM    4  O   UNL     1      -6.462   6.872  67.331  1.00  0.00    -0.045 OA 
ENDROOT
BRANCH   3   5
HETATM    5  C   UNL     1      -9.043   7.486  66.882  1.00  0.00    -0.141 A  
HETATM    6  I   UNL     1     -11.656  11.259  68.784  1.00  0.00    -0.378 I  
HETATM    7  C   UNL     1     -10.326   9.698  68.060  1.00  0.00    -0.218 A  
HETATM    8  C   UNL     1      -9.023   8.750  66.233  1.00  0.00    -0.173 A  
HETATM    9  I   UNL     1      -7.881   8.951  64.403  1.00  0.00    -0.150 I  
HETATM   10  C   UNL     1      -9.603   7.368  68.182  1.00  0.00    -0.142 A  
HETATM   11  C   UNL     1     -10.259   8.469  68.777  1.00  0.00    -0.217 A  
HETATM   12  C   UNL     1      -9.668   9.870  66.814  1.00  0.00    -0.244 A  
HETATM   13  I   UNL     1      -9.363   5.474  69.237  1.00  0.00    -0.195 I  
BRANCH  12  14
HETATM   14  C   UNL     1      -9.723  11.166  66.063  1.00  0.00    -0.226 C  
HETATM   15  N   UNL     1     -10.673  11.292  65.069  1.00  0.00    -0.281 N  
HETATM   16  O   UNL     1      -8.931  12.063  66.332  1.00  0.00    -0.203 OA 
HETATM   17  H   UNL     1     -11.301  10.510  64.880  1.00  0.00     0.000 HD 
BRANCH  15  18
HETATM   18  C   UNL     1     -10.803  12.516  64.282  1.00  0.00    -0.364 C  
BRANCH  18  19
HETATM   19  C   UNL     1     -12.214  13.117  64.371  1.00  0.00    -0.398 C  
HETATM   20  H   UNL     1     -14.055  12.429  64.413  1.00  0.00     0.000 HD 
HETATM   21  O   UNL     1     -13.183  12.057  64.359  1.00  0.00    -0.669 OA 
BRANCH  19  22
HETATM   22  C   UNL     1     -12.381  13.986  65.630  1.00  0.00    -0.479 C  
HETATM   23  O   UNL     1     -11.133  14.220  66.279  1.00  0.00    -0.312 OA 
HETATM   24  H   UNL     1     -11.236  14.757  67.056  1.00  0.00     0.000 HD 
ENDBRANCH  19  22
ENDBRANCH  18  19
ENDBRANCH  15  18
ENDBRANCH  12  14
BRANCH  11  25
HETATM   25  C   UNL     1     -10.791   8.388  70.164  1.00  0.00    -0.236 C  
HETATM   26  O   UNL     1     -10.093   8.759  71.103  1.00  0.00    -0.206 OA 
HETATM   27  H   UNL     1     -12.610   7.614  69.513  1.00  0.00     0.000 HD 
HETATM   28  N   UNL     1     -12.065   7.872  70.335  1.00  0.00     0.117 N  
BRANCH  28  29
HETATM   29  C   UNL     1     -12.645   7.689  71.652  1.00  0.00    -0.339 C  
BRANCH  29  30
HETATM   30  C   UNL     1     -13.829   8.625  71.847  1.00  0.00    -0.432 C  
HETATM   31  O   UNL     1     -13.967   8.934  73.236  1.00  0.00    -1.203 OA 
HETATM   32  H   UNL     1     -14.707   9.518  73.357  1.00  0.00     0.000 HD 
ENDBRANCH  29  30
ENDBRANCH  28  29
ENDBRANCH  11  25
ENDBRANCH   3   5
BRANCH   3  33
HETATM   33  C   UNL     1      -9.240   5.558  65.282  1.00  0.00     0.053 C  
BRANCH  33  34
HETATM   34  C   UNL     1     -10.093   4.372  65.812  1.00  0.00    -0.245 C  
HETATM   35  O   UNL     1     -11.389   4.314  65.199  1.00  0.00    -0.953 OA 
HETATM   36  H   UNL     1     -11.911   3.589  65.523  1.00  0.00     0.000 HD 
BRANCH  34  37
HETATM   37  C   UNL     1      -9.409   3.011  65.591  1.00  0.00    -0.091 C  
HETATM   38  H   UNL     1      -8.446   1.662  66.676  1.00  0.00     0.000 HD 
HETATM   39  O   UNL     1      -8.869   2.502  66.812  1.00  0.00    -0.118 OA 
ENDBRANCH  34  37
ENDBRANCH  33  34
ENDBRANCH   3  33
TORSDOF 11
ENDMDL
MODEL        5
REMARK 921   NORMALIZED FREE ENERGY PREDICTED BY IDOCK:   -5.68 KCAL/MOL
REMARK 922        TOTAL FREE ENERGY PREDICTED BY IDOCK:   -9.95 KCAL/MOL
REMARK 923 INTER-LIGAND FREE ENERGY PREDICTED BY IDOCK:   -9.13 KCAL/MOL
REMARK 924 INTRA-LIGAND FREE ENERGY PREDICTED BY IDOCK:   -0.82 KCAL/MOL
REMARK 927      BINDING AFFINITY PREDICTED BY RF-SCORE:    0.00 PKD
ROOT
HETATM    1  C   UNL     1      -9.290  13.770  67.157  1.00  0.00    -0.240 C  
HETATM    2  C   UNL     1      -9.172  12.315  67.512  1.00  0.00    -0.181 C  
HETATM    3  N   UNL     1     -10.209  11.463  67.121  1.00  0.00    -0.198 N  
HETATM    4  O   UNL     1      -8.164  11.911  68.098  1.00  0.00    -0.142 OA 
ENDROOT
BRANCH   3   5
HETATM    5  C   UNL     1     -10.056  10.092  67.510  1.00  0.00    -0.198 A  
HETATM    6  I   UNL     1      -9.068   5.540  69.236  1.00  0.00    -0.162 I  
HETATM    7  C   UNL     1      -9.692   7.440  68.382  1.00  0.00    -0.153 A  
HETATM    8  C   UNL     1      -9.414   9.146  66.666  1.00  0.00    -0.185 A  
HETATM    9  I   UNL     1      -8.854   9.763  64.667  1.00  0.00    -0.286 I  
HETATM   10  C   UNL     1     -10.622   9.669  68.742  1.00  0.00    -0.216 A  
HETATM   11  C   UNL     1     -10.435   8.344  69.194  1.00  0.00    -0.218 A  
HETATM   12  C   UNL     1      -9.222   7.809  67.095  1.00  0.00    -0.174 A  
HETATM   13  I   UNL     1     -11.826  11.100  69.865  1.00  0.00    -0.482 I  
BRANCH  12  14
HETATM   14  C   UNL     1      -8.452   6.857  66.230  1.00  0.00    -0.131 C  
HETATM   15  N   UNL     1      -9.173   5.974  65.451  1.00  0.00    -0.369 N  
HETATM   16  O   UNL     1      -7.226   6.872  66.243  1.00  0.00    -0.068 OA 
HETATM   17  H   UNL     1     -10.193   5.998  65.486  1.00  0.00     0.000 HD 
BRANCH  15  18
HETATM   18  C   UNL     1      -8.513   5.007  64.577  1.00  0.00    -0.142 C  
BRANCH  18  19
HETATM   19  C   UNL     1      -9.167   3.619  64.647  1.00  0.00    -0.143 C  
HETATM   20  H   UNL     1      -9.600   2.317  66.056  1.00  0.00     0.000 HD 
HETATM   21  O   UNL     1      -9.195   3.176  66.013  1.00  0.00    -0.153 OA 
BRANCH  19  22
HETATM   22  C   UNL     1     -10.587   3.631  64.055  1.00  0.00    -0.263 C  
HETATM   23  O   UNL     1     -11.509   4.305  64.908  1.00  0.00    -1.029 OA 
HETATM   24  H   UNL     1     -12.386   4.313  64.543  1.00  0.00     0.000 HD 
ENDBRANCH  19  22
ENDBRANCH  18  19
ENDBRANCH  15  18
ENDBRANCH  12  14
BRANCH  11  25
HETATM   25  C   UNL     1     -11.077   7.862  70.447  1.00  0.00    -0.245 C  
HETATM   26  O   UNL     1     -12.158   7.284  70.389  1.00  0.00    -0.162 OA 
HETATM   27  H   UNL     1      -9.508   8.560  71.622  1.00  0.00     0.000 HD 
HETATM   28  N   UNL     1     -10.421   8.107  71.641  1.00  0.00    -0.217 N  
BRANCH  28  29
HETATM   29  C   UNL     1     -10.998   7.737  72.920  1.00  0.00    -0.407 C  
BRANCH  29  30
HETATM   30  C   UNL     1     -10.813   6.248  73.177  1.00  0.00    -0.254 C  
HETATM   31  O   UNL     1     -12.059   5.574  72.984  1.00  0.00    -0.547 OA 
HETATM   32  H   UNL     1     -11.943   4.645  73.144  1.00  0.00     0.000 HD 
ENDBRANCH  29  30
ENDBRANCH  28  29
ENDBRANCH  11  25
ENDBRANCH   3   5
BRANCH   3  33
HETATM   33  C   UNL     1     -11.507  11.894  66.528  1.00  0.00    -0.314 C  
BRANCH  33  34
HETATM   34  C   UNL     1     -11.460  12.542  65.117  1.00  0.00    -0.328 C  
HETATM   35  O   UNL     1     -11.951  11.662  64.095  1.00  0.00    -0.269 OA 
HETATM   36  H   UNL     1     -11.922  12.058  63.232  1.00  0.00     0.000 HD 
BRANCH  34  37
HETATM   37  C   UNL     1     -12.274  13.846  65.042  1.00  0.00    -0.425 C  
HETATM   38  H   UNL     1     -13.142  14.954  63.647  1.00  0.00     0.000 HD 
HETATM   39  O   UNL     1     -12.640  14.148  63.693  1.00  0.00    -0.831 OA 
ENDBRANCH  34  37
ENDBRANCH  33  34
ENDBRANCH   3  33
TORSDOF 11
ENDMDL
MODEL        6
REMARK 921   NORMALIZED FREE ENERGY PREDICTED BY IDOCK:   -5.63 KCAL/MOL
REMARK 922        TOTAL FREE ENERGY PREDICTED BY IDOCK:   -9.85 KCAL/MOL
REMARK 923 INTER-LIGAND FREE ENERGY PREDICTED BY IDOCK:   -9.11 KCAL/MOL
REMARK 924 INTRA-LIGAND FREE ENERGY PREDICTED BY IDOCK:   -0.75 KCAL/MOL
REMARK 927      BINDING AFFINITY PREDICTED BY RF-SCORE:    0.00 PKD
ROOT
HETATM    1  C   UNL     1      -6.158   7.088  65.344  1.00  0.00    -0.037 C  
HETATM    2  C   UNL     1      -6.964   7.960  66.266  1.00  0.00    -0.063 C  
HETATM    3  N   UNL     1      -8.321   7.663  66.422  1.00  0.00    -0.123 N  
HETATM    4  O   UNL     1      -6.409   8.876  66.878  1.00  0.00    -0.058 OA 
ENDROOT
BRANCH   3   5
HETATM    5  C   UNL     1      -9.046   8.543  67.291  1.00  0.00    -0.133 A  
HETATM    6  I   UNL     1     -12.019  11.168  70.281  1.00  0.00    -0.429 I  
HETATM    7  C   UNL     1     -10.548  10.171  69.028  1.00  0.00    -0.223 A  
HETATM    8  C   UNL     1      -9.662   9.727  66.803  1.00  0.00    -0.194 A  
HETATM    9  I   UNL     1      -9.304  10.303  64.746  1.00  0.00    -0.389 I  
HETATM   10  C   UNL     1      -9.086   8.246  68.679  1.00  0.00    -0.140 A  
HETATM   11  C   UNL     1      -9.846   9.050  69.557  1.00  0.00    -0.181 A  
HETATM   12  C   UNL     1     -10.424  10.553  67.667  1.00  0.00    -0.276 A  
HETATM   13  I   UNL     1      -7.898   6.566  69.406  1.00  0.00    -0.108 I  
BRANCH  12  14
HETATM   14  C   UNL     1     -11.148  11.740  67.109  1.00  0.00    -0.296 C  
HETATM   15  N   UNL     1     -10.499  12.959  67.139  1.00  0.00    -0.237 N  
HETATM   16  O   UNL     1     -12.282  11.611  66.660  1.00  0.00    -0.210 OA 
HETATM   17  H   UNL     1      -9.559  13.012  67.533  1.00  0.00     0.000 HD 
BRANCH  15  18
HETATM   18  C   UNL     1     -11.124  14.174  66.621  1.00  0.00    -0.312 C  
BRANCH  18  19
HETATM   19  C   UNL     1     -10.578  14.564  65.239  1.00  0.00    -0.383 C  
HETATM   20  H   UNL     1     -10.915  14.038  63.374  1.00  0.00     0.000 HD 
HETATM   21  O   UNL     1     -11.252  13.797  64.229  1.00  0.00    -0.373 OA 
BRANCH  19  22
HETATM   22  C   UNL     1     -10.740  16.070  64.970  1.00  0.00    -0.378 C  
HETATM   23  O   UNL     1     -11.579  16.319  63.845  1.00  0.00    -1.489 OA 
HETATM   24  H   UNL     1     -11.679  17.248  63.679  1.00  0.00     0.000 HD 
ENDBRANCH  19  22
ENDBRANCH  18  19
ENDBRANCH  15  18
ENDBRANCH  12  14
BRANCH  11  25
HETATM   25  C   UNL     1      -9.845   8.798  71.023  1.00  0.00    -0.230 C  
HETATM   26  O   UNL     1      -8.935   9.244  71.714  1.00  0.00    -0.298 OA 
HETATM   27  H   UNL     1     -11.629   7.730  70.928  1.00  0.00     0.000 HD 
HETATM   28  N   UNL     1     -10.882   8.043  71.547  1.00  0.00    -0.228 N  
BRANCH  28  29
HETATM   29  C   UNL     1     -10.934   7.686  72.952  1.00  0.00    -0.400 C  
BRANCH  29  30
HETATM   30  C   UNL     1     -10.704   6.192  73.130  1.00  0.00    -0.260 C  
HETATM   31  O   UNL     1     -11.931   5.493  72.907  1.00  0.00    -0.537 OA 
HETATM   32  H   UNL     1     -11.787   4.560  73.018  1.00  0.00     0.000 HD 
ENDBRANCH  29  30
ENDBRANCH  28  29
ENDBRANCH  11  25
ENDBRANCH   3   5
BRANCH   3  33
HETATM   33  C   UNL     1      -9.085   6.659  65.627  1.00  0.00     0.110 C  
BRANCH  33  34
HETATM   34  C   UNL     1      -9.952   5.641  66.418  1.00  0.00    -0.152 C  
HETATM   35  O   UNL     1     -11.310   5.605  65.957  1.00  0.00    -0.712 OA 
HETATM   36  H   UNL     1     -11.840   4.982  66.440  1.00  0.00     0.000 HD 
BRANCH  34  37
HETATM   37  C   UNL     1      -9.393   4.209  66.341  1.00  0.00    -0.171 C  
HETATM   38  H   UNL     1      -9.102   2.681  67.567  1.00  0.00     0.000 HD 
HETATM   39  O   UNL     1      -9.447   3.565  67.615  1.00  0.00    -0.197 OA 
ENDBRANCH  34  37
ENDBRANCH  33  34
ENDBRANCH   3  33
TORSDOF 11
ENDMDL
MODEL        7
REMARK 921   NORMALIZED FREE ENERGY PREDICTED BY IDOCK:   -5.54 KCAL/MOL
REMARK 922        TOTAL FREE ENERGY PREDICTED BY IDOCK:   -9.71 KCAL/MOL
REMARK 923 INTER-LIGAND FREE ENERGY PREDICTED BY IDOCK:   -8.61 KCAL/MOL
REMARK 924 INTRA-LIGAND FREE ENERGY PREDICTED BY IDOCK:   -1.09 KCAL/MOL
REMARK 927      BINDING AFFINITY PREDICTED BY RF-SCORE:    0.00 PKD
ROOT
HETATM    1  C   UNL     1      -5.219   9.040  68.352  1.00  0.00    -0.037 C  
HETATM    2  C   UNL     1      -6.476   9.217  69.157  1.00  0.00    -0.042 C  
HETATM    3  N   UNL     1      -7.628   8.559  68.719  1.00  0.00    -0.095 N  
HETATM    4  O   UNL     1      -6.448   9.898  70.185  1.00  0.00    -0.067 OA 
ENDROOT
BRANCH   3   5
HETATM    5  C   UNL     1      -8.802   8.787  69.508  1.00  0.00    -0.144 A  
HETATM    6  I   UNL     1     -13.143   9.127  71.899  1.00  0.00    -0.587 I  
HETATM    7  C   UNL     1     -11.155   9.116  71.019  1.00  0.00    -0.305 A  
HETATM    8  C   UNL     1      -9.633   9.920  69.295  1.00  0.00    -0.205 A  
HETATM    9  I   UNL     1      -8.975  11.431  67.890  1.00  0.00    -0.169 I  
HETATM   10  C   UNL     1      -9.094   7.885  70.566  1.00  0.00    -0.154 A  
HETATM   11  C   UNL     1     -10.278   8.035  71.323  1.00  0.00    -0.230 A  
HETATM   12  C   UNL     1     -10.821  10.095  70.047  1.00  0.00    -0.361 A  
HETATM   13  I   UNL     1      -7.641   6.322  71.015  1.00  0.00    -0.092 I  
BRANCH  12  14
HETATM   14  C   UNL     1     -11.733  11.243  69.736  1.00  0.00    -0.349 C  
HETATM   15  N   UNL     1     -11.675  12.350  70.560  1.00  0.00    -0.487 N  
HETATM   16  O   UNL     1     -12.504  11.172  68.784  1.00  0.00    -0.468 OA 
HETATM   17  H   UNL     1     -11.022  12.352  71.344  1.00  0.00     0.000 HD 
BRANCH  15  18
HETATM   18  C   UNL     1     -12.526  13.517  70.338  1.00  0.00    -0.275 C  
BRANCH  18  19
HETATM   19  C   UNL     1     -12.448  14.522  71.497  1.00  0.00    -0.355 C  
HETATM   20  H   UNL     1     -12.605  16.471  71.705  1.00  0.00     0.000 HD 
HETATM   21  O   UNL     1     -12.654  15.849  70.988  1.00  0.00    -0.443 OA 
BRANCH  19  22
HETATM   22  C   UNL     1     -13.475  14.201  72.596  1.00  0.00    -0.534 C  
HETATM   23  O   UNL     1     -13.767  12.806  72.655  1.00  0.00    -0.671 OA 
HETATM   24  H   UNL     1     -14.401  12.607  73.333  1.00  0.00     0.000 HD 
ENDBRANCH  19  22
ENDBRANCH  18  19
ENDBRANCH  15  18
ENDBRANCH  12  14
BRANCH  11  25
HETATM   25  C   UNL     1     -10.568   7.145  72.478  1.00  0.00    -0.240 C  
HETATM   26  O   UNL     1     -10.250   7.499  73.610  1.00  0.00    -0.338 OA 
HETATM   27  H   UNL     1     -11.451   5.708  71.260  1.00  0.00     0.000 HD 
HETATM   28  N   UNL     1     -11.179   5.930  72.217  1.00  0.00    -0.278 N  
BRANCH  28  29
HETATM   29  C   UNL     1     -11.441   4.964  73.268  1.00  0.00    -0.274 C  
BRANCH  29  30
HETATM   30  C   UNL     1     -10.542   3.747  73.108  1.00  0.00    -0.182 C  
HETATM   31  O   UNL     1     -11.178   2.607  73.691  1.00  0.00    -0.209 OA 
HETATM   32  H   UNL     1     -10.616   1.847  73.592  1.00  0.00     0.000 HD 
ENDBRANCH  29  30
ENDBRANCH  28  29
ENDBRANCH  11  25
ENDBRANCH   3   5
BRANCH   3  33
HETATM   33  C   UNL     1      -7.770   7.828  67.427  1.00  0.00    -0.113 C  
BRANCH  33  34
HETATM   34  C   UNL     1      -9.201   7.384  67.019  1.00  0.00    -0.142 C  
HETATM   35  O   UNL     1      -9.598   7.920  65.748  1.00  0.00    -0.418 OA 
HETATM   36  H   UNL     1     -10.474   7.649  65.498  1.00  0.00     0.000 HD 
BRANCH  34  37
HETATM   37  C   UNL     1      -9.344   5.853  66.945  1.00  0.00    -0.129 C  
HETATM   38  H   UNL     1     -10.615   4.533  66.192  1.00  0.00     0.000 HD 
HETATM   39  O   UNL     1     -10.527   5.479  66.236  1.00  0.00    -0.219 OA 
ENDBRANCH  34  37
ENDBRANCH  33  34
ENDBRANCH   3  33
TORSDOF 11
ENDMDL
MODEL        8
REMARK 921   NORMALIZED FREE ENERGY PREDICTED BY IDOCK:   -5.48 KCAL/MOL
REMARK 922        TOTAL FREE ENERGY PREDICTED BY IDOCK:   -9.61 KCAL/MOL
REMARK 923 INTER-LIGAND FREE ENERGY PREDICTED BY IDOCK:   -9.32 KCAL/MOL
REMARK 924 INTRA-LIGAND FREE ENERGY PREDICTED BY IDOCK:   -0.29 KCAL/MOL
REMARK 927      BINDING AFFINITY PREDICTED BY RF-SCORE:    0.00 PKD
ROOT
HETATM    1  C   UNL     1      -7.010   6.972  71.973  1.00  0.00    -0.065 C  
HETATM    2  C   UNL     1      -7.849   8.060  71.363  1.00  0.00    -0.094 C  
HETATM    3  N   UNL     1      -8.729   7.706  70.337  1.00  0.00    -0.142 N  
HETATM    4  O   UNL     1      -7.767   9.210  71.802  1.00  0.00    -0.344 OA 
ENDROOT
BRANCH   3   5
HETATM    5  C   UNL     1      -9.483   8.787  69.774  1.00  0.00    -0.167 A  
HETATM    6  I   UNL     1     -11.640  12.911  68.037  1.00  0.00    -0.382 I  
HETATM    7  C   UNL     1     -10.854  10.986  68.674  1.00  0.00    -0.215 A  
HETATM    8  C   UNL     1     -10.654   9.285  70.407  1.00  0.00    -0.248 A  
HETATM    9  I   UNL     1     -11.415   8.234  72.141  1.00  0.00    -0.460 I  
HETATM   10  C   UNL     1      -9.075   9.320  68.523  1.00  0.00    -0.132 A  
HETATM   11  C   UNL     1      -9.749  10.430  67.968  1.00  0.00    -0.166 A  
HETATM   12  C   UNL     1     -11.351  10.394  69.865  1.00  0.00    -0.370 A  
HETATM   13  I   UNL     1      -7.434   8.337  67.473  1.00  0.00    -0.095 I  
BRANCH  12  14
HETATM   14  C   UNL     1     -12.523  10.966  70.603  1.00  0.00    -0.369 C  
HETATM   15  N   UNL     1     -12.309  12.097  71.367  1.00  0.00    -0.169 N  
HETATM   16  O   UNL     1     -13.620  10.422  70.526  1.00  0.00    -0.021 OA 
HETATM   17  H   UNL     1     -11.374  12.502  71.403  1.00  0.00     0.000 HD 
BRANCH  15  18
HETATM   18  C   UNL     1     -13.389  12.726  72.123  1.00  0.00    -0.492 C  
BRANCH  18  19
HETATM   19  C   UNL     1     -13.110  14.209  72.410  1.00  0.00    -0.434 C  
HETATM   20  H   UNL     1     -11.722  15.516  71.928  1.00  0.00     0.000 HD 
HETATM   21  O   UNL     1     -11.895  14.599  71.751  1.00  0.00    -0.338 OA 
BRANCH  19  22
HETATM   22  C   UNL     1     -14.279  15.103  71.961  1.00  0.00    -0.577 C  
HETATM   23  O   UNL     1     -14.179  15.448  70.580  1.00  0.00    -0.781 OA 
HETATM   24  H   UNL     1     -14.900  16.000  70.303  1.00  0.00     0.000 HD 
ENDBRANCH  19  22
ENDBRANCH  18  19
ENDBRANCH  15  18
ENDBRANCH  12  14
BRANCH  11  25
HETATM   25  C   UNL     1      -9.382  10.959  66.627  1.00  0.00    -0.171 C  
HETATM   26  O   UNL     1      -8.535  11.843  66.535  1.00  0.00    -0.173 OA 
HETATM   27  H   UNL     1     -10.706   9.675  65.662  1.00  0.00     0.000 HD 
HETATM   28  N   UNL     1     -10.037  10.433  65.526  1.00  0.00    -0.287 N  
BRANCH  28  29
HETATM   29  C   UNL     1      -9.799  10.931  64.184  1.00  0.00    -0.314 C  
BRANCH  29  30
HETATM   30  C   UNL     1     -10.880  11.925  63.785  1.00  0.00    -0.418 C  
HETATM   31  O   UNL     1     -11.818  11.285  62.918  1.00  0.00    -0.852 OA 
HETATM   32  H   UNL     1     -12.493  11.905  62.669  1.00  0.00     0.000 HD 
ENDBRANCH  29  30
ENDBRANCH  28  29
ENDBRANCH  11  25
ENDBRANCH   3   5
BRANCH   3  33
HETATM   33  C   UNL     1      -8.793   6.372  69.672  1.00  0.00    -0.137 C  
BRANCH  33  34
HETATM   34  C   UNL     1     -10.046   5.499  69.956  1.00  0.00    -0.241 C  
HETATM   35  O   UNL     1     -11.159   5.854  69.122  1.00  0.00    -0.351 OA 
HETATM   36  H   UNL     1     -11.925   5.320  69.296  1.00  0.00     0.000 HD 
BRANCH  34  37
HETATM   37  C   UNL     1      -9.773   3.997  69.758  1.00  0.00    -0.184 C  
HETATM   38  H   UNL     1      -9.305   2.432  70.879  1.00  0.00     0.000 HD 
HETATM   39  O   UNL     1      -9.474   3.359  71.001  1.00  0.00    -0.134 OA 
ENDBRANCH  34  37
ENDBRANCH  33  34
ENDBRANCH   3  33
TORSDOF 11
ENDMDL
MODEL        9
REMARK 921   NORMALIZED FREE ENERGY PREDICTED BY IDOCK:   -5.38 KCAL/MOL
REMARK 922        TOTAL FREE ENERGY PREDICTED BY IDOCK:   -9.44 KCAL/MOL
REMARK 923 INTER-LIGAND FREE ENERGY PREDICTED BY IDOCK:   -8.29 KCAL/MOL
REMARK 924 INTRA-LIGAND FREE ENERGY PREDICTED BY IDOCK:   -1.15 KCAL/MOL
REMARK 927      BINDING AFFINITY PREDICTED BY RF-SCORE:    0.00 PKD
ROOT
HETATM    1  C   UNL     1      -9.771   3.784  66.545  1.00  0.00    -0.147 C  
HETATM    2  C   UNL     1     -10.104   5.235  66.750  1.00  0.00    -0.224 C  
HETATM    3  N   UNL     1      -9.114   6.061  67.289  1.00  0.00    -0.112 N  
HETATM    4  O   UNL     1     -11.211   5.658  66.409  1.00  0.00    -0.075 OA 
ENDROOT
BRANCH   3   5
HETATM    5  C   UNL     1      -9.497   7.428  67.488  1.00  0.00    -0.138 A  
HETATM    6  I   UNL     1     -11.410  11.975  68.064  1.00  0.00    -0.414 I  
HETATM    7  C   UNL     1     -10.372  10.072  67.897  1.00  0.00    -0.207 A  
HETATM    8  C   UNL     1      -9.264   8.417  66.494  1.00  0.00    -0.189 A  
HETATM    9  I   UNL     1      -8.117   7.867  64.742  1.00  0.00    -0.022 I  
HETATM   10  C   UNL     1     -10.060   7.800  68.737  1.00  0.00    -0.196 A  
HETATM   11  C   UNL     1     -10.513   9.121  68.948  1.00  0.00    -0.239 A  
HETATM   12  C   UNL     1      -9.704   9.750  66.687  1.00  0.00    -0.257 A  
HETATM   13  I   UNL     1     -10.142   6.297  70.316  1.00  0.00    -0.272 I  
BRANCH  12  14
HETATM   14  C   UNL     1      -9.539  10.752  65.584  1.00  0.00    -0.216 C  
HETATM   15  N   UNL     1     -10.483  10.755  64.575  1.00  0.00    -0.339 N  
HETATM   16  O   UNL     1      -8.585  11.522  65.593  1.00  0.00    -0.047 OA 
HETATM   17  H   UNL     1     -11.252  10.085  64.612  1.00  0.00     0.000 HD 
BRANCH  15  18
HETATM   18  C   UNL     1     -10.407  11.692  63.457  1.00  0.00    -0.441 C  
BRANCH  18  19
HETATM   19  C   UNL     1     -11.563  12.703  63.467  1.00  0.00    -0.514 C  
HETATM   20  H   UNL     1     -13.502  12.646  63.789  1.00  0.00     0.000 HD 
HETATM   21  O   UNL     1     -12.787  12.021  63.783  1.00  0.00    -0.668 OA 
BRANCH  19  22
HETATM   22  C   UNL     1     -11.309  13.845  64.467  1.00  0.00    -0.372 C  
HETATM   23  O   UNL     1      -9.924  13.973  64.780  1.00  0.00    -0.592 OA 
HETATM   24  H   UNL     1      -9.767  14.678  65.397  1.00  0.00     0.000 HD 
ENDBRANCH  19  22
ENDBRANCH  18  19
ENDBRANCH  15  18
ENDBRANCH  12  14
BRANCH  11  25
HETATM   25  C   UNL     1     -11.042   9.549  70.271  1.00  0.00    -0.271 C  
HETATM   26  O   UNL     1     -10.261   9.882  71.157  1.00  0.00    -0.097 OA 
HETATM   27  H   UNL     1     -13.015   9.283  69.665  1.00  0.00     0.000 HD 
HETATM   28  N   UNL     1     -12.415   9.535  70.450  1.00  0.00     0.069 N  
BRANCH  28  29
HETATM   29  C   UNL     1     -13.024   9.870  71.724  1.00  0.00    -0.449 C  
BRANCH  29  30
HETATM   30  C   UNL     1     -13.965   8.760  72.172  1.00  0.00    -0.460 C  
HETATM   31  O   UNL     1     -14.239   8.904  73.567  1.00  0.00    -1.194 OA 
HETATM   32  H   UNL     1     -14.825   8.212  73.847  1.00  0.00     0.000 HD 
ENDBRANCH  29  30
ENDBRANCH  28  29
ENDBRANCH  11  25
ENDBRANCH   3   5
BRANCH   3  33
HETATM   33  C   UNL     1      -7.806   5.601  67.839  1.00  0.00    -0.097 C  
BRANCH  33  34
HETATM   34  C   UNL     1      -6.640   6.627  67.844  1.00  0.00    -0.058 C  
HETATM   35  O   UNL     1      -6.344   7.111  69.163  1.00  0.00    -0.033 OA 
HETATM   36  H   UNL     1      -5.631   7.738  69.166  1.00  0.00     0.000 HD 
BRANCH  34  37
HETATM   37  C   UNL     1      -5.342   6.045  67.256  1.00  0.00    -0.005 C  
HETATM   38  H   UNL     1      -4.813   4.871  65.751  1.00  0.00     0.000 HD 
HETATM   39  O   UNL     1      -5.614   5.231  66.113  1.00  0.00    -0.016 OA 
ENDBRANCH  34  37
ENDBRANCH  33  34
ENDBRANCH   3  33
TORSDOF 11
ENDMDL
MODEL       10
REMARK 921   NORMALIZED FREE ENERGY PREDICTED BY IDOCK:   -5.38 KCAL/MOL
REMARK 922        TOTAL FREE ENERGY PREDICTED BY IDOCK:   -9.44 KCAL/MOL
REMARK 923 INTER-LIGAND FREE ENERGY PREDICTED BY IDOCK:   -8.38 KCAL/MOL
REMARK 924 INTRA-LIGAND FREE ENERGY PREDICTED BY IDOCK:   -1.06 KCAL/MOL
REMARK 927      BINDING AFFINITY PREDICTED BY RF-SCORE:    0.00 PKD
ROOT
HETATM    1  C   UNL     1      -8.925   8.660  71.656  1.00  0.00    -0.305 C  
HETATM    2  C   UNL     1      -8.896   9.288  70.291  1.00  0.00    -0.224 C  
HETATM    3  N   UNL     1      -9.853   8.871  69.362  1.00  0.00    -0.179 N  
HETATM    4  O   UNL     1      -8.066  10.166  70.043  1.00  0.00    -0.166 OA 
ENDROOT
BRANCH   3   5
HETATM    5  C   UNL     1      -9.761   9.484  68.069  1.00  0.00    -0.147 A  
HETATM    6  I   UNL     1      -9.983  11.315  63.457  1.00  0.00    -0.473 I  
HETATM    7  C   UNL     1      -9.709  10.663  65.513  1.00  0.00    -0.237 A  
HETATM    8  C   UNL     1      -8.868   8.995  67.077  1.00  0.00    -0.119 A  
HETATM    9  I   UNL     1      -7.477   7.428  67.624  1.00  0.00    -0.101 I  
HETATM   10  C   UNL     1     -10.538  10.643  67.810  1.00  0.00    -0.236 A  
HETATM   11  C   UNL     1     -10.528  11.236  66.528  1.00  0.00    -0.299 A  
HETATM   12  C   UNL     1      -8.835   9.578  65.786  1.00  0.00    -0.193 A  
HETATM   13  I   UNL     1     -11.683  11.503  69.457  1.00  0.00    -0.431 I  
BRANCH  12  14
HETATM   14  C   UNL     1      -7.960   8.981  64.725  1.00  0.00    -0.129 C  
HETATM   15  N   UNL     1      -8.450   7.895  64.026  1.00  0.00    -0.379 N  
HETATM   16  O   UNL     1      -6.847   9.451  64.514  1.00  0.00    -0.087 OA 
HETATM   17  H   UNL     1      -9.380   7.539  64.249  1.00  0.00     0.000 HD 
BRANCH  15  18
HETATM   18  C   UNL     1      -7.671   7.245  62.975  1.00  0.00    -0.124 C  
BRANCH  18  19
HETATM   19  C   UNL     1      -7.512   5.736  63.219  1.00  0.00    -0.067 C  
HETATM   20  H   UNL     1      -6.645   4.595  64.565  1.00  0.00     0.000 HD 
HETATM   21  O   UNL     1      -6.744   5.528  64.415  1.00  0.00    -0.044 OA 
BRANCH  19  22
HETATM   22  C   UNL     1      -8.876   5.032  63.323  1.00  0.00    -0.036 C  
HETATM   23  O   UNL     1      -9.442   5.169  64.625  1.00  0.00    -0.360 OA 
HETATM   24  H   UNL     1     -10.284   4.735  64.689  1.00  0.00     0.000 HD 
ENDBRANCH  19  22
ENDBRANCH  18  19
ENDBRANCH  15  18
ENDBRANCH  12  14
BRANCH  11  25
HETATM   25  C   UNL     1     -11.280  12.490  66.256  1.00  0.00    -0.315 C  
HETATM   26  O   UNL     1     -12.479  12.434  66.000  1.00  0.00    -0.551 OA 
HETATM   27  H   UNL     1      -9.588  13.669  66.542  1.00  0.00     0.000 HD 
HETATM   28  N   UNL     1     -10.576  13.683  66.288  1.00  0.00    -0.286 N  
BRANCH  28  29
HETATM   29  C   UNL     1     -11.205  14.951  65.970  1.00  0.00    -0.327 C  
BRANCH  29  30
HETATM   30  C   UNL     1     -10.520  15.599  64.775  1.00  0.00    -0.073 C  
HETATM   31  O   UNL     1     -11.463  16.410  64.070  1.00  0.00    -1.465 OA 
HETATM   32  H   UNL     1     -11.036  16.815  63.324  1.00  0.00     0.000 HD 
ENDBRANCH  29  30
ENDBRANCH  28  29
ENDBRANCH  11  25
ENDBRANCH   3   5
BRANCH   3  33
HETATM   33  C   UNL     1     -10.801   7.734  69.544  1.00  0.00    -0.153 C  
BRANCH  33  34
HETATM   34  C   UNL     1     -10.204   6.301  69.492  1.00  0.00    -0.194 C  
HETATM   35  O   UNL     1     -10.446   5.564  70.699  1.00  0.00    -0.248 OA 
HETATM   36  H   UNL     1     -10.081   4.687  70.667  1.00  0.00     0.000 HD 
BRANCH  34  37
HETATM   37  C   UNL     1     -10.763   5.475  68.319  1.00  0.00    -0.081 C  
HETATM   38  H   UNL     1     -11.393   5.796  66.469  1.00  0.00     0.000 HD 
HETATM   39  O   UNL     1     -11.048   6.306  67.192  1.00  0.00    -0.358 OA 
ENDBRANCH  34  37
ENDBRANCH  33  34
ENDBRANCH   3  33
TORSDOF 11
ENDMDL
MODEL       11
REMARK 921   NORMALIZED FREE ENERGY PREDICTED BY IDOCK:   -5.34 KCAL/MOL
REMARK 922        TOTAL FREE ENERGY PREDICTED BY IDOCK:   -9.39 KCAL/MOL
REMARK 923 INTER-LIGAND FREE ENERGY PREDICTED BY IDOCK:   -8.56 KCAL/MOL
REMARK 924 INTRA-LIGAND FREE ENERGY PREDICTED BY IDOCK:   -0.83 KCAL/MOL
REMARK 927      BINDING AFFINITY PREDICTED BY RF-SCORE:    0.00 PKD
ROOT
HETATM    1  C   UNL     1     -10.872   6.624  70.322  1.00  0.00    -0.321 C  
HETATM    2  C   UNL     1     -10.713   7.380  69.033  1.00  0.00    -0.148 C  
HETATM    3  N   UNL     1      -9.916   8.528  69.045  1.00  0.00    -0.187 N  
HETATM    4  O   UNL     1     -11.250   6.953  68.008  1.00  0.00    -0.133 OA 
ENDROOT
BRANCH   3   5
HETATM    5  C   UNL     1      -9.823   9.224  67.795  1.00  0.00    -0.171 A  
HETATM    6  I   UNL     1     -10.049  11.368  63.321  1.00  0.00    -0.319 I  
HETATM    7  C   UNL     1      -9.769  10.571  65.324  1.00  0.00    -0.270 A  
HETATM    8  C   UNL     1      -8.957   8.778  66.760  1.00  0.00    -0.135 A  
HETATM    9  I   UNL     1      -7.605   7.139  67.181  1.00  0.00    -0.108 I  
HETATM   10  C   UNL     1     -10.569  10.419  67.627  1.00  0.00    -0.257 A  
HETATM   11  C   UNL     1     -10.558  11.097  66.387  1.00  0.00    -0.315 A  
HETATM   12  C   UNL     1      -8.924   9.446  65.510  1.00  0.00    -0.248 A  
HETATM   13  I   UNL     1     -11.668  11.197  69.344  1.00  0.00    -0.454 I  
BRANCH  12  14
HETATM   14  C   UNL     1      -8.080   8.898  64.400  1.00  0.00    -0.153 C  
HETATM   15  N   UNL     1      -8.617   7.889  63.625  1.00  0.00    -0.359 N  
HETATM   16  O   UNL     1      -6.950   9.338  64.214  1.00  0.00    -0.093 OA 
HETATM   17  H   UNL     1      -9.559   7.553  63.828  1.00  0.00     0.000 HD 
BRANCH  15  18
HETATM   18  C   UNL     1      -7.871   7.290  62.520  1.00  0.00    -0.127 C  
BRANCH  18  19
HETATM   19  C   UNL     1      -7.233   5.948  62.909  1.00  0.00    -0.052 C  
HETATM   20  H   UNL     1      -5.556   5.359  63.749  1.00  0.00     0.000 HD 
HETATM   21  O   UNL     1      -5.950   6.189  63.508  1.00  0.00    -0.022 OA 
BRANCH  19  22
HETATM   22  C   UNL     1      -8.134   5.149  63.866  1.00  0.00    -0.119 C  
HETATM   23  O   UNL     1      -9.473   5.062  63.382  1.00  0.00    -0.348 OA 
HETATM   24  H   UNL     1     -10.029   4.569  63.973  1.00  0.00     0.000 HD 
ENDBRANCH  19  22
ENDBRANCH  18  19
ENDBRANCH  15  18
ENDBRANCH  12  14
BRANCH  11  25
HETATM   25  C   UNL     1     -11.277  12.387  66.210  1.00  0.00    -0.317 C  
HETATM   26  O   UNL     1     -12.457  12.382  65.874  1.00  0.00    -0.583 OA 
HETATM   27  H   UNL     1      -9.595  13.495  66.736  1.00  0.00     0.000 HD 
HETATM   28  N   UNL     1     -10.563  13.555  66.422  1.00  0.00    -0.280 N  
BRANCH  28  29
HETATM   29  C   UNL     1     -11.156  14.862  66.209  1.00  0.00    -0.340 C  
BRANCH  29  30
HETATM   30  C   UNL     1     -10.317  15.675  65.234  1.00  0.00    -0.375 C  
HETATM   31  O   UNL     1     -11.137  16.105  64.145  1.00  0.00    -1.113 OA 
HETATM   32  H   UNL     1     -10.614  16.612  63.536  1.00  0.00     0.000 HD 
ENDBRANCH  29  30
ENDBRANCH  28  29
ENDBRANCH  11  25
ENDBRANCH   3   5
BRANCH   3  33
HETATM   33  C   UNL     1      -9.343   9.172  70.262  1.00  0.00    -0.220 C  
BRANCH  33  34
HETATM   34  C   UNL     1      -7.796   9.300  70.332  1.00  0.00    -0.148 C  
HETATM   35  O   UNL     1      -7.361  10.667  70.355  1.00  0.00    -0.462 OA 
HETATM   36  H   UNL     1      -6.416  10.745  70.399  1.00  0.00     0.000 HD 
BRANCH  34  37
HETATM   37  C   UNL     1      -7.204   8.599  71.569  1.00  0.00    -0.098 C  
HETATM   38  H   UNL     1      -5.823   8.967  72.940  1.00  0.00     0.000 HD 
HETATM   39  O   UNL     1      -6.188   9.400  72.177  1.00  0.00    -0.281 OA 
ENDBRANCH  34  37
ENDBRANCH  33  34
ENDBRANCH   3  33
TORSDOF 11
ENDMDL
MODEL       12
REMARK 921   NORMALIZED FREE ENERGY PREDICTED BY IDOCK:   -5.32 KCAL/MOL
REMARK 922        TOTAL FREE ENERGY PREDICTED BY IDOCK:   -9.35 KCAL/MOL
REMARK 923 INTER-LIGAND FREE ENERGY PREDICTED BY IDOCK:   -9.62 KCAL/MOL
REMARK 924 INTRA-LIGAND FREE ENERGY PREDICTED BY IDOCK:    0.27 KCAL/MOL
REMARK 927      BINDING AFFINITY PREDICTED BY RF-SCORE:    0.00 PKD
ROOT
HETATM    1  C   UNL     1      -9.857   7.932  73.322  1.00  0.00    -0.345 C  
HETATM    2  C   UNL     1      -9.547   8.240  71.884  1.00  0.00    -0.221 C  
HETATM    3  N   UNL     1     -10.467   7.828  70.916  1.00  0.00    -0.205 N  
HETATM    4  O   UNL     1      -8.524   8.870  71.604  1.00  0.00    -0.282 OA 
ENDROOT
BRANCH   3   5
HETATM    5  C   UNL     1     -10.106   8.123  69.561  1.00  0.00    -0.193 A  
HETATM    6  I   UNL     1      -8.260   9.160  65.067  1.00  0.00    -0.197 I  
HETATM    7  C   UNL     1      -9.273   8.668  66.927  1.00  0.00    -0.159 A  
HETATM    8  C   UNL     1     -10.296   9.418  69.006  1.00  0.00    -0.210 A  
HETATM    9  I   UNL     1     -11.351  10.898  70.184  1.00  0.00    -0.134 I  
HETATM   10  C   UNL     1      -9.607   7.072  68.746  1.00  0.00    -0.139 A  
HETATM   11  C   UNL     1      -9.176   7.337  67.427  1.00  0.00    -0.140 A  
HETATM   12  C   UNL     1      -9.878   9.705  67.683  1.00  0.00    -0.202 A  
HETATM   13  I   UNL     1      -9.591   5.052  69.570  1.00  0.00    -0.289 I  
BRANCH  12  14
HETATM   14  C   UNL     1      -9.996  11.103  67.155  1.00  0.00    -0.186 C  
HETATM   15  N   UNL     1     -11.114  11.413  66.407  1.00  0.00    -0.277 N  
HETATM   16  O   UNL     1      -9.110  11.920  67.383  1.00  0.00    -0.170 OA 
HETATM   17  H   UNL     1     -11.816  10.692  66.240  1.00  0.00     0.000 HD 
BRANCH  15  18
HETATM   18  C   UNL     1     -11.317  12.748  65.849  1.00  0.00    -0.324 C  
BRANCH  18  19
HETATM   19  C   UNL     1     -12.531  12.806  64.908  1.00  0.00    -0.497 C  
HETATM   20  H   UNL     1     -13.845  14.163  64.361  1.00  0.00     0.000 HD 
HETATM   21  O   UNL     1     -13.094  14.127  64.942  1.00  0.00    -0.677 OA 
BRANCH  19  22
HETATM   22  C   UNL     1     -12.150  12.419  63.468  1.00  0.00    -0.558 C  
HETATM   23  O   UNL     1     -13.147  11.599  62.862  1.00  0.00    -0.790 OA 
HETATM   24  H   UNL     1     -12.912  11.360  61.973  1.00  0.00     0.000 HD 
ENDBRANCH  19  22
ENDBRANCH  18  19
ENDBRANCH  15  18
ENDBRANCH  12  14
BRANCH  11  25
HETATM   25  C   UNL     1      -8.717   6.239  66.535  1.00  0.00    -0.131 C  
HETATM   26  O   UNL     1      -7.526   5.944  66.502  1.00  0.00    -0.084 OA 
HETATM   27  H   UNL     1     -10.648   5.866  65.856  1.00  0.00     0.000 HD 
HETATM   28  N   UNL     1      -9.669   5.601  65.757  1.00  0.00     0.007 N  
BRANCH  28  29
HETATM   29  C   UNL     1      -9.310   4.565  64.807  1.00  0.00    -0.138 C  
BRANCH  29  30
HETATM   30  C   UNL     1     -10.560   3.934  64.210  1.00  0.00    -0.223 C  
HETATM   31  O   UNL     1     -11.714   4.431  64.891  1.00  0.00    -0.979 OA 
HETATM   32  H   UNL     1     -12.494   4.037  64.519  1.00  0.00     0.000 HD 
ENDBRANCH  29  30
ENDBRANCH  28  29
ENDBRANCH  11  25
ENDBRANCH   3   5
BRANCH   3  33
HETATM   33  C   UNL     1     -11.652   6.958  71.163  1.00  0.00    -0.319 C  
BRANCH  33  34
HETATM   34  C   UNL     1     -13.010   7.668  71.419  1.00  0.00    -0.311 C  
HETATM   35  O   UNL     1     -14.023   6.761  71.878  1.00  0.00    -0.447 OA 
HETATM   36  H   UNL     1     -14.853   7.195  72.035  1.00  0.00     0.000 HD 
BRANCH  34  37
HETATM   37  C   UNL     1     -12.893   8.802  72.454  1.00  0.00    -0.371 C  
HETATM   38  H   UNL     1     -14.096  10.095  73.352  1.00  0.00     0.000 HD 
HETATM   39  O   UNL     1     -14.168   9.395  72.714  1.00  0.00    -0.428 OA 
ENDBRANCH  34  37
ENDBRANCH  33  34
ENDBRANCH   3  33
TORSDOF 11
ENDMDL
MODEL       13
REMARK 921   NORMALIZED FREE ENERGY PREDICTED BY IDOCK:   -5.29 KCAL/MOL
REMARK 922        TOTAL FREE ENERGY PREDICTED BY IDOCK:   -9.30 KCAL/MOL
REMARK 923 INTER-LIGAND FREE ENERGY PREDICTED BY IDOCK:   -7.92 KCAL/MOL
REMARK 924 INTRA-LIGAND FREE ENERGY PREDICTED BY IDOCK:   -1.39 KCAL/MOL
REMARK 927      BINDING AFFINITY PREDICTED BY RF-SCORE:    0.00 PKD
ROOT
HETATM    1  C   UNL     1     -12.397  13.048  64.034  1.00  0.00    -0.437 C  
HETATM    2  C   UNL     1     -11.038  13.222  64.653  1.00  0.00    -0.357 C  
HETATM    3  N   UNL     1     -10.957  13.252  66.048  1.00  0.00    -0.278 N  
HETATM    4  O   UNL     1     -10.044  13.295  63.926  1.00  0.00    -0.274 OA 
ENDROOT
BRANCH   3   5
HETATM    5  C   UNL     1      -9.641  13.448  66.582  1.00  0.00    -0.270 A  
HETATM    6  I   UNL     1      -5.325  13.965  68.986  1.00  0.00    -0.089 I  
HETATM    7  C   UNL     1      -7.092  13.761  67.735  1.00  0.00    -0.167 A  
HETATM    8  C   UNL     1      -9.117  14.749  66.810  1.00  0.00    -0.267 A  
HETATM    9  I   UNL     1     -10.266  16.455  66.132  1.00  0.00    -0.328 I  
HETATM   10  C   UNL     1      -8.830  12.307  66.822  1.00  0.00    -0.195 A  
HETATM   11  C   UNL     1      -7.554  12.453  67.410  1.00  0.00    -0.160 A  
HETATM   12  C   UNL     1      -7.837  14.920  67.394  1.00  0.00    -0.224 A  
HETATM   13  I   UNL     1      -9.585  10.358  66.199  1.00  0.00    -0.297 I  
BRANCH  12  14
HETATM   14  C   UNL     1      -7.349  16.299  67.719  1.00  0.00    -0.132 C  
HETATM   15  N   UNL     1      -6.468  16.892  66.836  1.00  0.00    -0.197 N  
HETATM   16  O   UNL     1      -7.722  16.854  68.747  1.00  0.00    -0.227 OA 
HETATM   17  H   UNL     1      -6.183  16.381  66.000  1.00  0.00     0.000 HD 
BRANCH  15  18
HETATM   18  C   UNL     1      -5.936  18.233  67.067  1.00  0.00    -0.148 C  
BRANCH  18  19
HETATM   19  C   UNL     1      -6.572  19.279  66.140  1.00  0.00    -0.209 C  
HETATM   20  H   UNL     1      -7.480  19.272  64.395  1.00  0.00     0.000 HD 
HETATM   21  O   UNL     1      -7.086  18.625  64.969  1.00  0.00    -0.403 OA 
BRANCH  19  22
HETATM   22  C   UNL     1      -7.688  20.064  66.852  1.00  0.00    -0.293 C  
HETATM   23  O   UNL     1      -7.880  19.611  68.191  1.00  0.00    -0.298 OA 
HETATM   24  H   UNL     1      -8.569  20.095  68.630  1.00  0.00     0.000 HD 
ENDBRANCH  19  22
ENDBRANCH  18  19
ENDBRANCH  15  18
ENDBRANCH  12  14
BRANCH  11  25
HETATM   25  C   UNL     1      -6.660  11.280  67.606  1.00  0.00    -0.072 C  
HETATM   26  O   UNL     1      -5.880  10.958  66.715  1.00  0.00    -0.064 OA 
HETATM   27  H   UNL     1      -7.406  10.921  69.516  1.00  0.00     0.000 HD 
HETATM   28  N   UNL     1      -6.764  10.584  68.799  1.00  0.00    -0.053 N  
BRANCH  28  29
HETATM   29  C   UNL     1      -5.985   9.387  69.056  1.00  0.00    -0.042 C  
BRANCH  29  30
HETATM   30  C   UNL     1      -5.589   9.315  70.524  1.00  0.00    -0.036 C  
HETATM   31  O   UNL     1      -5.943  10.538  71.173  1.00  0.00    -0.302 OA 
HETATM   32  H   UNL     1      -5.696  10.493  72.089  1.00  0.00     0.000 HD 
ENDBRANCH  29  30
ENDBRANCH  28  29
ENDBRANCH  11  25
ENDBRANCH   3   5
BRANCH   3  33
HETATM   33  C   UNL     1     -12.118  13.296  66.983  1.00  0.00    -0.320 C  
BRANCH  33  34
HETATM   34  C   UNL     1     -11.804  13.502  68.491  1.00  0.00    -0.362 C  
HETATM   35  O   UNL     1     -12.641  14.500  69.092  1.00  0.00    -0.566 OA 
HETATM   36  H   UNL     1     -12.450  14.626  70.014  1.00  0.00     0.000 HD 
BRANCH  34  37
HETATM   37  C   UNL     1     -11.963  12.205  69.306  1.00  0.00    -0.262 C  
HETATM   38  H   UNL     1     -12.307  10.286  68.954  1.00  0.00     0.000 HD 
HETATM   39  O   UNL     1     -12.209  11.086  68.451  1.00  0.00    -0.586 OA 
ENDBRANCH  34  37
ENDBRANCH  33  34
ENDBRANCH   3  33
TORSDOF 11
ENDMDL
MODEL       14
REMARK 921   NORMALIZED FREE ENERGY PREDICTED BY IDOCK:   -5.22 KCAL/MOL
REMARK 922        TOTAL FREE ENERGY PREDICTED BY IDOCK:   -9.19 KCAL/MOL
REMARK 923 INTER-LIGAND FREE ENERGY PREDICTED BY IDOCK:   -8.10 KCAL/MOL
REMARK 924 INTRA-LIGAND FREE ENERGY PREDICTED BY IDOCK:   -1.09 KCAL/MOL
REMARK 927      BINDING AFFINITY PREDICTED BY RF-SCORE:    0.00 PKD
ROOT
HETATM    1  C   UNL     1     -11.384  13.778  65.448  1.00  0.00    -0.314 C  
HETATM    2  C   UNL     1     -11.233  12.423  66.082  1.00  0.00    -0.322 C  
HETATM    3  N   UNL     1     -10.068  12.171  66.811  1.00  0.00    -0.199 N  
HETATM    4  O   UNL     1     -12.142  11.596  65.974  1.00  0.00    -0.279 OA 
ENDROOT
BRANCH   3   5
HETATM    5  C   UNL     1      -9.965  10.855  67.369  1.00  0.00    -0.186 A  
HETATM    6  I   UNL     1      -9.139   6.520  69.649  1.00  0.00    -0.142 I  
HETATM    7  C   UNL     1      -9.696   8.321  68.566  1.00  0.00    -0.156 A  
HETATM    8  C   UNL     1      -9.368   9.786  66.648  1.00  0.00    -0.158 A  
HETATM    9  I   UNL     1      -8.801  10.125  64.585  1.00  0.00    -0.294 I  
HETATM   10  C   UNL     1     -10.536  10.613  68.647  1.00  0.00    -0.203 A  
HETATM   11  C   UNL     1     -10.397   9.348  69.261  1.00  0.00    -0.217 A  
HETATM   12  C   UNL     1      -9.223   8.507  67.241  1.00  0.00    -0.168 A  
HETATM   13  I   UNL     1     -11.674  12.220  69.586  1.00  0.00    -0.185 I  
BRANCH  12  14
HETATM   14  C   UNL     1      -8.499   7.424  66.500  1.00  0.00    -0.128 C  
HETATM   15  N   UNL     1      -9.260   6.495  65.817  1.00  0.00    -0.371 N  
HETATM   16  O   UNL     1      -7.274   7.378  66.526  1.00  0.00    -0.075 OA 
HETATM   17  H   UNL     1     -10.277   6.575  65.837  1.00  0.00     0.000 HD 
BRANCH  15  18
HETATM   18  C   UNL     1      -8.645   5.402  65.067  1.00  0.00    -0.142 C  
BRANCH  18  19
HETATM   19  C   UNL     1      -9.341   4.057  65.325  1.00  0.00    -0.163 C  
HETATM   20  H   UNL     1     -10.125   3.133  66.873  1.00  0.00     0.000 HD 
HETATM   21  O   UNL     1      -9.695   3.965  66.714  1.00  0.00    -0.214 OA 
BRANCH  19  22
HETATM   22  C   UNL     1     -10.586   3.885  64.438  1.00  0.00    -0.208 C  
HETATM   23  O   UNL     1     -11.707   4.598  64.957  1.00  0.00    -1.047 OA 
HETATM   24  H   UNL     1     -12.476   4.491  64.410  1.00  0.00     0.000 HD 
ENDBRANCH  19  22
ENDBRANCH  18  19
ENDBRANCH  15  18
ENDBRANCH  12  14
BRANCH  11  25
HETATM   25  C   UNL     1     -11.046   9.053  70.566  1.00  0.00    -0.254 C  
HETATM   26  O   UNL     1     -10.481   9.370  71.609  1.00  0.00    -0.325 OA 
HETATM   27  H   UNL     1     -12.708   8.203  69.646  1.00  0.00     0.000 HD 
HETATM   28  N   UNL     1     -12.272   8.408  70.544  1.00  0.00     0.112 N  
BRANCH  28  29
HETATM   29  C   UNL     1     -12.952   8.016  71.764  1.00  0.00    -0.331 C  
BRANCH  29  30
HETATM   30  C   UNL     1     -14.112   8.959  72.054  1.00  0.00    -0.411 C  
HETATM   31  O   UNL     1     -13.601  10.250  72.393  1.00  0.00    -0.611 OA 
HETATM   32  H   UNL     1     -14.325  10.838  72.574  1.00  0.00     0.000 HD 
ENDBRANCH  29  30
ENDBRANCH  28  29
ENDBRANCH  11  25
ENDBRANCH   3   5
BRANCH   3  33
HETATM   33  C   UNL     1      -8.878  13.068  66.881  1.00  0.00    -0.180 C  
BRANCH  33  34
HETATM   34  C   UNL     1      -8.803  14.053  68.079  1.00  0.00    -0.181 C  
HETATM   35  O   UNL     1      -8.035  13.527  69.172  1.00  0.00    -0.334 OA 
HETATM   36  H   UNL     1      -7.989  14.130  69.905  1.00  0.00     0.000 HD 
BRANCH  34  37
HETATM   37  C   UNL     1      -8.191  15.410  67.687  1.00  0.00    -0.157 C  
HETATM   38  H   UNL     1      -6.520  16.080  66.860  1.00  0.00     0.000 HD 
HETATM   39  O   UNL     1      -6.898  15.242  67.102  1.00  0.00    -0.254 OA 
ENDBRANCH  34  37
ENDBRANCH  33  34
ENDBRANCH   3  33
TORSDOF 11
ENDMDL
MODEL       15
REMARK 921   NORMALIZED FREE ENERGY PREDICTED BY IDOCK:   -5.22 KCAL/MOL
REMARK 922        TOTAL FREE ENERGY PREDICTED BY IDOCK:   -9.18 KCAL/MOL
REMARK 923 INTER-LIGAND FREE ENERGY PREDICTED BY IDOCK:   -8.41 KCAL/MOL
REMARK 924 INTRA-LIGAND FREE ENERGY PREDICTED BY IDOCK:   -0.77 KCAL/MOL
REMARK 927      BINDING AFFINITY PREDICTED BY RF-SCORE:    0.00 PKD
ROOT
HETATM    1  C   UNL     1     -13.140  13.832  65.599  1.00  0.00    -0.181 C  
HETATM    2  C   UNL     1     -11.891  13.722  66.428  1.00  0.00    -0.404 C  
HETATM    3  N   UNL     1     -10.684  13.500  65.760  1.00  0.00    -0.272 N  
HETATM    4  O   UNL     1     -11.958  13.865  67.651  1.00  0.00    -0.366 OA 
ENDROOT
BRANCH   3   5
HETATM    5  C   UNL     1      -9.530  13.376  66.602  1.00  0.00    -0.260 A  
HETATM    6  I   UNL     1      -5.196  12.942  68.990  1.00  0.00    -0.073 I  
HETATM    7  C   UNL     1      -7.190  13.173  68.154  1.00  0.00    -0.117 A  
HETATM    8  C   UNL     1      -9.194  12.144  67.226  1.00  0.00    -0.185 A  
HETATM    9  I   UNL     1     -10.584  10.492  67.059  1.00  0.00    -0.230 I  
HETATM   10  C   UNL     1      -8.752  14.535  66.861  1.00  0.00    -0.211 A  
HETATM   11  C   UNL     1      -7.570  14.442  67.629  1.00  0.00    -0.195 A  
HETATM   12  C   UNL     1      -8.017  12.029  68.006  1.00  0.00    -0.149 A  
HETATM   13  I   UNL     1      -9.469  16.448  66.096  1.00  0.00    -0.263 I  
BRANCH  12  14
HETATM   14  C   UNL     1      -7.629  10.695  68.570  1.00  0.00    -0.097 C  
HETATM   15  N   UNL     1      -8.021  10.408  69.863  1.00  0.00    -0.349 N  
HETATM   16  O   UNL     1      -6.976   9.910  67.891  1.00  0.00    -0.079 OA 
HETATM   17  H   UNL     1      -8.555  11.101  70.386  1.00  0.00     0.000 HD 
BRANCH  15  18
HETATM   18  C   UNL     1      -7.689   9.135  70.499  1.00  0.00    -0.134 C  
BRANCH  18  19
HETATM   19  C   UNL     1      -8.908   8.488  71.175  1.00  0.00    -0.179 C  
HETATM   20  H   UNL     1      -9.707   8.489  72.972  1.00  0.00     0.000 HD 
HETATM   21  O   UNL     1      -8.954   8.889  72.554  1.00  0.00    -0.367 OA 
BRANCH  19  22
HETATM   22  C   UNL     1     -10.218   8.864  70.461  1.00  0.00    -0.204 C  
HETATM   23  O   UNL     1     -10.760  10.085  70.960  1.00  0.00    -0.323 OA 
HETATM   24  H   UNL     1     -11.568  10.317  70.519  1.00  0.00     0.000 HD 
ENDBRANCH  19  22
ENDBRANCH  18  19
ENDBRANCH  15  18
ENDBRANCH  12  14
BRANCH  11  25
HETATM   25  C   UNL     1      -6.778  15.654  67.970  1.00  0.00    -0.136 C  
HETATM   26  O   UNL     1      -5.866  16.010  67.230  1.00  0.00    -0.261 OA 
HETATM   27  H   UNL     1      -7.894  16.004  69.692  1.00  0.00     0.000 HD 
HETATM   28  N   UNL     1      -7.102  16.327  69.136  1.00  0.00    -0.204 N  
BRANCH  28  29
HETATM   29  C   UNL     1      -6.345  17.479  69.590  1.00  0.00    -0.191 C  
BRANCH  29  30
HETATM   30  C   UNL     1      -6.945  18.763  69.033  1.00  0.00    -0.295 C  
HETATM   31  O   UNL     1      -6.678  19.841  69.933  1.00  0.00    -0.331 OA 
HETATM   32  H   UNL     1      -7.052  20.642  69.586  1.00  0.00     0.000 HD 
ENDBRANCH  29  30
ENDBRANCH  28  29
ENDBRANCH  11  25
ENDBRANCH   3   5
BRANCH   3  33
HETATM   33  C   UNL     1     -10.540  13.193  64.307  1.00  0.00    -0.412 C  
BRANCH  33  34
HETATM   34  C   UNL     1     -10.768  11.720  63.870  1.00  0.00    -0.399 C  
HETATM   35  O   UNL     1     -11.915  11.573  63.020  1.00  0.00    -0.917 OA 
HETATM   36  H   UNL     1     -12.055  10.673  62.752  1.00  0.00     0.000 HD 
BRANCH  34  37
HETATM   37  C   UNL     1      -9.555  11.134  63.125  1.00  0.00    -0.369 C  
HETATM   38  H   UNL     1      -8.538   9.434  63.090  1.00  0.00     0.000 HD 
HETATM   39  O   UNL     1      -9.287   9.795  63.549  1.00  0.00    -0.253 OA 
ENDBRANCH  34  37
ENDBRANCH  33  34
ENDBRANCH   3  33
TORSDOF 11
ENDMDL
MODEL       16
REMARK 921   NORMALIZED FREE ENERGY PREDICTED BY IDOCK:   -5.20 KCAL/MOL
REMARK 922        TOTAL FREE ENERGY PREDICTED BY IDOCK:   -9.16 KCAL/MOL
REMARK 923 INTER-LIGAND FREE ENERGY PREDICTED BY IDOCK:   -9.12 KCAL/MOL
REMARK 924 INTRA-LIGAND FREE ENERGY PREDICTED BY IDOCK:   -0.04 KCAL/MOL
REMARK 927      BINDING AFFINITY PREDICTED BY RF-SCORE:    0.00 PKD
ROOT
HETATM    1  C   UNL     1      -9.758   8.298  73.204  1.00  0.00    -0.208 C  
HETATM    2  C   UNL     1      -9.558   8.575  71.740  1.00  0.00    -0.267 C  
HETATM    3  N   UNL     1     -10.502   8.063  70.846  1.00  0.00    -0.201 N  
HETATM    4  O   UNL     1      -8.602   9.264  71.377  1.00  0.00    -0.326 OA 
ENDROOT
BRANCH   3   5
HETATM    5  C   UNL     1     -10.247   8.334  69.462  1.00  0.00    -0.210 A  
HETATM    6  I   UNL     1      -8.764   9.373  64.836  1.00  0.00    -0.212 I  
HETATM    7  C   UNL     1      -9.615   8.847  66.767  1.00  0.00    -0.202 A  
HETATM    8  C   UNL     1     -10.636   9.561  68.860  1.00  0.00    -0.216 A  
HETATM    9  I   UNL     1     -11.828  10.946  70.023  1.00  0.00    -0.486 I  
HETATM   10  C   UNL     1      -9.648   7.318  68.672  1.00  0.00    -0.141 A  
HETATM   11  C   UNL     1      -9.317   7.569  67.321  1.00  0.00    -0.168 A  
HETATM   12  C   UNL     1     -10.321   9.832  67.506  1.00  0.00    -0.291 A  
HETATM   13  I   UNL     1      -9.320   5.364  69.584  1.00  0.00    -0.229 I  
BRANCH  12  14
HETATM   14  C   UNL     1     -10.651  11.172  66.922  1.00  0.00    -0.258 C  
HETATM   15  N   UNL     1      -9.687  12.158  66.994  1.00  0.00    -0.199 N  
HETATM   16  O   UNL     1     -11.751  11.366  66.415  1.00  0.00    -0.353 OA 
HETATM   17  H   UNL     1      -8.791  11.946  67.435  1.00  0.00     0.000 HD 
BRANCH  15  18
HETATM   18  C   UNL     1      -9.916  13.496  66.454  1.00  0.00    -0.295 C  
BRANCH  18  19
HETATM   19  C   UNL     1     -10.497  14.455  67.504  1.00  0.00    -0.252 C  
HETATM   20  H   UNL     1     -12.291  14.997  68.099  1.00  0.00     0.000 HD 
HETATM   21  O   UNL     1     -11.932  14.404  67.450  1.00  0.00    -0.398 OA 
BRANCH  19  22
HETATM   22  C   UNL     1      -9.998  14.115  68.919  1.00  0.00    -0.127 C  
HETATM   23  O   UNL     1      -8.579  13.978  68.960  1.00  0.00    -0.358 OA 
HETATM   24  H   UNL     1      -8.271  13.769  69.833  1.00  0.00     0.000 HD 
ENDBRANCH  19  22
ENDBRANCH  18  19
ENDBRANCH  15  18
ENDBRANCH  12  14
BRANCH  11  25
HETATM   25  C   UNL     1      -8.753   6.497  66.457  1.00  0.00    -0.134 C  
HETATM   26  O   UNL     1      -7.536   6.397  66.332  1.00  0.00    -0.087 OA 
HETATM   27  H   UNL     1     -10.643   5.768  65.981  1.00  0.00     0.000 HD 
HETATM   28  N   UNL     1      -9.644   5.658  65.809  1.00  0.00    -0.038 N  
BRANCH  28  29
HETATM   29  C   UNL     1      -9.195   4.627  64.892  1.00  0.00    -0.143 C  
BRANCH  29  30
HETATM   30  C   UNL     1     -10.380   3.833  64.362  1.00  0.00    -0.227 C  
HETATM   31  O   UNL     1     -11.591   4.375  64.894  1.00  0.00    -1.053 OA 
HETATM   32  H   UNL     1     -12.331   3.879  64.563  1.00  0.00     0.000 HD 
ENDBRANCH  29  30
ENDBRANCH  28  29
ENDBRANCH  11  25
ENDBRANCH   3   5
BRANCH   3  33
HETATM   33  C   UNL     1     -11.605   7.122  71.195  1.00  0.00    -0.301 C  
BRANCH  33  34
HETATM   34  C   UNL     1     -13.028   7.726  71.353  1.00  0.00    -0.288 C  
HETATM   35  O   UNL     1     -13.972   6.775  71.865  1.00  0.00    -0.447 OA 
HETATM   36  H   UNL     1     -14.842   7.144  71.962  1.00  0.00     0.000 HD 
BRANCH  34  37
HETATM   37  C   UNL     1     -13.046   8.952  72.284  1.00  0.00    -0.436 C  
HETATM   38  H   UNL     1     -14.370   9.947  73.371  1.00  0.00     0.000 HD 
HETATM   39  O   UNL     1     -14.359   9.190  72.796  1.00  0.00    -0.563 OA 
ENDBRANCH  34  37
ENDBRANCH  33  34
ENDBRANCH   3  33
TORSDOF 11
ENDMDL
MODEL       17
REMARK 921   NORMALIZED FREE ENERGY PREDICTED BY IDOCK:   -5.20 KCAL/MOL
REMARK 922        TOTAL FREE ENERGY PREDICTED BY IDOCK:   -9.15 KCAL/MOL
REMARK 923 INTER-LIGAND FREE ENERGY PREDICTED BY IDOCK:   -9.20 KCAL/MOL
REMARK 924 INTRA-LIGAND FREE ENERGY PREDICTED BY IDOCK:    0.05 KCAL/MOL
REMARK 927      BINDING AFFINITY PREDICTED BY RF-SCORE:    0.00 PKD
ROOT
HETATM    1  C   UNL     1      -9.109   4.966  69.941  1.00  0.00    -0.164 C  
HETATM    2  C   UNL     1      -9.749   6.228  69.435  1.00  0.00    -0.141 C  
HETATM    3  N   UNL     1      -9.088   7.436  69.675  1.00  0.00    -0.141 N  
HETATM    4  O   UNL     1     -10.805   6.162  68.800  1.00  0.00    -0.276 OA 
ENDROOT
BRANCH   3   5
HETATM    5  C   UNL     1      -9.757   8.609  69.195  1.00  0.00    -0.173 A  
HETATM    6  I   UNL     1     -11.564  12.989  67.703  1.00  0.00    -0.402 I  
HETATM    7  C   UNL     1     -10.955  10.973  68.247  1.00  0.00    -0.235 A  
HETATM    8  C   UNL     1     -10.798   9.228  69.939  1.00  0.00    -0.234 A  
HETATM    9  I   UNL     1     -11.515   8.239  71.728  1.00  0.00    -0.451 I  
HETATM   10  C   UNL     1      -9.406   9.114  67.916  1.00  0.00    -0.137 A  
HETATM   11  C   UNL     1      -9.993  10.306  67.435  1.00  0.00    -0.230 A  
HETATM   12  C   UNL     1     -11.407  10.420  69.474  1.00  0.00    -0.325 A  
HETATM   13  I   UNL     1      -7.997   7.968  66.708  1.00  0.00    -0.107 I  
BRANCH  12  14
HETATM   14  C   UNL     1     -12.430  11.110  70.324  1.00  0.00    -0.274 C  
HETATM   15  N   UNL     1     -12.090  12.331  70.872  1.00  0.00    -0.425 N  
HETATM   16  O   UNL     1     -13.519  10.582  70.521  1.00  0.00    -0.097 OA 
HETATM   17  H   UNL     1     -11.166  12.721  70.683  1.00  0.00     0.000 HD 
BRANCH  15  18
HETATM   18  C   UNL     1     -13.019  13.079  71.715  1.00  0.00    -0.321 C  
BRANCH  18  19
HETATM   19  C   UNL     1     -12.660  14.571  71.795  1.00  0.00    -0.346 C  
HETATM   20  H   UNL     1     -12.111  15.973  70.531  1.00  0.00     0.000 HD 
HETATM   21  O   UNL     1     -12.333  15.051  70.481  1.00  0.00    -0.310 OA 
BRANCH  19  22
HETATM   22  C   UNL     1     -13.808  15.398  72.400  1.00  0.00    -0.562 C  
HETATM   23  O   UNL     1     -13.457  15.933  73.675  1.00  0.00    -0.750 OA 
HETATM   24  H   UNL     1     -14.165  16.443  74.049  1.00  0.00     0.000 HD 
ENDBRANCH  19  22
ENDBRANCH  18  19
ENDBRANCH  15  18
ENDBRANCH  12  14
BRANCH  11  25
HETATM   25  C   UNL     1      -9.692  10.815  66.070  1.00  0.00    -0.217 C  
HETATM   26  O   UNL     1      -8.622  11.378  65.857  1.00  0.00    -0.149 OA 
HETATM   27  H   UNL     1     -11.510  10.134  65.321  1.00  0.00     0.000 HD 
HETATM   28  N   UNL     1     -10.656  10.642  65.092  1.00  0.00    -0.195 N  
BRANCH  28  29
HETATM   29  C   UNL     1     -10.484  11.163  63.749  1.00  0.00    -0.381 C  
BRANCH  29  30
HETATM   30  C   UNL     1     -11.310  12.428  63.559  1.00  0.00    -0.476 C  
HETATM   31  O   UNL     1     -12.607  12.079  63.070  1.00  0.00    -0.717 OA 
HETATM   32  H   UNL     1     -13.122  12.869  62.952  1.00  0.00     0.000 HD 
ENDBRANCH  29  30
ENDBRANCH  28  29
ENDBRANCH  11  25
ENDBRANCH   3   5
BRANCH   3  33
HETATM   33  C   UNL     1      -7.883   7.607  70.538  1.00  0.00    -0.095 C  
BRANCH  33  34
HETATM   34  C   UNL     1      -7.638   9.019  71.139  1.00  0.00    -0.102 C  
HETATM   35  O   UNL     1      -7.525   8.992  72.569  1.00  0.00    -0.335 OA 
HETATM   36  H   UNL     1      -7.375   9.854  72.937  1.00  0.00     0.000 HD 
BRANCH  34  37
HETATM   37  C   UNL     1      -6.366   9.682  70.581  1.00  0.00    -0.097 C  
HETATM   38  H   UNL     1      -5.167  11.184  71.060  1.00  0.00     0.000 HD 
HETATM   39  O   UNL     1      -5.952  10.775  71.404  1.00  0.00    -0.343 OA 
ENDBRANCH  34  37
ENDBRANCH  33  34
ENDBRANCH   3  33
TORSDOF 11
ENDMDL
MODEL       18
REMARK 921   NORMALIZED FREE ENERGY PREDICTED BY IDOCK:   -5.19 KCAL/MOL
REMARK 922        TOTAL FREE ENERGY PREDICTED BY IDOCK:   -9.13 KCAL/MOL
REMARK 923 INTER-LIGAND FREE ENERGY PREDICTED BY IDOCK:   -7.84 KCAL/MOL
REMARK 924 INTRA-LIGAND FREE ENERGY PREDICTED BY IDOCK:   -1.29 KCAL/MOL
REMARK 927      BINDING AFFINITY PREDICTED BY RF-SCORE:    0.00 PKD
ROOT
HETATM    1  C   UNL     1     -11.736   5.796  72.088  1.00  0.00    -0.226 C  
HETATM    2  C   UNL     1     -11.356   6.832  71.068  1.00  0.00    -0.309 C  
HETATM    3  N   UNL     1     -10.541   7.888  71.484  1.00  0.00    -0.219 N  
HETATM    4  O   UNL     1     -11.737   6.705  69.901  1.00  0.00    -0.361 OA 
ENDROOT
BRANCH   3   5
HETATM    5  C   UNL     1     -10.233   8.860  70.476  1.00  0.00    -0.204 A  
HETATM    6  I   UNL     1      -8.732  12.445  67.383  1.00  0.00    -0.209 I  
HETATM    7  C   UNL     1      -9.513  10.790  68.558  1.00  0.00    -0.181 A  
HETATM    8  C   UNL     1     -11.070   9.986  70.250  1.00  0.00    -0.318 A  
HETATM    9  I   UNL     1     -12.953  10.101  71.313  1.00  0.00    -0.468 I  
HETATM   10  C   UNL     1      -9.098   8.646  69.651  1.00  0.00    -0.149 A  
HETATM   11  C   UNL     1      -8.722   9.613  68.692  1.00  0.00    -0.124 A  
HETATM   12  C   UNL     1     -10.717  10.966  69.289  1.00  0.00    -0.271 A  
HETATM   13  I   UNL     1      -8.009   6.768  69.866  1.00  0.00    -0.124 I  
BRANCH  12  14
HETATM   14  C   UNL     1     -11.561  12.196  69.139  1.00  0.00    -0.319 C  
HETATM   15  N   UNL     1     -11.427  13.185  70.094  1.00  0.00    -0.516 N  
HETATM   16  O   UNL     1     -12.344  12.290  68.200  1.00  0.00    -0.236 OA 
HETATM   17  H   UNL     1     -10.767  13.050  70.860  1.00  0.00     0.000 HD 
BRANCH  15  18
HETATM   18  C   UNL     1     -12.208  14.419  70.034  1.00  0.00    -0.351 C  
BRANCH  18  19
HETATM   19  C   UNL     1     -11.325  15.654  69.801  1.00  0.00    -0.327 C  
HETATM   20  H   UNL     1      -9.430  16.117  70.046  1.00  0.00     0.000 HD 
HETATM   21  O   UNL     1      -9.976  15.353  70.190  1.00  0.00    -0.258 OA 
BRANCH  19  22
HETATM   22  C   UNL     1     -11.372  16.115  68.334  1.00  0.00    -0.345 C  
HETATM   23  O   UNL     1     -11.742  15.053  67.458  1.00  0.00    -0.343 OA 
HETATM   24  H   UNL     1     -11.772  15.337  66.552  1.00  0.00     0.000 HD 
ENDBRANCH  19  22
ENDBRANCH  18  19
ENDBRANCH  15  18
ENDBRANCH  12  14
BRANCH  11  25
HETATM   25  C   UNL     1      -7.579   9.377  67.770  1.00  0.00    -0.088 C  
HETATM   26  O   UNL     1      -6.443   9.676  68.126  1.00  0.00    -0.056 OA 
HETATM   27  H   UNL     1      -8.816   8.575  66.302  1.00  0.00     0.000 HD 
HETATM   28  N   UNL     1      -7.856   8.836  66.526  1.00  0.00    -0.102 N  
BRANCH  28  29
HETATM   29  C   UNL     1      -6.819   8.632  65.532  1.00  0.00    -0.075 C  
BRANCH  29  30
HETATM   30  C   UNL     1      -6.926   9.675  64.429  1.00  0.00    -0.118 C  
HETATM   31  O   UNL     1      -5.986  10.724  64.674  1.00  0.00    -0.360 OA 
HETATM   32  H   UNL     1      -6.053  11.375  63.986  1.00  0.00     0.000 HD 
ENDBRANCH  29  30
ENDBRANCH  28  29
ENDBRANCH  11  25
ENDBRANCH   3   5
BRANCH   3  33
HETATM   33  C   UNL     1     -10.147   8.176  72.893  1.00  0.00    -0.278 C  
BRANCH  33  34
HETATM   34  C   UNL     1      -8.790   7.599  73.381  1.00  0.00    -0.216 C  
HETATM   35  O   UNL     1      -7.895   8.623  73.840  1.00  0.00    -0.406 OA 
HETATM   36  H   UNL     1      -7.065   8.270  74.138  1.00  0.00     0.000 HD 
BRANCH  34  37
HETATM   37  C   UNL     1      -8.960   6.580  74.522  1.00  0.00    -0.179 C  
HETATM   38  H   UNL     1      -8.411   4.718  74.919  1.00  0.00     0.000 HD 
HETATM   39  O   UNL     1      -8.305   5.348  74.214  1.00  0.00    -0.108 OA 
ENDBRANCH  34  37
ENDBRANCH  33  34
ENDBRANCH   3  33
TORSDOF 11
ENDMDL
MODEL       19
REMARK 921   NORMALIZED FREE ENERGY PREDICTED BY IDOCK:   -5.17 KCAL/MOL
REMARK 922        TOTAL FREE ENERGY PREDICTED BY IDOCK:   -9.11 KCAL/MOL
REMARK 923 INTER-LIGAND FREE ENERGY PREDICTED BY IDOCK:   -8.98 KCAL/MOL
REMARK 924 INTRA-LIGAND FREE ENERGY PREDICTED BY IDOCK:   -0.13 KCAL/MOL
REMARK 927      BINDING AFFINITY PREDICTED BY RF-SCORE:    0.00 PKD
ROOT
HETATM    1  C   UNL     1      -7.977  15.376  66.990  1.00  0.00    -0.259 C  
HETATM    2  C   UNL     1      -8.416  14.183  67.793  1.00  0.00    -0.178 C  
HETATM    3  N   UNL     1      -9.397  13.354  67.242  1.00  0.00    -0.224 N  
HETATM    4  O   UNL     1      -7.882  13.952  68.881  1.00  0.00    -0.114 OA 
ENDROOT
BRANCH   3   5
HETATM    5  C   UNL     1      -9.797  12.249  68.063  1.00  0.00    -0.204 A  
HETATM    6  I   UNL     1     -10.877   8.706  71.373  1.00  0.00    -0.426 I  
HETATM    7  C   UNL     1     -10.557  10.152  69.781  1.00  0.00    -0.260 A  
HETATM    8  C   UNL     1      -9.155  10.984  67.971  1.00  0.00    -0.152 A  
HETATM    9  I   UNL     1      -7.691  10.683  66.404  1.00  0.00    -0.134 I  
HETATM   10  C   UNL     1     -10.903  12.417  68.937  1.00  0.00    -0.197 A  
HETATM   11  C   UNL     1     -11.285  11.375  69.811  1.00  0.00    -0.266 A  
HETATM   12  C   UNL     1      -9.526   9.922  68.832  1.00  0.00    -0.170 A  
HETATM   13  I   UNL     1     -12.015  14.292  68.838  1.00  0.00    -0.186 I  
BRANCH  12  14
HETATM   14  C   UNL     1      -8.767   8.630  68.787  1.00  0.00    -0.135 C  
HETATM   15  N   UNL     1      -9.308   7.595  68.049  1.00  0.00    -0.140 N  
HETATM   16  O   UNL     1      -7.712   8.518  69.402  1.00  0.00    -0.088 OA 
HETATM   17  H   UNL     1     -10.193   7.740  67.565  1.00  0.00     0.000 HD 
BRANCH  15  18
HETATM   18  C   UNL     1      -8.642   6.298  67.946  1.00  0.00    -0.115 C  
BRANCH  18  19
HETATM   19  C   UNL     1      -9.643   5.134  67.897  1.00  0.00    -0.135 C  
HETATM   20  H   UNL     1     -11.039   4.405  69.075  1.00  0.00     0.000 HD 
HETATM   21  O   UNL     1     -10.420   5.125  69.105  1.00  0.00    -0.198 OA 
BRANCH  19  22
HETATM   22  C   UNL     1     -10.561   5.227  66.666  1.00  0.00    -0.270 C  
HETATM   23  O   UNL     1     -11.524   6.270  66.803  1.00  0.00    -0.661 OA 
HETATM   24  H   UNL     1     -12.091   6.328  66.044  1.00  0.00     0.000 HD 
ENDBRANCH  19  22
ENDBRANCH  18  19
ENDBRANCH  15  18
ENDBRANCH  12  14
BRANCH  11  25
HETATM   25  C   UNL     1     -12.483  11.506  70.684  1.00  0.00    -0.314 C  
HETATM   26  O   UNL     1     -13.365  10.654  70.633  1.00  0.00    -0.183 OA 
HETATM   27  H   UNL     1     -11.773  13.265  71.541  1.00  0.00     0.000 HD 
HETATM   28  N   UNL     1     -12.555  12.610  71.516  1.00  0.00    -0.219 N  
BRANCH  28  29
HETATM   29  C   UNL     1     -13.712  12.862  72.354  1.00  0.00    -0.431 C  
BRANCH  29  30
HETATM   30  C   UNL     1     -14.243  14.269  72.121  1.00  0.00    -0.542 C  
HETATM   31  O   UNL     1     -13.850  15.112  73.206  1.00  0.00    -0.571 OA 
HETATM   32  H   UNL     1     -14.182  15.990  73.060  1.00  0.00     0.000 HD 
ENDBRANCH  29  30
ENDBRANCH  28  29
ENDBRANCH  11  25
ENDBRANCH   3   5
BRANCH   3  33
HETATM   33  C   UNL     1     -10.173  13.635  66.001  1.00  0.00    -0.307 C  
BRANCH  33  34
HETATM   34  C   UNL     1     -10.946  12.448  65.365  1.00  0.00    -0.299 C  
HETATM   35  O   UNL     1     -12.315  12.394  65.793  1.00  0.00    -0.644 OA 
HETATM   36  H   UNL     1     -12.788  11.668  65.404  1.00  0.00     0.000 HD 
BRANCH  34  37
HETATM   37  C   UNL     1     -10.939  12.498  63.826  1.00  0.00    -0.447 C  
HETATM   38  H   UNL     1     -12.255  12.386  62.350  1.00  0.00     0.000 HD 
HETATM   39  O   UNL     1     -12.259  12.355  63.299  1.00  0.00    -0.510 OA 
ENDBRANCH  34  37
ENDBRANCH  33  34
ENDBRANCH   3  33
TORSDOF 11
ENDMDL
MODEL       20
REMARK 921   NORMALIZED FREE ENERGY PREDICTED BY IDOCK:   -5.16 KCAL/MOL
REMARK 922        TOTAL FREE ENERGY PREDICTED BY IDOCK:   -9.09 KCAL/MOL
REMARK 923 INTER-LIGAND FREE ENERGY PREDICTED BY IDOCK:   -8.55 KCAL/MOL
REMARK 924 INTRA-LIGAND FREE ENERGY PREDICTED BY IDOCK:   -0.54 KCAL/MOL
REMARK 927      BINDING AFFINITY PREDICTED BY RF-SCORE:    0.00 PKD
ROOT
HETATM    1  C   UNL     1     -11.565   5.790  72.490  1.00  0.00    -0.321 C  
HETATM    2  C   UNL     1     -11.272   6.636  71.282  1.00  0.00    -0.282 C  
HETATM    3  N   UNL     1     -10.374   7.696  71.433  1.00  0.00    -0.197 N  
HETATM    4  O   UNL     1     -11.795   6.354  70.201  1.00  0.00    -0.409 OA 
ENDROOT
BRANCH   3   5
HETATM    5  C   UNL     1     -10.155   8.485  70.256  1.00  0.00    -0.186 A  
HETATM    6  I   UNL     1      -8.874  11.429  66.466  1.00  0.00    -0.169 I  
HETATM    7  C   UNL     1      -9.597  10.049  67.983  1.00  0.00    -0.138 A  
HETATM    8  C   UNL     1     -10.900   9.669  70.005  1.00  0.00    -0.264 A  
HETATM    9  I   UNL     1     -12.542  10.154  71.332  1.00  0.00    -0.570 I  
HETATM   10  C   UNL     1      -9.213   8.027  69.298  1.00  0.00    -0.152 A  
HETATM   11  C   UNL     1      -8.918   8.809  68.159  1.00  0.00    -0.141 A  
HETATM   12  C   UNL     1     -10.626  10.466  68.866  1.00  0.00    -0.241 A  
HETATM   13  I   UNL     1      -8.299   6.070  69.609  1.00  0.00    -0.120 I  
BRANCH  12  14
HETATM   14  C   UNL     1     -11.355  11.762  68.676  1.00  0.00    -0.270 C  
HETATM   15  N   UNL     1     -10.894  12.864  69.369  1.00  0.00    -0.445 N  
HETATM   16  O   UNL     1     -12.331  11.813  67.935  1.00  0.00    -0.399 OA 
HETATM   17  H   UNL     1     -10.083  12.763  69.980  1.00  0.00     0.000 HD 
BRANCH  15  18
HETATM   18  C   UNL     1     -11.538  14.170  69.250  1.00  0.00    -0.304 C  
BRANCH  18  19
HETATM   19  C   UNL     1     -11.165  15.110  70.406  1.00  0.00    -0.279 C  
HETATM   20  H   UNL     1     -10.561  16.972  70.590  1.00  0.00     0.000 HD 
HETATM   21  O   UNL     1     -10.791  16.391  69.874  1.00  0.00    -0.344 OA 
BRANCH  19  22
HETATM   22  C   UNL     1     -12.322  15.260  71.410  1.00  0.00    -0.359 C  
HETATM   23  O   UNL     1     -13.574  15.437  70.751  1.00  0.00    -0.709 OA 
HETATM   24  H   UNL     1     -14.287  15.529  71.370  1.00  0.00     0.000 HD 
ENDBRANCH  19  22
ENDBRANCH  18  19
ENDBRANCH  15  18
ENDBRANCH  12  14
BRANCH  11  25
HETATM   25  C   UNL     1      -7.987   8.316  67.109  1.00  0.00    -0.105 C  
HETATM   26  O   UNL     1      -6.784   8.533  67.215  1.00  0.00    -0.061 OA 
HETATM   27  H   UNL     1      -9.536   7.454  66.019  1.00  0.00     0.000 HD 
HETATM   28  N   UNL     1      -8.533   7.636  66.033  1.00  0.00    -0.137 N  
BRANCH  28  29
HETATM   29  C   UNL     1      -7.717   7.176  64.926  1.00  0.00    -0.117 C  
BRANCH  29  30
HETATM   30  C   UNL     1      -8.144   5.780  64.493  1.00  0.00    -0.132 C  
HETATM   31  O   UNL     1      -9.519   5.579  64.829  1.00  0.00    -0.329 OA 
HETATM   32  H   UNL     1      -9.786   4.708  64.559  1.00  0.00     0.000 HD 
ENDBRANCH  29  30
ENDBRANCH  28  29
ENDBRANCH  11  25
ENDBRANCH   3   5
BRANCH   3  33
HETATM   33  C   UNL     1      -9.805   8.173  72.726  1.00  0.00    -0.283 C  
BRANCH  33  34
HETATM   34  C   UNL     1      -8.272   8.015  72.925  1.00  0.00    -0.167 C  
HETATM   35  O   UNL     1      -7.521   8.975  72.167  1.00  0.00    -0.339 OA 
HETATM   36  H   UNL     1      -6.584   8.879  72.289  1.00  0.00     0.000 HD 
BRANCH  34  37
HETATM   37  C   UNL     1      -7.854   8.152  74.400  1.00  0.00    -0.245 C  
HETATM   38  H   UNL     1      -6.487   9.128  75.451  1.00  0.00     0.000 HD 
HETATM   39  O   UNL     1      -6.745   9.043  74.541  1.00  0.00    -0.345 OA 
ENDBRANCH  34  37
ENDBRANCH  33  34
ENDBRANCH   3  33
TORSDOF 11
ENDMDL
MODEL       21
REMARK 921   NORMALIZED FREE ENERGY PREDICTED BY IDOCK:   -5.09 KCAL/MOL
REMARK 922        TOTAL FREE ENERGY PREDICTED BY IDOCK:   -8.97 KCAL/MOL
REMARK 923 INTER-LIGAND FREE ENERGY PREDICTED BY IDOCK:   -8.38 KCAL/MOL
REMARK 924 INTRA-LIGAND FREE ENERGY PREDICTED BY IDOCK:   -0.59 KCAL/MOL
REMARK 927      BINDING AFFINITY PREDICTED BY RF-SCORE:    0.00 PKD
ROOT
HETATM    1  C   UNL     1      -6.878   5.969  66.194  1.00  0.00    -0.061 C  
HETATM    2  C   UNL     1      -7.650   6.803  67.179  1.00  0.00    -0.099 C  
HETATM    3  N   UNL     1      -9.040   6.852  67.042  1.00  0.00    -0.132 N  
HETATM    4  O   UNL     1      -7.049   7.382  68.088  1.00  0.00    -0.079 OA 
ENDROOT
BRANCH   3   5
HETATM    5  C   UNL     1      -9.721   7.684  67.990  1.00  0.00    -0.152 A  
HETATM    6  I   UNL     1     -12.605  10.271  71.098  1.00  0.00    -0.569 I  
HETATM    7  C   UNL     1     -11.160   9.232  69.850  1.00  0.00    -0.181 A  
HETATM    8  C   UNL     1      -9.994   9.052  67.719  1.00  0.00    -0.187 A  
HETATM    9  I   UNL     1      -9.166   9.930  65.920  1.00  0.00    -0.291 I  
HETATM   10  C   UNL     1     -10.067   7.131  69.252  1.00  0.00    -0.176 A  
HETATM   11  C   UNL     1     -10.798   7.896  70.187  1.00  0.00    -0.243 A  
HETATM   12  C   UNL     1     -10.720   9.840  68.645  1.00  0.00    -0.247 A  
HETATM   13  I   UNL     1      -9.383   5.111  69.712  1.00  0.00    -0.241 I  
BRANCH  12  14
HETATM   14  C   UNL     1     -11.084  11.251  68.293  1.00  0.00    -0.240 C  
HETATM   15  N   UNL     1     -10.200  12.250  68.650  1.00  0.00    -0.338 N  
HETATM   16  O   UNL     1     -12.142  11.485  67.718  1.00  0.00    -0.626 OA 
HETATM   17  H   UNL     1      -9.337  12.000  69.135  1.00  0.00     0.000 HD 
BRANCH  15  18
HETATM   18  C   UNL     1     -10.467  13.654  68.351  1.00  0.00    -0.246 C  
BRANCH  18  19
HETATM   19  C   UNL     1     -10.986  14.421  69.577  1.00  0.00    -0.197 C  
HETATM   20  H   UNL     1     -10.402  15.967  70.643  1.00  0.00     0.000 HD 
HETATM   21  O   UNL     1     -10.081  15.493  69.885  1.00  0.00    -0.286 OA 
BRANCH  19  22
HETATM   22  C   UNL     1     -12.407  14.965  69.346  1.00  0.00    -0.133 C  
HETATM   23  O   UNL     1     -13.049  15.304  70.573  1.00  0.00    -0.612 OA 
HETATM   24  H   UNL     1     -13.925  15.640  70.430  1.00  0.00     0.000 HD 
ENDBRANCH  19  22
ENDBRANCH  18  19
ENDBRANCH  15  18
ENDBRANCH  12  14
BRANCH  11  25
HETATM   25  C   UNL     1     -11.110   7.361  71.540  1.00  0.00    -0.239 C  
HETATM   26  O   UNL     1     -12.186   6.803  71.737  1.00  0.00    -0.333 OA 
HETATM   27  H   UNL     1      -9.273   7.975  72.301  1.00  0.00     0.000 HD 
HETATM   28  N   UNL     1     -10.163   7.535  72.535  1.00  0.00    -0.214 N  
BRANCH  28  29
HETATM   29  C   UNL     1     -10.403   7.110  73.901  1.00  0.00    -0.296 C  
BRANCH  29  30
HETATM   30  C   UNL     1     -10.112   5.624  74.055  1.00  0.00    -0.234 C  
HETATM   31  O   UNL     1     -11.344   4.907  74.159  1.00  0.00    -0.331 OA 
HETATM   32  H   UNL     1     -11.163   3.979  74.255  1.00  0.00     0.000 HD 
ENDBRANCH  29  30
ENDBRANCH  28  29
ENDBRANCH  11  25
ENDBRANCH   3   5
BRANCH   3  33
HETATM   33  C   UNL     1      -9.819   6.287  65.903  1.00  0.00     0.297 C  
BRANCH  33  34
HETATM   34  C   UNL     1     -10.455   4.885  66.107  1.00  0.00    -0.302 C  
HETATM   35  O   UNL     1     -11.580   4.664  65.244  1.00  0.00    -1.093 OA 
HETATM   36  H   UNL     1     -11.969   3.807  65.369  1.00  0.00     0.000 HD 
BRANCH  34  37
HETATM   37  C   UNL     1      -9.451   3.743  65.869  1.00  0.00    -0.171 C  
HETATM   38  H   UNL     1      -8.820   2.123  66.820  1.00  0.00     0.000 HD 
HETATM   39  O   UNL     1      -9.441   2.828  66.967  1.00  0.00    -0.125 OA 
ENDBRANCH  34  37
ENDBRANCH  33  34
ENDBRANCH   3  33
TORSDOF 11
ENDMDL
MODEL       22
REMARK 921   NORMALIZED FREE ENERGY PREDICTED BY IDOCK:   -5.08 KCAL/MOL
REMARK 922        TOTAL FREE ENERGY PREDICTED BY IDOCK:   -8.95 KCAL/MOL
REMARK 923 INTER-LIGAND FREE ENERGY PREDICTED BY IDOCK:   -8.49 KCAL/MOL
REMARK 924 INTRA-LIGAND FREE ENERGY PREDICTED BY IDOCK:   -0.46 KCAL/MOL
REMARK 927      BINDING AFFINITY PREDICTED BY RF-SCORE:    0.00 PKD
ROOT
HETATM    1  C   UNL     1      -5.427   8.451  64.456  1.00  0.00    -0.047 C  
HETATM    2  C   UNL     1      -6.494   9.120  65.276  1.00  0.00    -0.068 C  
HETATM    3  N   UNL     1      -7.780   8.574  65.243  1.00  0.00    -0.092 N  
HETATM    4  O   UNL     1      -6.203  10.096  65.973  1.00  0.00    -0.072 OA 
ENDROOT
BRANCH   3   5
HETATM    5  C   UNL     1      -8.763   9.269  66.021  1.00  0.00    -0.153 A  
HETATM    6  I   UNL     1     -11.752  12.147  68.752  1.00  0.00    -0.279 I  
HETATM    7  C   UNL     1     -10.628  10.747  67.525  1.00  0.00    -0.237 A  
HETATM    8  C   UNL     1      -9.006   8.936  67.381  1.00  0.00    -0.132 A  
HETATM    9  I   UNL     1      -8.011   7.200  68.211  1.00  0.00    -0.125 I  
HETATM   10  C   UNL     1      -9.549  10.267  65.387  1.00  0.00    -0.251 A  
HETATM   11  C   UNL     1     -10.480  11.022  66.135  1.00  0.00    -0.301 A  
HETATM   12  C   UNL     1      -9.940   9.674  68.150  1.00  0.00    -0.185 A  
HETATM   13  I   UNL     1      -9.317  10.545  63.236  1.00  0.00    -0.388 I  
BRANCH  12  14
HETATM   14  C   UNL     1     -10.105   9.371  69.608  1.00  0.00    -0.206 C  
HETATM   15  N   UNL     1     -11.242   8.690  69.996  1.00  0.00    -0.424 N  
HETATM   16  O   UNL     1      -9.252   9.738  70.410  1.00  0.00    -0.237 OA 
HETATM   17  H   UNL     1     -11.924   8.417  69.288  1.00  0.00     0.000 HD 
BRANCH  15  18
HETATM   18  C   UNL     1     -11.492   8.351  71.395  1.00  0.00    -0.277 C  
BRANCH  18  19
HETATM   19  C   UNL     1     -11.650   6.837  71.606  1.00  0.00    -0.295 C  
HETATM   20  H   UNL     1     -11.691   5.237  70.465  1.00  0.00     0.000 HD 
HETATM   21  O   UNL     1     -11.594   6.173  70.335  1.00  0.00    -0.343 OA 
BRANCH  19  22
HETATM   22  C   UNL     1     -10.572   6.282  72.554  1.00  0.00    -0.212 C  
HETATM   23  O   UNL     1     -11.071   6.113  73.879  1.00  0.00    -0.361 OA 
HETATM   24  H   UNL     1     -10.406   5.771  74.464  1.00  0.00     0.000 HD 
ENDBRANCH  19  22
ENDBRANCH  18  19
ENDBRANCH  15  18
ENDBRANCH  12  14
BRANCH  11  25
HETATM   25  C   UNL     1     -11.361  12.023  65.477  1.00  0.00    -0.328 C  
HETATM   26  O   UNL     1     -12.517  11.720  65.197  1.00  0.00    -0.172 OA 
HETATM   27  H   UNL     1      -9.866  13.471  65.481  1.00  0.00     0.000 HD 
HETATM   28  N   UNL     1     -10.823  13.266  65.191  1.00  0.00    -0.299 N  
BRANCH  28  29
HETATM   29  C   UNL     1     -11.581  14.286  64.491  1.00  0.00    -0.387 C  
BRANCH  29  30
HETATM   30  C   UNL     1     -11.105  15.674  64.894  1.00  0.00    -0.402 C  
HETATM   31  O   UNL     1     -11.457  16.612  63.874  1.00  0.00    -1.604 OA 
HETATM   32  H   UNL     1     -11.161  17.478  64.126  1.00  0.00     0.000 HD 
ENDBRANCH  29  30
ENDBRANCH  28  29
ENDBRANCH  11  25
ENDBRANCH   3   5
BRANCH   3  33
HETATM   33  C   UNL     1      -8.234   7.482  64.334  1.00  0.00    -0.015 C  
BRANCH  33  34
HETATM   34  C   UNL     1      -8.045   6.022  64.832  1.00  0.00    -0.133 C  
HETATM   35  O   UNL     1      -9.294   5.339  65.011  1.00  0.00    -0.347 OA 
HETATM   36  H   UNL     1      -9.179   4.447  65.315  1.00  0.00     0.000 HD 
BRANCH  34  37
HETATM   37  C   UNL     1      -7.184   5.181  63.872  1.00  0.00    -0.050 C  
HETATM   38  H   UNL     1      -7.394   4.289  62.115  1.00  0.00     0.000 HD 
HETATM   39  O   UNL     1      -7.925   4.809  62.708  1.00  0.00    -0.066 OA 
ENDBRANCH  34  37
ENDBRANCH  33  34
ENDBRANCH   3  33
TORSDOF 11
ENDMDL
MODEL       23
REMARK 921   NORMALIZED FREE ENERGY PREDICTED BY IDOCK:   -5.07 KCAL/MOL
REMARK 922        TOTAL FREE ENERGY PREDICTED BY IDOCK:   -8.94 KCAL/MOL
REMARK 923 INTER-LIGAND FREE ENERGY PREDICTED BY IDOCK:   -8.72 KCAL/MOL
REMARK 924 INTRA-LIGAND FREE ENERGY PREDICTED BY IDOCK:   -0.23 KCAL/MOL
REMARK 927      BINDING AFFINITY PREDICTED BY RF-SCORE:    0.00 PKD
ROOT
HETATM    1  C   UNL     1      -7.069  16.157  66.874  1.00  0.00    -0.222 C  
HETATM    2  C   UNL     1      -8.011  15.360  67.733  1.00  0.00    -0.146 C  
HETATM    3  N   UNL     1      -9.102  14.748  67.109  1.00  0.00    -0.206 N  
HETATM    4  O   UNL     1      -7.781  15.239  68.939  1.00  0.00    -0.140 OA 
ENDROOT
BRANCH   3   5
HETATM    5  C   UNL     1      -9.981  14.025  67.979  1.00  0.00    -0.235 A  
HETATM    6  I   UNL     1     -12.602  11.621  71.447  1.00  0.00     0.006 I  
HETATM    7  C   UNL     1     -11.645  12.658  69.793  1.00  0.00    -0.214 A  
HETATM    8  C   UNL     1     -10.081  12.609  67.925  1.00  0.00    -0.222 A  
HETATM    9  I   UNL     1      -9.036  11.561  66.344  1.00  0.00    -0.180 I  
HETATM   10  C   UNL     1     -10.812  14.759  68.867  1.00  0.00    -0.254 A  
HETATM   11  C   UNL     1     -11.642  14.083  69.788  1.00  0.00    -0.344 A  
HETATM   12  C   UNL     1     -10.913  11.909  68.835  1.00  0.00    -0.285 A  
HETATM   13  I   UNL     1     -10.810  16.935  68.715  1.00  0.00    -0.033 I  
BRANCH  12  14
HETATM   14  C   UNL     1     -10.924  10.410  68.826  1.00  0.00    -0.245 C  
HETATM   15  N   UNL     1      -9.950   9.757  69.555  1.00  0.00    -0.200 N  
HETATM   16  O   UNL     1     -11.772   9.808  68.176  1.00  0.00     0.169 OA 
HETATM   17  H   UNL     1      -9.263  10.308  70.071  1.00  0.00     0.000 HD 
BRANCH  15  18
HETATM   18  C   UNL     1      -9.879   8.299  69.607  1.00  0.00    -0.184 C  
BRANCH  18  19
HETATM   19  C   UNL     1     -10.196   7.751  71.007  1.00  0.00    -0.197 C  
HETATM   20  H   UNL     1     -10.292   8.476  72.832  1.00  0.00     0.000 HD 
HETATM   21  O   UNL     1     -10.096   8.815  71.967  1.00  0.00    -0.313 OA 
BRANCH  19  22
HETATM   22  C   UNL     1     -11.592   7.106  71.060  1.00  0.00    -0.309 C  
HETATM   23  O   UNL     1     -11.914   6.651  72.372  1.00  0.00    -0.452 OA 
HETATM   24  H   UNL     1     -12.775   6.252  72.405  1.00  0.00     0.000 HD 
ENDBRANCH  19  22
ENDBRANCH  18  19
ENDBRANCH  15  18
ENDBRANCH  12  14
BRANCH  11  25
HETATM   25  C   UNL     1     -12.571  14.830  70.678  1.00  0.00    -0.354 C  
HETATM   26  O   UNL     1     -13.736  15.000  70.331  1.00  0.00     0.017 OA 
HETATM   27  H   UNL     1     -11.097  15.117  72.119  1.00  0.00     0.000 HD 
HETATM   28  N   UNL     1     -12.065  15.322  71.869  1.00  0.00    -0.347 N  
BRANCH  28  29
HETATM   29  C   UNL     1     -12.872  16.122  72.771  1.00  0.00    -0.360 C  
BRANCH  29  30
HETATM   30  C   UNL     1     -12.518  15.812  74.219  1.00  0.00    -0.654 C  
HETATM   31  O   UNL     1     -11.809  14.572  74.280  1.00  0.00    -0.463 OA 
HETATM   32  H   UNL     1     -11.589  14.379  75.184  1.00  0.00     0.000 HD 
ENDBRANCH  29  30
ENDBRANCH  28  29
ENDBRANCH  11  25
ENDBRANCH   3   5
BRANCH   3  33
HETATM   33  C   UNL     1      -9.514  14.951  65.690  1.00  0.00    -0.117 C  
BRANCH  33  34
HETATM   34  C   UNL     1     -11.026  15.182  65.419  1.00  0.00    -0.374 C  
HETATM   35  O   UNL     1     -11.258  16.242  64.480  1.00  0.00    -0.766 OA 
HETATM   36  H   UNL     1     -12.183  16.383  64.314  1.00  0.00     0.000 HD 
BRANCH  34  37
HETATM   37  C   UNL     1     -11.725  13.920  64.881  1.00  0.00    -0.368 C  
HETATM   38  H   UNL     1     -13.498  13.048  65.035  1.00  0.00     0.000 HD 
HETATM   39  O   UNL     1     -13.066  13.827  65.367  1.00  0.00    -0.727 OA 
ENDBRANCH  34  37
ENDBRANCH  33  34
ENDBRANCH   3  33
TORSDOF 11
ENDMDL
MODEL       24
REMARK 921   NORMALIZED FREE ENERGY PREDICTED BY IDOCK:   -5.06 KCAL/MOL
REMARK 922        TOTAL FREE ENERGY PREDICTED BY IDOCK:   -8.92 KCAL/MOL
REMARK 923 INTER-LIGAND FREE ENERGY PREDICTED BY IDOCK:   -8.30 KCAL/MOL
REMARK 924 INTRA-LIGAND FREE ENERGY PREDICTED BY IDOCK:   -0.62 KCAL/MOL
REMARK 927      BINDING AFFINITY PREDICTED BY RF-SCORE:    0.00 PKD
ROOT
HETATM    1  C   UNL     1     -11.995   6.467  72.364  1.00  0.00    -0.199 C  
HETATM    2  C   UNL     1     -11.516   7.030  71.055  1.00  0.00    -0.303 C  
HETATM    3  N   UNL     1     -10.358   7.813  71.067  1.00  0.00    -0.202 N  
HETATM    4  O   UNL     1     -12.127   6.760  70.018  1.00  0.00    -0.242 OA 
ENDROOT
BRANCH   3   5
HETATM    5  C   UNL     1      -9.964   8.345  69.796  1.00  0.00    -0.191 A  
HETATM    6  I   UNL     1      -8.051  10.327  65.663  1.00  0.00    -0.151 I  
HETATM    7  C   UNL     1      -9.065   9.383  67.338  1.00  0.00    -0.126 A  
HETATM    8  C   UNL     1     -10.436   9.606  69.339  1.00  0.00    -0.220 A  
HETATM    9  I   UNL     1     -11.947  10.626  70.509  1.00  0.00    -0.485 I  
HETATM   10  C   UNL     1      -9.135   7.555  68.957  1.00  0.00    -0.140 A  
HETATM   11  C   UNL     1      -8.669   8.071  67.727  1.00  0.00    -0.127 A  
HETATM   12  C   UNL     1      -9.988  10.140  68.106  1.00  0.00    -0.170 A  
HETATM   13  I   UNL     1      -8.665   5.522  69.595  1.00  0.00    -0.132 I  
BRANCH  12  14
HETATM   14  C   UNL     1     -10.420  11.515  67.693  1.00  0.00    -0.189 C  
HETATM   15  N   UNL     1     -11.408  11.615  66.733  1.00  0.00    -0.319 N  
HETATM   16  O   UNL     1      -9.889  12.500  68.195  1.00  0.00    -0.211 OA 
HETATM   17  H   UNL     1     -11.809  10.763  66.342  1.00  0.00     0.000 HD 
BRANCH  15  18
HETATM   18  C   UNL     1     -11.894  12.912  66.266  1.00  0.00    -0.416 C  
BRANCH  18  19
HETATM   19  C   UNL     1     -12.414  12.851  64.822  1.00  0.00    -0.455 C  
HETATM   20  H   UNL     1     -12.939  14.148  63.441  1.00  0.00     0.000 HD 
HETATM   21  O   UNL     1     -12.617  14.186  64.334  1.00  0.00    -0.658 OA 
BRANCH  19  22
HETATM   22  C   UNL     1     -11.448  12.082  63.904  1.00  0.00    -0.435 C  
HETATM   23  O   UNL     1     -12.145  11.357  62.892  1.00  0.00    -0.919 OA 
HETATM   24  H   UNL     1     -11.549  10.883  62.326  1.00  0.00     0.000 HD 
ENDBRANCH  19  22
ENDBRANCH  18  19
ENDBRANCH  15  18
ENDBRANCH  12  14
BRANCH  11  25
HETATM   25  C   UNL     1      -7.857   7.235  66.802  1.00  0.00    -0.113 C  
HETATM   26  O   UNL     1      -6.632   7.275  66.868  1.00  0.00    -0.055 OA 
HETATM   27  H   UNL     1      -9.553   6.433  65.900  1.00  0.00     0.000 HD 
HETATM   28  N   UNL     1      -8.533   6.451  65.882  1.00  0.00    -0.142 N  
BRANCH  28  29
HETATM   29  C   UNL     1      -7.831   5.654  64.894  1.00  0.00    -0.110 C  
BRANCH  29  30
HETATM   30  C   UNL     1      -8.186   6.115  63.488  1.00  0.00    -0.004 C  
HETATM   31  O   UNL     1      -8.539   7.500  63.517  1.00  0.00    -0.354 OA 
HETATM   32  H   UNL     1      -8.761   7.788  62.639  1.00  0.00     0.000 HD 
ENDBRANCH  29  30
ENDBRANCH  28  29
ENDBRANCH  11  25
ENDBRANCH   3   5
BRANCH   3  33
HETATM   33  C   UNL     1      -9.643   8.284  72.288  1.00  0.00    -0.285 C  
BRANCH  33  34
HETATM   34  C   UNL     1      -8.091   8.278  72.245  1.00  0.00    -0.149 C  
HETATM   35  O   UNL     1      -7.557   9.452  71.616  1.00  0.00    -0.310 OA 
HETATM   36  H   UNL     1      -6.607   9.448  71.590  1.00  0.00     0.000 HD 
BRANCH  34  37
HETATM   37  C   UNL     1      -7.464   8.172  73.647  1.00  0.00    -0.154 C  
HETATM   38  H   UNL     1      -6.089   9.118  74.713  1.00  0.00     0.000 HD 
HETATM   39  O   UNL     1      -6.475   9.184  73.848  1.00  0.00    -0.337 OA 
ENDBRANCH  34  37
ENDBRANCH  33  34
ENDBRANCH   3  33
TORSDOF 11
ENDMDL
MODEL       25
REMARK 921   NORMALIZED FREE ENERGY PREDICTED BY IDOCK:   -5.04 KCAL/MOL
REMARK 922        TOTAL FREE ENERGY PREDICTED BY IDOCK:   -8.89 KCAL/MOL
REMARK 923 INTER-LIGAND FREE ENERGY PREDICTED BY IDOCK:   -7.79 KCAL/MOL
REMARK 924 INTRA-LIGAND FREE ENERGY PREDICTED BY IDOCK:   -1.11 KCAL/MOL
REMARK 927      BINDING AFFINITY PREDICTED BY RF-SCORE:    0.00 PKD
ROOT
HETATM    1  C   UNL     1     -10.583  18.104  67.007  1.00  0.00    -0.346 C  
HETATM    2  C   UNL     1      -9.898  16.786  66.774  1.00  0.00    -0.276 C  
HETATM    3  N   UNL     1     -10.335  15.686  67.516  1.00  0.00    -0.271 N  
HETATM    4  O   UNL     1      -9.008  16.705  65.924  1.00  0.00    -0.482 OA 
ENDROOT
BRANCH   3   5
HETATM    5  C   UNL     1      -9.628  14.463  67.274  1.00  0.00    -0.227 A  
HETATM    6  I   UNL     1      -7.617   9.947  66.788  1.00  0.00    -0.098 I  
HETATM    7  C   UNL     1      -8.348  11.994  66.835  1.00  0.00    -0.159 A  
HETATM    8  C   UNL     1      -8.414  14.159  67.948  1.00  0.00    -0.167 A  
HETATM    9  I   UNL     1      -7.523  15.684  69.202  1.00  0.00    -0.210 I  
HETATM   10  C   UNL     1     -10.130  13.572  66.288  1.00  0.00    -0.298 A  
HETATM   11  C   UNL     1      -9.502  12.327  66.068  1.00  0.00    -0.194 A  
HETATM   12  C   UNL     1      -7.762  12.919  67.738  1.00  0.00    -0.151 A  
HETATM   13  I   UNL     1     -11.842  14.215  65.098  1.00  0.00    -0.446 I  
BRANCH  12  14
HETATM   14  C   UNL     1      -6.540  12.580  68.535  1.00  0.00    -0.077 C  
HETATM   15  N   UNL     1      -6.725  12.054  69.799  1.00  0.00    -0.341 N  
HETATM   16  O   UNL     1      -5.426  12.783  68.065  1.00  0.00    -0.073 OA 
HETATM   17  H   UNL     1      -7.674  11.914  70.145  1.00  0.00     0.000 HD 
BRANCH  15  18
HETATM   18  C   UNL     1      -5.595  11.693  70.652  1.00  0.00    -0.143 C  
BRANCH  18  19
HETATM   19  C   UNL     1      -5.595  10.201  71.017  1.00  0.00    -0.085 C  
HETATM   20  H   UNL     1      -5.558   9.139  72.672  1.00  0.00     0.000 HD 
HETATM   21  O   UNL     1      -5.558  10.062  72.446  1.00  0.00    -0.294 OA 
BRANCH  19  22
HETATM   22  C   UNL     1      -6.822   9.476  70.437  1.00  0.00    -0.101 C  
HETATM   23  O   UNL     1      -7.992   9.711  71.218  1.00  0.00    -0.281 OA 
HETATM   24  H   UNL     1      -8.750   9.264  70.860  1.00  0.00     0.000 HD 
ENDBRANCH  19  22
ENDBRANCH  18  19
ENDBRANCH  15  18
ENDBRANCH  12  14
BRANCH  11  25
HETATM   25  C   UNL     1      -9.969  11.410  64.993  1.00  0.00    -0.266 C  
HETATM   26  O   UNL     1     -10.796  10.543  65.254  1.00  0.00    -0.053 OA 
HETATM   27  H   UNL     1      -8.770  12.334  63.565  1.00  0.00     0.000 HD 
HETATM   28  N   UNL     1      -9.427  11.572  63.729  1.00  0.00    -0.174 N  
BRANCH  28  29
HETATM   29  C   UNL     1      -9.767  10.685  62.632  1.00  0.00    -0.188 C  
BRANCH  29  30
HETATM   30  C   UNL     1      -8.693   9.622  62.454  1.00  0.00    -0.230 C  
HETATM   31  O   UNL     1      -8.855   8.611  63.451  1.00  0.00    -0.429 OA 
HETATM   32  H   UNL     1      -8.185   7.947  63.340  1.00  0.00     0.000 HD 
ENDBRANCH  29  30
ENDBRANCH  28  29
ENDBRANCH  11  25
ENDBRANCH   3   5
BRANCH   3  33
HETATM   33  C   UNL     1     -11.310  15.732  68.643  1.00  0.00    -0.369 C  
BRANCH  33  34
HETATM   34  C   UNL     1     -11.190  14.628  69.729  1.00  0.00    -0.259 C  
HETATM   35  O   UNL     1     -10.819  15.158  71.010  1.00  0.00    -0.531 OA 
HETATM   36  H   UNL     1     -10.746  14.483  71.674  1.00  0.00     0.000 HD 
BRANCH  34  37
HETATM   37  C   UNL     1     -12.499  13.838  69.911  1.00  0.00    -0.201 C  
HETATM   38  H   UNL     1     -13.069  12.104  70.680  1.00  0.00     0.000 HD 
HETATM   39  O   UNL     1     -12.262  12.591  70.568  1.00  0.00    -0.365 OA 
ENDBRANCH  34  37
ENDBRANCH  33  34
ENDBRANCH   3  33
TORSDOF 11
ENDMDL
MODEL       26
REMARK 921   NORMALIZED FREE ENERGY PREDICTED BY IDOCK:   -5.04 KCAL/MOL
REMARK 922        TOTAL FREE ENERGY PREDICTED BY IDOCK:   -8.88 KCAL/MOL
REMARK 923 INTER-LIGAND FREE ENERGY PREDICTED BY IDOCK:   -7.35 KCAL/MOL
REMARK 924 INTRA-LIGAND FREE ENERGY PREDICTED BY IDOCK:   -1.53 KCAL/MOL
REMARK 927      BINDING AFFINITY PREDICTED BY RF-SCORE:    0.00 PKD
ROOT
HETATM    1  C   UNL     1      -9.393   4.854  65.489  1.00  0.00    -0.163 C  
HETATM    2  C   UNL     1     -10.014   5.812  66.467  1.00  0.00    -0.163 C  
HETATM    3  N   UNL     1      -9.160   6.520  67.317  1.00  0.00    -0.116 N  
HETATM    4  O   UNL     1     -11.237   5.971  66.468  1.00  0.00    -0.144 OA 
ENDROOT
BRANCH   3   5
HETATM    5  C   UNL     1      -9.809   7.397  68.247  1.00  0.00    -0.160 A  
HETATM    6  I   UNL     1     -12.591  10.152  71.303  1.00  0.00    -0.579 I  
HETATM    7  C   UNL     1     -11.187   9.039  70.072  1.00  0.00    -0.128 A  
HETATM    8  C   UNL     1     -10.051   8.763  67.935  1.00  0.00    -0.207 A  
HETATM    9  I   UNL     1      -9.224   9.563  66.101  1.00  0.00    -0.292 I  
HETATM   10  C   UNL     1     -10.154   6.893  69.528  1.00  0.00    -0.173 A  
HETATM   11  C   UNL     1     -10.855   7.705  70.448  1.00  0.00    -0.252 A  
HETATM   12  C   UNL     1     -10.746   9.598  68.844  1.00  0.00    -0.230 A  
HETATM   13  I   UNL     1      -9.515   4.872  70.044  1.00  0.00    -0.294 I  
BRANCH  12  14
HETATM   14  C   UNL     1     -11.079  11.006  68.452  1.00  0.00    -0.251 C  
HETATM   15  N   UNL     1     -10.181  11.996  68.795  1.00  0.00    -0.366 N  
HETATM   16  O   UNL     1     -12.126  11.245  67.858  1.00  0.00    -0.634 OA 
HETATM   17  H   UNL     1      -9.329  11.743  69.297  1.00  0.00     0.000 HD 
BRANCH  15  18
HETATM   18  C   UNL     1     -10.418  13.398  68.458  1.00  0.00    -0.252 C  
BRANCH  18  19
HETATM   19  C   UNL     1      -9.507  13.884  67.320  1.00  0.00    -0.239 C  
HETATM   20  H   UNL     1      -7.702  13.465  66.663  1.00  0.00     0.000 HD 
HETATM   21  O   UNL     1      -8.265  13.164  67.367  1.00  0.00    -0.171 OA 
BRANCH  19  22
HETATM   22  C   UNL     1     -10.177  13.715  65.946  1.00  0.00    -0.311 C  
HETATM   23  O   UNL     1     -11.554  13.363  66.069  1.00  0.00    -0.322 OA 
HETATM   24  H   UNL     1     -11.968  13.259  65.221  1.00  0.00     0.000 HD 
ENDBRANCH  19  22
ENDBRANCH  18  19
ENDBRANCH  15  18
ENDBRANCH  12  14
BRANCH  11  25
HETATM   25  C   UNL     1     -11.164   7.221  71.820  1.00  0.00    -0.247 C  
HETATM   26  O   UNL     1     -12.274   6.756  72.062  1.00  0.00    -0.321 OA 
HETATM   27  H   UNL     1      -9.259   7.695  72.510  1.00  0.00     0.000 HD 
HETATM   28  N   UNL     1     -10.174   7.334  72.781  1.00  0.00    -0.204 N  
BRANCH  28  29
HETATM   29  C   UNL     1     -10.401   6.953  74.162  1.00  0.00    -0.243 C  
BRANCH  29  30
HETATM   30  C   UNL     1     -10.143   5.465  74.353  1.00  0.00    -0.259 C  
HETATM   31  O   UNL     1     -11.339   4.735  74.072  1.00  0.00    -0.353 OA 
HETATM   32  H   UNL     1     -11.178   3.807  74.192  1.00  0.00     0.000 HD 
ENDBRANCH  29  30
ENDBRANCH  28  29
ENDBRANCH  11  25
ENDBRANCH   3   5
BRANCH   3  33
HETATM   33  C   UNL     1      -7.694   6.289  67.461  1.00  0.00    -0.101 C  
BRANCH  33  34
HETATM   34  C   UNL     1      -6.882   7.362  68.237  1.00  0.00    -0.063 C  
HETATM   35  O   UNL     1      -6.441   6.893  69.519  1.00  0.00    -0.041 OA 
HETATM   36  H   UNL     1      -5.944   7.549  69.993  1.00  0.00     0.000 HD 
BRANCH  34  37
HETATM   37  C   UNL     1      -5.640   7.835  67.459  1.00  0.00    -0.036 C  
HETATM   38  H   UNL     1      -5.046   7.943  65.572  1.00  0.00     0.000 HD 
HETATM   39  O   UNL     1      -5.813   7.652  66.052  1.00  0.00    -0.036 OA 
ENDBRANCH  34  37
ENDBRANCH  33  34
ENDBRANCH   3  33
TORSDOF 11
ENDMDL
MODEL       27
REMARK 921   NORMALIZED FREE ENERGY PREDICTED BY IDOCK:   -5.03 KCAL/MOL
REMARK 922        TOTAL FREE ENERGY PREDICTED BY IDOCK:   -8.88 KCAL/MOL
REMARK 923 INTER-LIGAND FREE ENERGY PREDICTED BY IDOCK:   -8.28 KCAL/MOL
REMARK 924 INTRA-LIGAND FREE ENERGY PREDICTED BY IDOCK:   -0.60 KCAL/MOL
REMARK 927      BINDING AFFINITY PREDICTED BY RF-SCORE:    0.00 PKD
ROOT
HETATM    1  C   UNL     1      -9.240   4.370  65.309  1.00  0.00    -0.155 C  
HETATM    2  C   UNL     1      -9.797   5.482  66.152  1.00  0.00    -0.107 C  
HETATM    3  N   UNL     1      -8.893   6.273  66.867  1.00  0.00    -0.113 N  
HETATM    4  O   UNL     1     -11.013   5.688  66.162  1.00  0.00    -0.091 OA 
ENDROOT
BRANCH   3   5
HETATM    5  C   UNL     1      -9.482   7.300  67.675  1.00  0.00    -0.131 A  
HETATM    6  I   UNL     1     -12.076  10.641  70.279  1.00  0.00    -0.417 I  
HETATM    7  C   UNL     1     -10.752   9.252  69.258  1.00  0.00    -0.196 A  
HETATM    8  C   UNL     1      -9.493   8.659  67.258  1.00  0.00    -0.156 A  
HETATM    9  I   UNL     1      -8.405   9.195  65.464  1.00  0.00    -0.185 I  
HETATM   10  C   UNL     1     -10.004   6.947  68.948  1.00  0.00    -0.157 A  
HETATM   11  C   UNL     1     -10.653   7.917  69.744  1.00  0.00    -0.242 A  
HETATM   12  C   UNL     1     -10.132   9.650  68.044  1.00  0.00    -0.213 A  
HETATM   13  I   UNL     1      -9.716   4.901  69.646  1.00  0.00    -0.289 I  
BRANCH  12  14
HETATM   14  C   UNL     1     -10.220  11.057  67.536  1.00  0.00    -0.188 C  
HETATM   15  N   UNL     1     -11.139  11.322  66.539  1.00  0.00    -0.261 N  
HETATM   16  O   UNL     1      -9.481  11.921  67.995  1.00  0.00    -0.184 OA 
HETATM   17  H   UNL     1     -11.722  10.563  66.186  1.00  0.00     0.000 HD 
BRANCH  15  18
HETATM   18  C   UNL     1     -11.297  12.662  65.978  1.00  0.00    -0.327 C  
BRANCH  18  19
HETATM   19  C   UNL     1     -12.442  12.733  64.957  1.00  0.00    -0.506 C  
HETATM   20  H   UNL     1     -13.828  14.037  64.459  1.00  0.00     0.000 HD 
HETATM   21  O   UNL     1     -13.119  13.993  65.091  1.00  0.00    -0.776 OA 
BRANCH  19  22
HETATM   22  C   UNL     1     -11.931  12.546  63.518  1.00  0.00    -0.543 C  
HETATM   23  O   UNL     1     -12.662  11.537  62.825  1.00  0.00    -0.907 OA 
HETATM   24  H   UNL     1     -12.346  11.421  61.937  1.00  0.00     0.000 HD 
ENDBRANCH  19  22
ENDBRANCH  18  19
ENDBRANCH  15  18
ENDBRANCH  12  14
BRANCH  11  25
HETATM   25  C   UNL     1     -11.145   7.585  71.109  1.00  0.00    -0.251 C  
HETATM   26  O   UNL     1     -12.339   7.359  71.283  1.00  0.00    -0.327 OA 
HETATM   27  H   UNL     1      -9.236   7.722  71.925  1.00  0.00     0.000 HD 
HETATM   28  N   UNL     1     -10.220   7.561  72.138  1.00  0.00    -0.191 N  
BRANCH  28  29
HETATM   29  C   UNL     1     -10.612   7.316  73.513  1.00  0.00    -0.362 C  
BRANCH  29  30
HETATM   30  C   UNL     1     -10.513   5.832  73.838  1.00  0.00    -0.275 C  
HETATM   31  O   UNL     1     -11.634   5.147  73.276  1.00  0.00    -0.484 OA 
HETATM   32  H   UNL     1     -11.572   4.221  73.479  1.00  0.00     0.000 HD 
ENDBRANCH  29  30
ENDBRANCH  28  29
ENDBRANCH  11  25
ENDBRANCH   3   5
BRANCH   3  33
HETATM   33  C   UNL     1      -7.432   6.009  67.005  1.00  0.00    -0.084 C  
BRANCH  33  34
HETATM   34  C   UNL     1      -6.687   6.738  68.157  1.00  0.00    -0.068 C  
HETATM   35  O   UNL     1      -6.091   5.823  69.088  1.00  0.00    -0.022 OA 
HETATM   36  H   UNL     1      -5.636   6.268  69.792  1.00  0.00     0.000 HD 
BRANCH  34  37
HETATM   37  C   UNL     1      -5.575   7.670  67.641  1.00  0.00    -0.035 C  
HETATM   38  H   UNL     1      -4.632   9.303  68.248  1.00  0.00     0.000 HD 
HETATM   39  O   UNL     1      -5.318   8.727  68.567  1.00  0.00    -0.036 OA 
ENDBRANCH  34  37
ENDBRANCH  33  34
ENDBRANCH   3  33
TORSDOF 11
ENDMDL
MODEL       28
REMARK 921   NORMALIZED FREE ENERGY PREDICTED BY IDOCK:   -5.03 KCAL/MOL
REMARK 922        TOTAL FREE ENERGY PREDICTED BY IDOCK:   -8.87 KCAL/MOL
REMARK 923 INTER-LIGAND FREE ENERGY PREDICTED BY IDOCK:   -7.50 KCAL/MOL
REMARK 924 INTRA-LIGAND FREE ENERGY PREDICTED BY IDOCK:   -1.37 KCAL/MOL
REMARK 927      BINDING AFFINITY PREDICTED BY RF-SCORE:    0.00 PKD
ROOT
HETATM    1  C   UNL     1      -6.306   9.122  68.607  1.00  0.00    -0.049 C  
HETATM    2  C   UNL     1      -7.094  10.390  68.432  1.00  0.00    -0.078 C  
HETATM    3  N   UNL     1      -6.837  11.164  67.297  1.00  0.00    -0.088 N  
HETATM    4  O   UNL     1      -7.955  10.691  69.262  1.00  0.00    -0.147 OA 
ENDROOT
BRANCH   3   5
HETATM    5  C   UNL     1      -7.597  12.375  67.196  1.00  0.00    -0.104 A  
HETATM    6  I   UNL     1     -10.057  16.584  66.241  1.00  0.00    -0.351 I  
HETATM    7  C   UNL     1      -9.090  14.739  66.866  1.00  0.00    -0.248 A  
HETATM    8  C   UNL     1      -7.103  13.607  67.705  1.00  0.00    -0.161 A  
HETATM    9  I   UNL     1      -5.259  13.587  68.842  1.00  0.00    -0.080 I  
HETATM   10  C   UNL     1      -8.897  12.316  66.629  1.00  0.00    -0.167 A  
HETATM   11  C   UNL     1      -9.650  13.498  66.449  1.00  0.00    -0.268 A  
HETATM   12  C   UNL     1      -7.843  14.804  67.542  1.00  0.00    -0.208 A  
HETATM   13  I   UNL     1      -9.706  10.356  66.114  1.00  0.00    -0.311 I  
BRANCH  12  14
HETATM   14  C   UNL     1      -7.257  16.106  67.996  1.00  0.00    -0.129 C  
HETATM   15  N   UNL     1      -6.480  16.808  67.096  1.00  0.00    -0.172 N  
HETATM   16  O   UNL     1      -7.464  16.506  69.137  1.00  0.00    -0.226 OA 
HETATM   17  H   UNL     1      -6.332  16.424  66.162  1.00  0.00     0.000 HD 
BRANCH  15  18
HETATM   18  C   UNL     1      -5.864  18.086  67.447  1.00  0.00    -0.148 C  
BRANCH  18  19
HETATM   19  C   UNL     1      -6.543  19.270  66.742  1.00  0.00    -0.191 C  
HETATM   20  H   UNL     1      -7.473  19.570  65.036  1.00  0.00     0.000 HD 
HETATM   21  O   UNL     1      -7.054  18.837  65.472  1.00  0.00    -0.470 OA 
BRANCH  19  22
HETATM   22  C   UNL     1      -7.670  19.870  67.600  1.00  0.00    -0.291 C  
HETATM   23  O   UNL     1      -7.642  19.367  68.935  1.00  0.00    -0.355 OA 
HETATM   24  H   UNL     1      -8.337  19.737  69.465  1.00  0.00     0.000 HD 
ENDBRANCH  19  22
ENDBRANCH  18  19
ENDBRANCH  15  18
ENDBRANCH  12  14
BRANCH  11  25
HETATM   25  C   UNL     1     -11.041  13.449  65.922  1.00  0.00    -0.280 C  
HETATM   26  O   UNL     1     -11.984  13.403  66.707  1.00  0.00    -0.383 OA 
HETATM   27  H   UNL     1     -10.387  13.520  63.948  1.00  0.00     0.000 HD 
HETATM   28  N   UNL     1     -11.208  13.443  64.548  1.00  0.00    -0.356 N  
BRANCH  28  29
HETATM   29  C   UNL     1     -12.519  13.329  63.938  1.00  0.00    -0.257 C  
BRANCH  29  30
HETATM   30  C   UNL     1     -12.728  11.928  63.381  1.00  0.00    -0.366 C  
HETATM   31  O   UNL     1     -11.469  11.387  62.974  1.00  0.00    -0.853 OA 
HETATM   32  H   UNL     1     -11.600  10.512  62.626  1.00  0.00     0.000 HD 
ENDBRANCH  29  30
ENDBRANCH  28  29
ENDBRANCH  11  25
ENDBRANCH   3   5
BRANCH   3  33
HETATM   33  C   UNL     1      -5.732  10.934  66.323  1.00  0.00    -0.128 C  
BRANCH  33  34
HETATM   34  C   UNL     1      -6.119  10.340  64.940  1.00  0.00    -0.128 C  
HETATM   35  O   UNL     1      -5.560  11.087  63.849  1.00  0.00    -0.391 OA 
HETATM   36  H   UNL     1      -5.796  10.724  63.004  1.00  0.00     0.000 HD 
BRANCH  34  37
HETATM   37  C   UNL     1      -5.671   8.876  64.784  1.00  0.00    -0.062 C  
HETATM   38  H   UNL     1      -6.441   7.071  65.055  1.00  0.00     0.000 HD 
HETATM   39  O   UNL     1      -6.718   7.975  65.151  1.00  0.00    -0.051 OA 
ENDBRANCH  34  37
ENDBRANCH  33  34
ENDBRANCH   3  33
TORSDOF 11
ENDMDL
MODEL       29
REMARK 921   NORMALIZED FREE ENERGY PREDICTED BY IDOCK:   -4.98 KCAL/MOL
REMARK 922        TOTAL FREE ENERGY PREDICTED BY IDOCK:   -8.79 KCAL/MOL
REMARK 923 INTER-LIGAND FREE ENERGY PREDICTED BY IDOCK:   -7.51 KCAL/MOL
REMARK 924 INTRA-LIGAND FREE ENERGY PREDICTED BY IDOCK:   -1.27 KCAL/MOL
REMARK 927      BINDING AFFINITY PREDICTED BY RF-SCORE:    0.00 PKD
ROOT
HETATM    1  C   UNL     1      -7.428   8.727  68.505  1.00  0.00    -0.089 C  
HETATM    2  C   UNL     1      -7.821  10.151  68.785  1.00  0.00    -0.098 C  
HETATM    3  N   UNL     1      -8.144  10.964  67.695  1.00  0.00    -0.114 N  
HETATM    4  O   UNL     1      -7.882  10.546  69.952  1.00  0.00    -0.117 OA 
ENDROOT
BRANCH   3   5
HETATM    5  C   UNL     1      -8.484  12.318  68.019  1.00  0.00    -0.171 A  
HETATM    6  I   UNL     1      -9.879  17.055  68.555  1.00  0.00    -0.332 I  
HETATM    7  C   UNL     1      -9.233  14.979  68.552  1.00  0.00    -0.192 A  
HETATM    8  C   UNL     1      -7.495  13.337  68.086  1.00  0.00    -0.128 A  
HETATM    9  I   UNL     1      -5.414  12.767  67.902  1.00  0.00    -0.100 I  
HETATM   10  C   UNL     1      -9.833  12.621  68.341  1.00  0.00    -0.200 A  
HETATM   11  C   UNL     1     -10.221  13.955  68.599  1.00  0.00    -0.218 A  
HETATM   12  C   UNL     1      -7.860  14.681  68.350  1.00  0.00    -0.131 A  
HETATM   13  I   UNL     1     -11.251  10.970  68.485  1.00  0.00    -0.403 I  
BRANCH  12  14
HETATM   14  C   UNL     1      -6.814  15.753  68.315  1.00  0.00    -0.118 C  
HETATM   15  N   UNL     1      -6.467  16.270  67.082  1.00  0.00    -0.188 N  
HETATM   16  O   UNL     1      -6.290  16.132  69.357  1.00  0.00    -0.156 OA 
HETATM   17  H   UNL     1      -6.928  15.912  66.246  1.00  0.00     0.000 HD 
BRANCH  15  18
HETATM   18  C   UNL     1      -5.457  17.318  66.946  1.00  0.00    -0.174 C  
BRANCH  18  19
HETATM   19  C   UNL     1      -6.020  18.585  66.284  1.00  0.00    -0.163 C  
HETATM   20  H   UNL     1      -7.434  19.004  64.984  1.00  0.00     0.000 HD 
HETATM   21  O   UNL     1      -7.086  18.221  65.393  1.00  0.00    -0.537 OA 
BRANCH  19  22
HETATM   22  C   UNL     1      -6.514  19.599  67.330  1.00  0.00    -0.195 C  
HETATM   23  O   UNL     1      -6.370  19.100  68.659  1.00  0.00    -0.234 OA 
HETATM   24  H   UNL     1      -6.674  19.726  69.304  1.00  0.00     0.000 HD 
ENDBRANCH  19  22
ENDBRANCH  18  19
ENDBRANCH  15  18
ENDBRANCH  12  14
BRANCH  11  25
HETATM   25  C   UNL     1     -11.614  14.284  69.006  1.00  0.00    -0.305 C  
HETATM   26  O   UNL     1     -12.461  14.501  68.145  1.00  0.00    -0.052 OA 
HETATM   27  H   UNL     1     -11.153  14.121  71.029  1.00  0.00     0.000 HD 
HETATM   28  N   UNL     1     -11.890  14.347  70.362  1.00  0.00    -0.302 N  
BRANCH  28  29
HETATM   29  C   UNL     1     -13.199  14.727  70.859  1.00  0.00    -0.356 C  
BRANCH  29  30
HETATM   30  C   UNL     1     -13.066  15.646  72.064  1.00  0.00    -0.459 C  
HETATM   31  O   UNL     1     -11.918  16.482  71.899  1.00  0.00    -0.650 OA 
HETATM   32  H   UNL     1     -11.835  17.056  72.651  1.00  0.00     0.000 HD 
ENDBRANCH  29  30
ENDBRANCH  28  29
ENDBRANCH  11  25
ENDBRANCH   3   5
BRANCH   3  33
HETATM   33  C   UNL     1      -7.973  10.597  66.260  1.00  0.00    -0.149 C  
BRANCH  33  34
HETATM   34  C   UNL     1      -9.204  10.782  65.331  1.00  0.00    -0.205 C  
HETATM   35  O   UNL     1      -9.295  12.113  64.802  1.00  0.00    -0.436 OA 
HETATM   36  H   UNL     1     -10.047  12.226  64.233  1.00  0.00     0.000 HD 
BRANCH  34  37
HETATM   37  C   UNL     1      -9.194   9.805  64.141  1.00  0.00    -0.224 C  
HETATM   38  H   UNL     1      -9.743   9.808  62.238  1.00  0.00     0.000 HD 
HETATM   39  O   UNL     1      -9.749  10.411  62.972  1.00  0.00    -0.318 OA 
ENDBRANCH  34  37
ENDBRANCH  33  34
ENDBRANCH   3  33
TORSDOF 11
ENDMDL
MODEL       30
REMARK 921   NORMALIZED FREE ENERGY PREDICTED BY IDOCK:   -4.97 KCAL/MOL
REMARK 922        TOTAL FREE ENERGY PREDICTED BY IDOCK:   -8.78 KCAL/MOL
REMARK 923 INTER-LIGAND FREE ENERGY PREDICTED BY IDOCK:   -8.06 KCAL/MOL
REMARK 924 INTRA-LIGAND FREE ENERGY PREDICTED BY IDOCK:   -0.72 KCAL/MOL
REMARK 927      BINDING AFFINITY PREDICTED BY RF-SCORE:    0.00 PKD
ROOT
HETATM    1  C   UNL     1      -9.286   6.948  74.204  1.00  0.00    -0.267 C  
HETATM    2  C   UNL     1      -9.173   7.959  73.098  1.00  0.00    -0.267 C  
HETATM    3  N   UNL     1      -9.923   7.742  71.938  1.00  0.00    -0.169 N  
HETATM    4  O   UNL     1      -8.463   8.955  73.255  1.00  0.00    -0.284 OA 
ENDROOT
BRANCH   3   5
HETATM    5  C   UNL     1      -9.754   8.723  70.907  1.00  0.00    -0.222 A  
HETATM    6  I   UNL     1      -8.805  12.430  67.739  1.00  0.00    -0.204 I  
HETATM    7  C   UNL     1      -9.317  10.695  68.945  1.00  0.00    -0.184 A  
HETATM    8  C   UNL     1     -10.776   9.663  70.601  1.00  0.00    -0.322 A  
HETATM    9  I   UNL     1     -12.696   9.453  71.581  1.00  0.00    -0.525 I  
HETATM   10  C   UNL     1      -8.561   8.702  70.138  1.00  0.00    -0.138 A  
HETATM   11  C   UNL     1      -8.327   9.693  69.159  1.00  0.00    -0.130 A  
HETATM   12  C   UNL     1     -10.566  10.662  69.619  1.00  0.00    -0.260 A  
HETATM   13  I   UNL     1      -7.151   7.071  70.473  1.00  0.00    -0.065 I  
BRANCH  12  14
HETATM   14  C   UNL     1     -11.618  11.705  69.385  1.00  0.00    -0.327 C  
HETATM   15  N   UNL     1     -11.659  12.779  70.253  1.00  0.00    -0.535 N  
HETATM   16  O   UNL     1     -12.410  11.579  68.458  1.00  0.00    -0.459 OA 
HETATM   17  H   UNL     1     -10.981  12.829  71.014  1.00  0.00     0.000 HD 
BRANCH  15  18
HETATM   18  C   UNL     1     -12.647  13.845  70.107  1.00  0.00    -0.224 C  
BRANCH  18  19
HETATM   19  C   UNL     1     -11.997  15.205  69.813  1.00  0.00    -0.334 C  
HETATM   20  H   UNL     1     -10.449  16.217  70.479  1.00  0.00     0.000 HD 
HETATM   21  O   UNL     1     -10.851  15.376  70.661  1.00  0.00    -0.319 OA 
BRANCH  19  22
HETATM   22  C   UNL     1     -11.596  15.333  68.333  1.00  0.00    -0.349 C  
HETATM   23  O   UNL     1     -12.360  14.460  67.502  1.00  0.00    -0.621 OA 
HETATM   24  H   UNL     1     -12.113  14.539  66.589  1.00  0.00     0.000 HD 
ENDBRANCH  19  22
ENDBRANCH  18  19
ENDBRANCH  15  18
ENDBRANCH  12  14
BRANCH  11  25
HETATM   25  C   UNL     1      -7.116   9.649  68.295  1.00  0.00    -0.078 C  
HETATM   26  O   UNL     1      -6.060  10.117  68.709  1.00  0.00    -0.047 OA 
HETATM   27  H   UNL     1      -8.139   8.680  66.763  1.00  0.00     0.000 HD 
HETATM   28  N   UNL     1      -7.244   9.086  67.037  1.00  0.00    -0.085 N  
BRANCH  28  29
HETATM   29  C   UNL     1      -6.140   9.057  66.096  1.00  0.00    -0.059 C  
BRANCH  29  30
HETATM   30  C   UNL     1      -6.623   9.412  64.697  1.00  0.00    -0.084 C  
HETATM   31  O   UNL     1      -7.106  10.757  64.688  1.00  0.00    -0.353 OA 
HETATM   32  H   UNL     1      -7.407  10.978  63.814  1.00  0.00     0.000 HD 
ENDBRANCH  29  30
ENDBRANCH  28  29
ENDBRANCH  11  25
ENDBRANCH   3   5
BRANCH   3  33
HETATM   33  C   UNL     1     -10.699   6.508  71.627  1.00  0.00    -0.230 C  
BRANCH  33  34
HETATM   34  C   UNL     1      -9.976   5.406  70.804  1.00  0.00    -0.204 C  
HETATM   35  O   UNL     1     -10.054   4.117  71.431  1.00  0.00    -0.173 OA 
HETATM   36  H   UNL     1      -9.613   3.443  70.928  1.00  0.00     0.000 HD 
BRANCH  34  37
HETATM   37  C   UNL     1     -10.543   5.269  69.380  1.00  0.00    -0.145 C  
HETATM   38  H   UNL     1     -11.886   6.179  68.243  1.00  0.00     0.000 HD 
HETATM   39  O   UNL     1     -11.536   6.264  69.122  1.00  0.00    -0.394 OA 
ENDBRANCH  34  37
ENDBRANCH  33  34
ENDBRANCH   3  33
TORSDOF 11
ENDMDL
MODEL       31
REMARK 921   NORMALIZED FREE ENERGY PREDICTED BY IDOCK:   -4.94 KCAL/MOL
REMARK 922        TOTAL FREE ENERGY PREDICTED BY IDOCK:   -8.72 KCAL/MOL
REMARK 923 INTER-LIGAND FREE ENERGY PREDICTED BY IDOCK:   -8.14 KCAL/MOL
REMARK 924 INTRA-LIGAND FREE ENERGY PREDICTED BY IDOCK:   -0.59 KCAL/MOL
REMARK 927      BINDING AFFINITY PREDICTED BY RF-SCORE:    0.00 PKD
ROOT
HETATM    1  C   UNL     1      -8.264   8.546  72.394  1.00  0.00    -0.156 C  
HETATM    2  C   UNL     1      -8.386   9.050  70.983  1.00  0.00    -0.189 C  
HETATM    3  N   UNL     1      -9.284   8.397  70.134  1.00  0.00    -0.157 N  
HETATM    4  O   UNL     1      -7.729  10.032  70.629  1.00  0.00    -0.268 OA 
ENDROOT
BRANCH   3   5
HETATM    5  C   UNL     1      -9.339   8.903  68.793  1.00  0.00    -0.137 A  
HETATM    6  I   UNL     1      -8.976  10.926  64.272  1.00  0.00     0.073 I  
HETATM    7  C   UNL     1      -9.316   9.918  66.168  1.00  0.00    -0.181 A  
HETATM    8  C   UNL     1     -10.182   9.992  68.443  1.00  0.00    -0.172 A  
HETATM    9  I   UNL     1     -11.561  10.748  69.932  1.00  0.00    -0.465 I  
HETATM   10  C   UNL     1      -8.576   8.248  67.790  1.00  0.00    -0.131 A  
HETATM   11  C   UNL     1      -8.549   8.756  66.472  1.00  0.00    -0.126 A  
HETATM   12  C   UNL     1     -10.177  10.514  67.126  1.00  0.00    -0.270 A  
HETATM   13  I   UNL     1      -7.515   6.421  68.333  1.00  0.00    -0.090 I  
BRANCH  12  14
HETATM   14  C   UNL     1     -10.997  11.726  66.806  1.00  0.00    -0.288 C  
HETATM   15  N   UNL     1     -10.406  12.963  66.974  1.00  0.00    -0.241 N  
HETATM   16  O   UNL     1     -12.155  11.599  66.422  1.00  0.00    -0.371 OA 
HETATM   17  H   UNL     1      -9.442  13.012  67.304  1.00  0.00     0.000 HD 
BRANCH  15  18
HETATM   18  C   UNL     1     -11.125  14.202  66.689  1.00  0.00    -0.312 C  
BRANCH  18  19
HETATM   19  C   UNL     1     -11.337  14.419  65.183  1.00  0.00    -0.359 C  
HETATM   20  H   UNL     1     -12.872  14.499  63.957  1.00  0.00     0.000 HD 
HETATM   21  O   UNL     1     -12.741  14.365  64.888  1.00  0.00    -0.614 OA 
BRANCH  19  22
HETATM   22  C   UNL     1     -10.737  15.756  64.713  1.00  0.00    -0.256 C  
HETATM   23  O   UNL     1     -11.546  16.375  63.714  1.00  0.00    -1.605 OA 
HETATM   24  H   UNL     1     -11.176  17.200  63.425  1.00  0.00     0.000 HD 
ENDBRANCH  19  22
ENDBRANCH  18  19
ENDBRANCH  15  18
ENDBRANCH  12  14
BRANCH  11  25
HETATM   25  C   UNL     1      -7.813   8.047  65.391  1.00  0.00    -0.106 C  
HETATM   26  O   UNL     1      -6.647   8.349  65.154  1.00  0.00    -0.062 OA 
HETATM   27  H   UNL     1      -9.451   6.842  64.948  1.00  0.00     0.000 HD 
HETATM   28  N   UNL     1      -8.495   7.074  64.680  1.00  0.00     0.072 N  
BRANCH  28  29
HETATM   29  C   UNL     1      -7.886   6.375  63.564  1.00  0.00    -0.110 C  
BRANCH  29  30
HETATM   30  C   UNL     1      -7.276   5.060  64.028  1.00  0.00    -0.050 C  
HETATM   31  O   UNL     1      -6.019   5.316  64.658  1.00  0.00    -0.021 OA 
HETATM   32  H   UNL     1      -5.638   4.495  64.948  1.00  0.00     0.000 HD 
ENDBRANCH  29  30
ENDBRANCH  28  29
ENDBRANCH  11  25
ENDBRANCH   3   5
BRANCH   3  33
HETATM   33  C   UNL     1     -10.014   7.136  70.449  1.00  0.00    -0.187 C  
BRANCH  33  34
HETATM   34  C   UNL     1     -11.442   7.274  71.044  1.00  0.00    -0.287 C  
HETATM   35  O   UNL     1     -12.463   6.888  70.112  1.00  0.00    -0.602 OA 
HETATM   36  H   UNL     1     -13.336   6.972  70.476  1.00  0.00     0.000 HD 
BRANCH  34  37
HETATM   37  C   UNL     1     -11.631   6.434  72.320  1.00  0.00    -0.299 C  
HETATM   38  H   UNL     1     -11.340   6.642  74.268  1.00  0.00     0.000 HD 
HETATM   39  O   UNL     1     -11.224   7.161  73.481  1.00  0.00    -0.167 OA 
ENDBRANCH  34  37
ENDBRANCH  33  34
ENDBRANCH   3  33
TORSDOF 11
ENDMDL
MODEL       32
REMARK 921   NORMALIZED FREE ENERGY PREDICTED BY IDOCK:   -4.92 KCAL/MOL
REMARK 922        TOTAL FREE ENERGY PREDICTED BY IDOCK:   -8.70 KCAL/MOL
REMARK 923 INTER-LIGAND FREE ENERGY PREDICTED BY IDOCK:   -7.80 KCAL/MOL
REMARK 924 INTRA-LIGAND FREE ENERGY PREDICTED BY IDOCK:   -0.90 KCAL/MOL
REMARK 927      BINDING AFFINITY PREDICTED BY RF-SCORE:    0.00 PKD
ROOT
HETATM    1  C   UNL     1      -9.119  10.969  64.605  1.00  0.00    -0.138 C  
HETATM    2  C   UNL     1      -9.596  10.481  65.944  1.00  0.00    -0.204 C  
HETATM    3  N   UNL     1      -9.080  11.101  67.085  1.00  0.00    -0.146 N  
HETATM    4  O   UNL     1     -10.443   9.585  65.998  1.00  0.00    -0.146 OA 
ENDROOT
BRANCH   3   5
HETATM    5  C   UNL     1      -9.549  10.576  68.334  1.00  0.00    -0.160 A  
HETATM    6  I   UNL     1     -11.398   8.276  72.329  1.00  0.00    -0.406 I  
HETATM    7  C   UNL     1     -10.481   9.428  70.729  1.00  0.00    -0.304 A  
HETATM    8  C   UNL     1     -10.701  11.105  68.977  1.00  0.00    -0.225 A  
HETATM    9  I   UNL     1     -11.624  12.877  68.142  1.00  0.00    -0.378 I  
HETATM   10  C   UNL     1      -8.798   9.548  68.963  1.00  0.00    -0.143 A  
HETATM   11  C   UNL     1      -9.263   8.958  70.159  1.00  0.00    -0.195 A  
HETATM   12  C   UNL     1     -11.181  10.533  70.181  1.00  0.00    -0.389 A  
HETATM   13  I   UNL     1      -6.897   8.967  68.064  1.00  0.00    -0.070 I  
BRANCH  12  14
HETATM   14  C   UNL     1     -12.455  11.041  70.786  1.00  0.00    -0.396 C  
HETATM   15  N   UNL     1     -12.383  12.173  71.575  1.00  0.00    -0.088 N  
HETATM   16  O   UNL     1     -13.509  10.447  70.584  1.00  0.00    -0.197 OA 
HETATM   17  H   UNL     1     -11.478  12.622  71.717  1.00  0.00     0.000 HD 
BRANCH  15  18
HETATM   18  C   UNL     1     -13.570  12.743  72.208  1.00  0.00    -0.465 C  
BRANCH  18  19
HETATM   19  C   UNL     1     -13.398  14.236  72.528  1.00  0.00    -0.500 C  
HETATM   20  H   UNL     1     -12.473  15.303  73.896  1.00  0.00     0.000 HD 
HETATM   21  O   UNL     1     -12.579  14.379  73.698  1.00  0.00    -0.391 OA 
BRANCH  19  22
HETATM   22  C   UNL     1     -12.784  15.001  71.343  1.00  0.00    -0.341 C  
HETATM   23  O   UNL     1     -13.788  15.548  70.490  1.00  0.00    -0.827 OA 
HETATM   24  H   UNL     1     -13.410  16.020  69.758  1.00  0.00     0.000 HD 
ENDBRANCH  19  22
ENDBRANCH  18  19
ENDBRANCH  15  18
ENDBRANCH  12  14
BRANCH  11  25
HETATM   25  C   UNL     1      -8.457   7.929  70.871  1.00  0.00    -0.126 C  
HETATM   26  O   UNL     1      -8.577   6.747  70.563  1.00  0.00    -0.139 OA 
HETATM   27  H   UNL     1      -7.524   9.358  72.061  1.00  0.00     0.000 HD 
HETATM   28  N   UNL     1      -7.607   8.359  71.875  1.00  0.00    -0.110 N  
BRANCH  28  29
HETATM   29  C   UNL     1      -6.832   7.427  72.672  1.00  0.00    -0.067 C  
BRANCH  29  30
HETATM   30  C   UNL     1      -7.101   7.641  74.155  1.00  0.00    -0.112 C  
HETATM   31  O   UNL     1      -7.876   8.829  74.330  1.00  0.00    -0.402 OA 
HETATM   32  H   UNL     1      -8.045   8.963  75.255  1.00  0.00     0.000 HD 
ENDBRANCH  29  30
ENDBRANCH  28  29
ENDBRANCH  11  25
ENDBRANCH   3   5
BRANCH   3  33
HETATM   33  C   UNL     1      -7.968  12.095  67.103  1.00  0.00    -0.170 C  
BRANCH  33  34
HETATM   34  C   UNL     1      -7.776  12.918  68.406  1.00  0.00    -0.133 C  
HETATM   35  O   UNL     1      -6.493  12.696  69.010  1.00  0.00    -0.085 OA 
HETATM   36  H   UNL     1      -6.376  13.199  69.806  1.00  0.00     0.000 HD 
BRANCH  34  37
HETATM   37  C   UNL     1      -7.928  14.432  68.172  1.00  0.00    -0.136 C  
HETATM   38  H   UNL     1      -8.703  15.991  69.118  1.00  0.00     0.000 HD 
HETATM   39  O   UNL     1      -8.609  15.057  69.262  1.00  0.00    -0.206 OA 
ENDBRANCH  34  37
ENDBRANCH  33  34
ENDBRANCH   3  33
TORSDOF 11
ENDMDL
MODEL       33
REMARK 921   NORMALIZED FREE ENERGY PREDICTED BY IDOCK:   -4.91 KCAL/MOL
REMARK 922        TOTAL FREE ENERGY PREDICTED BY IDOCK:   -8.67 KCAL/MOL
REMARK 923 INTER-LIGAND FREE ENERGY PREDICTED BY IDOCK:   -9.24 KCAL/MOL
REMARK 924 INTRA-LIGAND FREE ENERGY PREDICTED BY IDOCK:    0.56 KCAL/MOL
REMARK 927      BINDING AFFINITY PREDICTED BY RF-SCORE:    0.00 PKD
ROOT
HETATM    1  C   UNL     1      -8.400  15.668  66.507  1.00  0.00    -0.276 C  
HETATM    2  C   UNL     1      -8.884  14.559  67.400  1.00  0.00    -0.198 C  
HETATM    3  N   UNL     1     -10.026  13.857  67.006  1.00  0.00    -0.253 N  
HETATM    4  O   UNL     1      -8.250  14.280  68.421  1.00  0.00    -0.133 OA 
ENDROOT
BRANCH   3   5
HETATM    5  C   UNL     1     -10.457  12.830  67.908  1.00  0.00    -0.220 A  
HETATM    6  I   UNL     1     -11.506   9.483  71.426  1.00  0.00    -0.344 I  
HETATM    7  C   UNL     1     -11.243  10.879  69.779  1.00  0.00    -0.281 A  
HETATM    8  C   UNL     1     -10.108  11.467  67.706  1.00  0.00    -0.182 A  
HETATM    9  I   UNL     1      -9.084  10.927  65.875  1.00  0.00    -0.231 I  
HETATM   10  C   UNL     1     -11.305  13.189  68.989  1.00  0.00    -0.282 A  
HETATM   11  C   UNL     1     -11.697  12.220  69.939  1.00  0.00    -0.346 A  
HETATM   12  C   UNL     1     -10.495  10.477  68.642  1.00  0.00    -0.211 A  
HETATM   13  I   UNL     1     -12.026  15.246  69.092  1.00  0.00    -0.136 I  
BRANCH  12  14
HETATM   14  C   UNL     1     -10.029   9.064  68.461  1.00  0.00    -0.176 C  
HETATM   15  N   UNL     1      -8.811   8.715  69.012  1.00  0.00    -0.137 N  
HETATM   16  O   UNL     1     -10.717   8.268  67.831  1.00  0.00    -0.178 OA 
HETATM   17  H   UNL     1      -8.275   9.420  69.519  1.00  0.00     0.000 HD 
BRANCH  15  18
HETATM   18  C   UNL     1      -8.272   7.363  68.888  1.00  0.00    -0.129 C  
BRANCH  18  19
HETATM   19  C   UNL     1      -8.581   6.498  70.120  1.00  0.00    -0.140 C  
HETATM   20  H   UNL     1      -8.209   4.656  70.697  1.00  0.00     0.000 HD 
HETATM   21  O   UNL     1      -8.018   5.190  69.935  1.00  0.00    -0.076 OA 
BRANCH  19  22
HETATM   22  C   UNL     1      -8.044   7.140  71.411  1.00  0.00    -0.106 C  
HETATM   23  O   UNL     1      -6.693   7.573  71.263  1.00  0.00    -0.048 OA 
HETATM   24  H   UNL     1      -6.362   7.969  72.060  1.00  0.00     0.000 HD 
ENDBRANCH  19  22
ENDBRANCH  18  19
ENDBRANCH  15  18
ENDBRANCH  12  14
BRANCH  11  25
HETATM   25  C   UNL     1     -12.640  12.559  71.038  1.00  0.00    -0.256 C  
HETATM   26  O   UNL     1     -13.535  11.772  71.332  1.00  0.00    -0.049 OA 
HETATM   27  H   UNL     1     -11.686  14.370  71.415  1.00  0.00     0.000 HD 
HETATM   28  N   UNL     1     -12.471  13.774  71.679  1.00  0.00    -0.271 N  
BRANCH  28  29
HETATM   29  C   UNL     1     -13.380  14.225  72.716  1.00  0.00    -0.525 C  
BRANCH  29  30
HETATM   30  C   UNL     1     -13.386  15.745  72.796  1.00  0.00    -0.547 C  
HETATM   31  O   UNL     1     -13.188  16.150  74.152  1.00  0.00    -0.936 OA 
HETATM   32  H   UNL     1     -13.192  17.099  74.202  1.00  0.00     0.000 HD 
ENDBRANCH  29  30
ENDBRANCH  28  29
ENDBRANCH  11  25
ENDBRANCH   3   5
BRANCH   3  33
HETATM   33  C   UNL     1     -10.912  14.215  65.861  1.00  0.00    -0.297 C  
BRANCH  33  34
HETATM   34  C   UNL     1     -12.105  13.265  65.565  1.00  0.00    -0.435 C  
HETATM   35  O   UNL     1     -13.364  13.953  65.566  1.00  0.00    -0.662 OA 
HETATM   36  H   UNL     1     -14.094  13.373  65.385  1.00  0.00     0.000 HD 
BRANCH  34  37
HETATM   37  C   UNL     1     -11.964  12.550  64.209  1.00  0.00    -0.408 C  
HETATM   38  H   UNL     1     -13.151  11.705  62.867  1.00  0.00     0.000 HD 
HETATM   39  O   UNL     1     -13.238  12.147  63.704  1.00  0.00    -0.770 OA 
ENDBRANCH  34  37
ENDBRANCH  33  34
ENDBRANCH   3  33
TORSDOF 11
ENDMDL
MODEL       34
REMARK 921   NORMALIZED FREE ENERGY PREDICTED BY IDOCK:   -4.89 KCAL/MOL
REMARK 922        TOTAL FREE ENERGY PREDICTED BY IDOCK:   -8.64 KCAL/MOL
REMARK 923 INTER-LIGAND FREE ENERGY PREDICTED BY IDOCK:   -8.26 KCAL/MOL
REMARK 924 INTRA-LIGAND FREE ENERGY PREDICTED BY IDOCK:   -0.39 KCAL/MOL
REMARK 927      BINDING AFFINITY PREDICTED BY RF-SCORE:    0.00 PKD
ROOT
HETATM    1  C   UNL     1      -6.838   7.644  66.296  1.00  0.00    -0.062 C  
HETATM    2  C   UNL     1      -7.988   7.981  67.203  1.00  0.00    -0.113 C  
HETATM    3  N   UNL     1      -7.691   8.515  68.460  1.00  0.00    -0.102 N  
HETATM    4  O   UNL     1      -9.144   7.815  66.806  1.00  0.00    -0.139 OA 
ENDROOT
BRANCH   3   5
HETATM    5  C   UNL     1      -8.825   8.791  69.293  1.00  0.00    -0.140 A  
HETATM    6  I   UNL     1     -13.052   9.305  71.850  1.00  0.00    -0.582 I  
HETATM    7  C   UNL     1     -11.102   9.218  70.892  1.00  0.00    -0.306 A  
HETATM    8  C   UNL     1      -9.626   9.949  69.097  1.00  0.00    -0.199 A  
HETATM    9  I   UNL     1      -8.978  11.418  67.643  1.00  0.00    -0.154 I  
HETATM   10  C   UNL     1      -9.102   7.914  70.374  1.00  0.00    -0.154 A  
HETATM   11  C   UNL     1     -10.249   8.113  71.176  1.00  0.00    -0.234 A  
HETATM   12  C   UNL     1     -10.777  10.173  69.893  1.00  0.00    -0.340 A  
HETATM   13  I   UNL     1      -7.682   6.311  70.788  1.00  0.00    -0.105 I  
BRANCH  12  14
HETATM   14  C   UNL     1     -11.663  11.345  69.601  1.00  0.00    -0.345 C  
HETATM   15  N   UNL     1     -11.548  12.454  70.416  1.00  0.00    -0.493 N  
HETATM   16  O   UNL     1     -12.465  11.292  68.674  1.00  0.00    -0.442 OA 
HETATM   17  H   UNL     1     -10.871  12.442  71.179  1.00  0.00     0.000 HD 
BRANCH  15  18
HETATM   18  C   UNL     1     -12.370  13.645  70.211  1.00  0.00    -0.322 C  
BRANCH  18  19
HETATM   19  C   UNL     1     -12.547  14.457  71.503  1.00  0.00    -0.350 C  
HETATM   20  H   UNL     1     -12.537  16.359  72.002  1.00  0.00     0.000 HD 
HETATM   21  O   UNL     1     -12.427  15.857  71.203  1.00  0.00    -0.445 OA 
BRANCH  19  22
HETATM   22  C   UNL     1     -13.900  14.164  72.175  1.00  0.00    -0.518 C  
HETATM   23  O   UNL     1     -13.929  12.863  72.758  1.00  0.00    -0.730 OA 
HETATM   24  H   UNL     1     -14.763  12.682  73.173  1.00  0.00     0.000 HD 
ENDBRANCH  19  22
ENDBRANCH  18  19
ENDBRANCH  15  18
ENDBRANCH  12  14
BRANCH  11  25
HETATM   25  C   UNL     1     -10.520   7.248  72.355  1.00  0.00    -0.229 C  
HETATM   26  O   UNL     1     -10.221   7.644  73.478  1.00  0.00    -0.334 OA 
HETATM   27  H   UNL     1     -11.352   5.750  71.174  1.00  0.00     0.000 HD 
HETATM   28  N   UNL     1     -11.093   6.008  72.126  1.00  0.00    -0.265 N  
BRANCH  28  29
HETATM   29  C   UNL     1     -11.334   5.066  73.202  1.00  0.00    -0.321 C  
BRANCH  29  30
HETATM   30  C   UNL     1     -10.106   4.196  73.433  1.00  0.00    -0.139 C  
HETATM   31  O   UNL     1      -9.141   4.927  74.191  1.00  0.00    -0.112 OA 
HETATM   32  H   UNL     1      -8.375   4.384  74.335  1.00  0.00     0.000 HD 
ENDBRANCH  29  30
ENDBRANCH  28  29
ENDBRANCH  11  25
ENDBRANCH   3   5
BRANCH   3  33
HETATM   33  C   UNL     1      -6.328   8.625  69.054  1.00  0.00    -0.044 C  
BRANCH  33  34
HETATM   34  C   UNL     1      -5.638  10.016  68.990  1.00  0.00    -0.034 C  
HETATM   35  O   UNL     1      -5.846  10.671  67.729  1.00  0.00    -0.044 OA 
HETATM   36  H   UNL     1      -5.424  11.521  67.690  1.00  0.00     0.000 HD 
BRANCH  34  37
HETATM   37  C   UNL     1      -6.127  10.967  70.097  1.00  0.00    -0.132 C  
HETATM   38  H   UNL     1      -6.740  10.835  71.977  1.00  0.00     0.000 HD 
HETATM   39  O   UNL     1      -6.437  10.248  71.293  1.00  0.00    -0.326 OA 
ENDBRANCH  34  37
ENDBRANCH  33  34
ENDBRANCH   3  33
TORSDOF 11
ENDMDL
MODEL       35
REMARK 921   NORMALIZED FREE ENERGY PREDICTED BY IDOCK:   -4.82 KCAL/MOL
REMARK 922        TOTAL FREE ENERGY PREDICTED BY IDOCK:   -8.52 KCAL/MOL
REMARK 923 INTER-LIGAND FREE ENERGY PREDICTED BY IDOCK:   -7.71 KCAL/MOL
REMARK 924 INTRA-LIGAND FREE ENERGY PREDICTED BY IDOCK:   -0.81 KCAL/MOL
REMARK 927      BINDING AFFINITY PREDICTED BY RF-SCORE:    0.00 PKD
ROOT
HETATM    1  C   UNL     1     -12.004   6.245  72.304  1.00  0.00    -0.296 C  
HETATM    2  C   UNL     1     -11.538   6.828  71.000  1.00  0.00    -0.339 C  
HETATM    3  N   UNL     1     -10.557   7.822  71.045  1.00  0.00    -0.212 N  
HETATM    4  O   UNL     1     -11.999   6.395  69.941  1.00  0.00    -0.304 OA 
ENDROOT
BRANCH   3   5
HETATM    5  C   UNL     1     -10.171   8.361  69.774  1.00  0.00    -0.207 A  
HETATM    6  I   UNL     1      -9.372   9.990  65.150  1.00  0.00    -0.358 I  
HETATM    7  C   UNL     1      -9.539   9.409  67.238  1.00  0.00    -0.151 A  
HETATM    8  C   UNL     1      -9.177   7.737  68.972  1.00  0.00    -0.143 A  
HETATM    9  I   UNL     1      -8.086   6.061  69.804  1.00  0.00    -0.117 I  
HETATM   10  C   UNL     1     -10.757   9.582  69.348  1.00  0.00    -0.225 A  
HETATM   11  C   UNL     1     -10.455  10.110  68.073  1.00  0.00    -0.249 A  
HETATM   12  C   UNL     1      -8.852   8.252  67.693  1.00  0.00    -0.137 A  
HETATM   13  I   UNL     1     -12.072  10.631  70.737  1.00  0.00    -0.474 I  
BRANCH  12  14
HETATM   14  C   UNL     1      -7.876   7.520  66.824  1.00  0.00    -0.110 C  
HETATM   15  N   UNL     1      -8.358   6.481  66.052  1.00  0.00    -0.127 N  
HETATM   16  O   UNL     1      -6.692   7.841  66.827  1.00  0.00    -0.063 OA 
HETATM   17  H   UNL     1      -9.351   6.249  66.095  1.00  0.00     0.000 HD 
BRANCH  15  18
HETATM   18  C   UNL     1      -7.483   5.707  65.174  1.00  0.00    -0.078 C  
BRANCH  18  19
HETATM   19  C   UNL     1      -8.267   4.721  64.295  1.00  0.00    -0.117 C  
HETATM   20  H   UNL     1      -7.860   3.096  63.265  1.00  0.00     0.000 HD 
HETATM   21  O   UNL     1      -7.375   3.706  63.809  1.00  0.00    -0.053 OA 
BRANCH  19  22
HETATM   22  C   UNL     1      -9.440   4.086  65.063  1.00  0.00    -0.172 C  
HETATM   23  O   UNL     1     -10.682   4.705  64.737  1.00  0.00    -0.484 OA 
HETATM   24  H   UNL     1     -11.406   4.313  65.211  1.00  0.00     0.000 HD 
ENDBRANCH  19  22
ENDBRANCH  18  19
ENDBRANCH  15  18
ENDBRANCH  12  14
BRANCH  11  25
HETATM   25  C   UNL     1     -11.004  11.422  67.635  1.00  0.00    -0.250 C  
HETATM   26  O   UNL     1     -12.129  11.476  67.148  1.00  0.00    -0.494 OA 
HETATM   27  H   UNL     1      -9.287  12.437  68.231  1.00  0.00     0.000 HD 
HETATM   28  N   UNL     1     -10.199  12.539  67.786  1.00  0.00    -0.212 N  
BRANCH  28  29
HETATM   29  C   UNL     1     -10.617  13.850  67.328  1.00  0.00    -0.276 C  
BRANCH  29  30
HETATM   30  C   UNL     1     -10.974  14.739  68.511  1.00  0.00    -0.258 C  
HETATM   31  O   UNL     1     -12.379  14.999  68.504  1.00  0.00    -0.586 OA 
HETATM   32  H   UNL     1     -12.602  15.554  69.242  1.00  0.00     0.000 HD 
ENDBRANCH  29  30
ENDBRANCH  28  29
ENDBRANCH  11  25
ENDBRANCH   3   5
BRANCH   3  33
HETATM   33  C   UNL     1     -10.047   8.482  72.281  1.00  0.00    -0.316 C  
BRANCH  33  34
HETATM   34  C   UNL     1      -8.756   7.895  72.915  1.00  0.00    -0.186 C  
HETATM   35  O   UNL     1      -7.760   8.900  73.156  1.00  0.00    -0.374 OA 
HETATM   36  H   UNL     1      -6.971   8.541  73.544  1.00  0.00     0.000 HD 
BRANCH  34  37
HETATM   37  C   UNL     1      -9.030   7.177  74.249  1.00  0.00    -0.214 C  
HETATM   38  H   UNL     1      -9.221   5.316  74.900  1.00  0.00     0.000 HD 
HETATM   39  O   UNL     1      -9.051   5.759  74.076  1.00  0.00    -0.125 OA 
ENDBRANCH  34  37
ENDBRANCH  33  34
ENDBRANCH   3  33
TORSDOF 11
ENDMDL
MODEL       36
REMARK 921   NORMALIZED FREE ENERGY PREDICTED BY IDOCK:   -4.80 KCAL/MOL
REMARK 922        TOTAL FREE ENERGY PREDICTED BY IDOCK:   -8.50 KCAL/MOL
REMARK 923 INTER-LIGAND FREE ENERGY PREDICTED BY IDOCK:   -9.24 KCAL/MOL
REMARK 924 INTRA-LIGAND FREE ENERGY PREDICTED BY IDOCK:    0.74 KCAL/MOL
REMARK 927      BINDING AFFINITY PREDICTED BY RF-SCORE:    0.00 PKD
ROOT
HETATM    1  C   UNL     1     -10.903  14.079  64.605  1.00  0.00    -0.416 C  
HETATM    2  C   UNL     1     -11.256  13.134  65.719  1.00  0.00    -0.286 C  
HETATM    3  N   UNL     1     -10.328  12.970  66.752  1.00  0.00    -0.252 N  
HETATM    4  O   UNL     1     -12.351  12.566  65.711  1.00  0.00    -0.627 OA 
ENDROOT
BRANCH   3   5
HETATM    5  C   UNL     1     -10.705  12.037  67.772  1.00  0.00    -0.210 A  
HETATM    6  I   UNL     1     -11.536   9.040  71.645  1.00  0.00    -0.442 I  
HETATM    7  C   UNL     1     -11.376  10.276  69.864  1.00  0.00    -0.290 A  
HETATM    8  C   UNL     1     -10.386  10.656  67.671  1.00  0.00    -0.209 A  
HETATM    9  I   UNL     1      -9.502   9.935  65.830  1.00  0.00    -0.339 I  
HETATM   10  C   UNL     1     -11.470  12.507  68.873  1.00  0.00    -0.307 A  
HETATM   11  C   UNL     1     -11.803  11.634  69.933  1.00  0.00    -0.434 A  
HETATM   12  C   UNL     1     -10.716   9.760  68.718  1.00  0.00    -0.243 A  
HETATM   13  I   UNL     1     -12.158  14.577  68.838  1.00  0.00    -0.022 I  
BRANCH  12  14
HETATM   14  C   UNL     1     -10.279   8.329  68.635  1.00  0.00    -0.204 C  
HETATM   15  N   UNL     1     -11.158   7.423  68.074  1.00  0.00    -0.478 N  
HETATM   16  O   UNL     1      -9.181   7.997  69.069  1.00  0.00    -0.148 OA 
HETATM   17  H   UNL     1     -12.063   7.752  67.737  1.00  0.00     0.000 HD 
BRANCH  15  18
HETATM   18  C   UNL     1     -10.823   6.006  67.950  1.00  0.00    -0.290 C  
BRANCH  18  19
HETATM   19  C   UNL     1     -10.026   5.707  66.671  1.00  0.00    -0.181 C  
HETATM   20  H   UNL     1      -8.205   5.105  66.236  1.00  0.00     0.000 HD 
HETATM   21  O   UNL     1      -8.698   5.290  67.027  1.00  0.00    -0.109 OA 
BRANCH  19  22
HETATM   22  C   UNL     1     -10.716   4.633  65.812  1.00  0.00    -0.149 C  
HETATM   23  O   UNL     1      -9.960   3.425  65.768  1.00  0.00    -0.402 OA 
HETATM   24  H   UNL     1     -10.386   2.763  65.237  1.00  0.00     0.000 HD 
ENDBRANCH  19  22
ENDBRANCH  18  19
ENDBRANCH  15  18
ENDBRANCH  12  14
BRANCH  11  25
HETATM   25  C   UNL     1     -12.661  12.087  71.060  1.00  0.00    -0.241 C  
HETATM   26  O   UNL     1     -13.514  11.330  71.514  1.00  0.00    -0.183 OA 
HETATM   27  H   UNL     1     -11.718  13.940  71.147  1.00  0.00     0.000 HD 
HETATM   28  N   UNL     1     -12.467  13.371  71.541  1.00  0.00    -0.228 N  
BRANCH  28  29
HETATM   29  C   UNL     1     -13.298  13.928  72.591  1.00  0.00    -0.538 C  
BRANCH  29  30
HETATM   30  C   UNL     1     -13.479  15.426  72.389  1.00  0.00    -0.490 C  
HETATM   31  O   UNL     1     -12.206  16.072  72.467  1.00  0.00    -0.437 OA 
HETATM   32  H   UNL     1     -12.319  17.007  72.341  1.00  0.00     0.000 HD 
ENDBRANCH  29  30
ENDBRANCH  28  29
ENDBRANCH  11  25
ENDBRANCH   3   5
BRANCH   3  33
HETATM   33  C   UNL     1      -8.942  13.520  66.767  1.00  0.00    -0.176 C  
BRANCH  33  34
HETATM   34  C   UNL     1      -8.453  14.168  68.092  1.00  0.00    -0.173 C  
HETATM   35  O   UNL     1      -7.717  13.247  68.911  1.00  0.00    -0.288 OA 
HETATM   36  H   UNL     1      -7.418  13.642  69.721  1.00  0.00     0.000 HD 
BRANCH  34  37
HETATM   37  C   UNL     1      -7.557  15.396  67.849  1.00  0.00    -0.136 C  
HETATM   38  H   UNL     1      -5.748  15.774  67.136  1.00  0.00     0.000 HD 
HETATM   39  O   UNL     1      -6.301  15.015  67.285  1.00  0.00    -0.312 OA 
ENDBRANCH  34  37
ENDBRANCH  33  34
ENDBRANCH   3  33
TORSDOF 11
ENDMDL
MODEL       37
REMARK 921   NORMALIZED FREE ENERGY PREDICTED BY IDOCK:   -4.80 KCAL/MOL
REMARK 922        TOTAL FREE ENERGY PREDICTED BY IDOCK:   -8.49 KCAL/MOL
REMARK 923 INTER-LIGAND FREE ENERGY PREDICTED BY IDOCK:   -7.24 KCAL/MOL
REMARK 924 INTRA-LIGAND FREE ENERGY PREDICTED BY IDOCK:   -1.25 KCAL/MOL
REMARK 927      BINDING AFFINITY PREDICTED BY RF-SCORE:    0.00 PKD
ROOT
HETATM    1  C   UNL     1      -5.555   8.928  65.342  1.00  0.00    -0.046 C  
HETATM    2  C   UNL     1      -6.473   9.128  66.515  1.00  0.00    -0.067 C  
HETATM    3  N   UNL     1      -7.759   8.586  66.435  1.00  0.00    -0.097 N  
HETATM    4  O   UNL     1      -6.063   9.723  67.514  1.00  0.00    -0.057 OA 
ENDROOT
BRANCH   3   5
HETATM    5  C   UNL     1      -8.600   8.831  67.570  1.00  0.00    -0.127 A  
HETATM    6  I   UNL     1     -11.901   9.251  71.258  1.00  0.00    -0.476 I  
HETATM    7  C   UNL     1     -10.313   9.199  69.774  1.00  0.00    -0.215 A  
HETATM    8  C   UNL     1      -9.410   9.996  67.657  1.00  0.00    -0.144 A  
HETATM    9  I   UNL     1      -9.192  11.519  66.133  1.00  0.00    -0.172 I  
HETATM   10  C   UNL     1      -8.564   7.914  68.653  1.00  0.00    -0.128 A  
HETATM   11  C   UNL     1      -9.427   8.083  69.758  1.00  0.00    -0.159 A  
HETATM   12  C   UNL     1     -10.279  10.191  68.759  1.00  0.00    -0.200 A  
HETATM   13  I   UNL     1      -7.105   6.293  68.579  1.00  0.00    -0.088 I  
BRANCH  12  14
HETATM   14  C   UNL     1     -11.197  11.374  68.780  1.00  0.00    -0.247 C  
HETATM   15  N   UNL     1     -10.812  12.472  69.525  1.00  0.00    -0.442 N  
HETATM   16  O   UNL     1     -12.254  11.340  68.159  1.00  0.00    -0.622 OA 
HETATM   17  H   UNL     1      -9.926  12.443  70.031  1.00  0.00     0.000 HD 
BRANCH  15  18
HETATM   18  C   UNL     1     -11.641  13.672  69.608  1.00  0.00    -0.278 C  
BRANCH  18  19
HETATM   19  C   UNL     1     -10.989  14.877  68.914  1.00  0.00    -0.251 C  
HETATM   20  H   UNL     1      -9.173  15.611  68.742  1.00  0.00     0.000 HD 
HETATM   21  O   UNL     1      -9.577  14.866  69.171  1.00  0.00    -0.210 OA 
BRANCH  19  22
HETATM   22  C   UNL     1     -11.262  14.874  67.400  1.00  0.00    -0.338 C  
HETATM   23  O   UNL     1     -12.428  14.121  67.074  1.00  0.00    -0.571 OA 
HETATM   24  H   UNL     1     -12.596  14.120  66.140  1.00  0.00     0.000 HD 
ENDBRANCH  19  22
ENDBRANCH  18  19
ENDBRANCH  15  18
ENDBRANCH  12  14
BRANCH  11  25
HETATM   25  C   UNL     1      -9.356   7.173  70.934  1.00  0.00    -0.160 C  
HETATM   26  O   UNL     1      -8.618   7.454  71.873  1.00  0.00    -0.110 OA 
HETATM   27  H   UNL     1     -10.749   5.863  70.112  1.00  0.00     0.000 HD 
HETATM   28  N   UNL     1     -10.128   6.024  70.905  1.00  0.00    -0.190 N  
BRANCH  28  29
HETATM   29  C   UNL     1     -10.077   5.042  71.971  1.00  0.00    -0.196 C  
BRANCH  29  30
HETATM   30  C   UNL     1     -11.196   5.285  72.974  1.00  0.00    -0.324 C  
HETATM   31  O   UNL     1     -11.069   6.601  73.517  1.00  0.00    -0.489 OA 
HETATM   32  H   UNL     1     -11.767   6.753  74.143  1.00  0.00     0.000 HD 
ENDBRANCH  29  30
ENDBRANCH  28  29
ENDBRANCH  11  25
ENDBRANCH   3   5
BRANCH   3  33
HETATM   33  C   UNL     1      -8.365   7.968  65.221  1.00  0.00    -0.143 C  
BRANCH  33  34
HETATM   34  C   UNL     1      -8.250   6.426  65.079  1.00  0.00    -0.125 C  
HETATM   35  O   UNL     1      -9.503   5.761  65.296  1.00  0.00    -0.362 OA 
HETATM   36  H   UNL     1      -9.432   4.818  65.209  1.00  0.00     0.000 HD 
BRANCH  34  37
HETATM   37  C   UNL     1      -7.729   6.001  63.694  1.00  0.00    -0.100 C  
HETATM   38  H   UNL     1      -8.413   5.039  62.103  1.00  0.00     0.000 HD 
HETATM   39  O   UNL     1      -8.735   5.301  62.957  1.00  0.00    -0.109 OA 
ENDBRANCH  34  37
ENDBRANCH  33  34
ENDBRANCH   3  33
TORSDOF 11
ENDMDL
MODEL       38
REMARK 921   NORMALIZED FREE ENERGY PREDICTED BY IDOCK:   -4.76 KCAL/MOL
REMARK 922        TOTAL FREE ENERGY PREDICTED BY IDOCK:   -8.43 KCAL/MOL
REMARK 923 INTER-LIGAND FREE ENERGY PREDICTED BY IDOCK:   -7.44 KCAL/MOL
REMARK 924 INTRA-LIGAND FREE ENERGY PREDICTED BY IDOCK:   -0.99 KCAL/MOL
REMARK 927      BINDING AFFINITY PREDICTED BY RF-SCORE:    0.00 PKD
ROOT
HETATM    1  C   UNL     1      -5.953   9.116  66.151  1.00  0.00    -0.059 C  
HETATM    2  C   UNL     1      -7.265   9.288  66.863  1.00  0.00    -0.086 C  
HETATM    3  N   UNL     1      -7.261   9.974  68.081  1.00  0.00    -0.081 N  
HETATM    4  O   UNL     1      -8.299   8.859  66.345  1.00  0.00    -0.112 OA 
ENDROOT
BRANCH   3   5
HETATM    5  C   UNL     1      -8.535  10.084  68.728  1.00  0.00    -0.126 A  
HETATM    6  I   UNL     1     -12.668  10.857  71.372  1.00  0.00    -0.374 I  
HETATM    7  C   UNL     1     -10.995  10.411  70.057  1.00  0.00    -0.308 A  
HETATM    8  C   UNL     1      -9.037   9.050  69.563  1.00  0.00    -0.151 A  
HETATM    9  I   UNL     1      -7.933   7.189  69.674  1.00  0.00    -0.128 I  
HETATM   10  C   UNL     1      -9.331  11.231  68.468  1.00  0.00    -0.182 A  
HETATM   11  C   UNL     1     -10.562  11.410  69.138  1.00  0.00    -0.196 A  
HETATM   12  C   UNL     1     -10.272   9.204  70.240  1.00  0.00    -0.253 A  
HETATM   13  I   UNL     1      -8.628  12.653  66.971  1.00  0.00    -0.040 I  
BRANCH  12  14
HETATM   14  C   UNL     1     -10.731   8.144  71.194  1.00  0.00    -0.221 C  
HETATM   15  N   UNL     1     -10.281   8.216  72.498  1.00  0.00    -0.290 N  
HETATM   16  O   UNL     1     -11.471   7.247  70.804  1.00  0.00    -0.282 OA 
HETATM   17  H   UNL     1      -9.659   8.978  72.767  1.00  0.00     0.000 HD 
BRANCH  15  18
HETATM   18  C   UNL     1     -10.673   7.228  73.501  1.00  0.00    -0.321 C  
BRANCH  18  19
HETATM   19  C   UNL     1      -9.999   5.867  73.270  1.00  0.00    -0.181 C  
HETATM   20  H   UNL     1      -8.625   4.786  74.171  1.00  0.00     0.000 HD 
HETATM   21  O   UNL     1      -9.042   5.628  74.314  1.00  0.00    -0.121 OA 
BRANCH  19  22
HETATM   22  C   UNL     1     -11.030   4.726  73.213  1.00  0.00    -0.316 C  
HETATM   23  O   UNL     1     -12.356   5.222  73.036  1.00  0.00    -0.485 OA 
HETATM   24  H   UNL     1     -12.993   4.518  73.001  1.00  0.00     0.000 HD 
ENDBRANCH  19  22
ENDBRANCH  18  19
ENDBRANCH  15  18
ENDBRANCH  12  14
BRANCH  11  25
HETATM   25  C   UNL     1     -11.443  12.568  68.829  1.00  0.00    -0.310 C  
HETATM   26  O   UNL     1     -12.269  12.476  67.925  1.00  0.00    -0.352 OA 
HETATM   27  H   UNL     1     -10.599  13.724  70.339  1.00  0.00     0.000 HD 
HETATM   28  N   UNL     1     -11.277  13.721  69.577  1.00  0.00    -0.208 N  
BRANCH  28  29
HETATM   29  C   UNL     1     -12.041  14.924  69.307  1.00  0.00    -0.251 C  
BRANCH  29  30
HETATM   30  C   UNL     1     -12.716  15.423  70.577  1.00  0.00    -0.405 C  
HETATM   31  O   UNL     1     -11.881  16.397  71.208  1.00  0.00    -0.632 OA 
HETATM   32  H   UNL     1     -12.302  16.708  72.000  1.00  0.00     0.000 HD 
ENDBRANCH  29  30
ENDBRANCH  28  29
ENDBRANCH  11  25
ENDBRANCH   3   5
BRANCH   3  33
HETATM   33  C   UNL     1      -6.044  10.407  68.827  1.00  0.00    -0.040 C  
BRANCH  33  34
HETATM   34  C   UNL     1      -6.266  11.121  70.189  1.00  0.00    -0.147 C  
HETATM   35  O   UNL     1      -6.134  10.226  71.302  1.00  0.00    -0.306 OA 
HETATM   36  H   UNL     1      -6.270  10.662  72.135  1.00  0.00     0.000 HD 
BRANCH  34  37
HETATM   37  C   UNL     1      -5.286  12.288  70.407  1.00  0.00    -0.116 C  
HETATM   38  H   UNL     1      -4.727  13.474  71.892  1.00  0.00     0.000 HD 
HETATM   39  O   UNL     1      -5.332  12.753  71.758  1.00  0.00    -0.364 OA 
ENDBRANCH  34  37
ENDBRANCH  33  34
ENDBRANCH   3  33
TORSDOF 11
ENDMDL
MODEL       39
REMARK 921   NORMALIZED FREE ENERGY PREDICTED BY IDOCK:   -4.76 KCAL/MOL
REMARK 922        TOTAL FREE ENERGY PREDICTED BY IDOCK:   -8.43 KCAL/MOL
REMARK 923 INTER-LIGAND FREE ENERGY PREDICTED BY IDOCK:   -7.60 KCAL/MOL
REMARK 924 INTRA-LIGAND FREE ENERGY PREDICTED BY IDOCK:   -0.82 KCAL/MOL
REMARK 927      BINDING AFFINITY PREDICTED BY RF-SCORE:    0.00 PKD
ROOT
HETATM    1  C   UNL     1      -6.841   8.088  66.059  1.00  0.00    -0.057 C  
HETATM    2  C   UNL     1      -7.995   8.408  66.968  1.00  0.00    -0.100 C  
HETATM    3  N   UNL     1      -7.703   8.921  68.235  1.00  0.00    -0.095 N  
HETATM    4  O   UNL     1      -9.149   8.245  66.565  1.00  0.00    -0.156 OA 
ENDROOT
BRANCH   3   5
HETATM    5  C   UNL     1      -8.839   9.181  69.068  1.00  0.00    -0.139 A  
HETATM    6  I   UNL     1     -13.073   9.636  71.627  1.00  0.00    -0.540 I  
HETATM    7  C   UNL     1     -11.122   9.575  70.669  1.00  0.00    -0.300 A  
HETATM    8  C   UNL     1      -9.654  10.330  68.877  1.00  0.00    -0.190 A  
HETATM    9  I   UNL     1      -9.022  11.813  67.430  1.00  0.00    -0.197 I  
HETATM   10  C   UNL     1      -9.107   8.297  70.146  1.00  0.00    -0.147 A  
HETATM   11  C   UNL     1     -10.256   8.479  70.948  1.00  0.00    -0.246 A  
HETATM   12  C   UNL     1     -10.807  10.538  69.674  1.00  0.00    -0.320 A  
HETATM   13  I   UNL     1      -7.669   6.707  70.553  1.00  0.00    -0.108 I  
BRANCH  12  14
HETATM   14  C   UNL     1     -11.707  11.701  69.387  1.00  0.00    -0.340 C  
HETATM   15  N   UNL     1     -11.578  12.823  70.182  1.00  0.00    -0.536 N  
HETATM   16  O   UNL     1     -12.530  11.630  68.481  1.00  0.00    -0.271 OA 
HETATM   17  H   UNL     1     -10.883  12.825  70.929  1.00  0.00     0.000 HD 
BRANCH  15  18
HETATM   18  C   UNL     1     -12.411  14.006  69.981  1.00  0.00    -0.337 C  
BRANCH  18  19
HETATM   19  C   UNL     1     -11.602  15.206  69.464  1.00  0.00    -0.319 C  
HETATM   20  H   UNL     1      -9.866  16.035  69.872  1.00  0.00     0.000 HD 
HETATM   21  O   UNL     1     -10.367  15.293  70.192  1.00  0.00    -0.266 OA 
BRANCH  19  22
HETATM   22  C   UNL     1     -11.331  15.097  67.953  1.00  0.00    -0.338 C  
HETATM   23  O   UNL     1     -12.304  14.285  67.299  1.00  0.00    -0.598 OA 
HETATM   24  H   UNL     1     -12.137  14.218  66.367  1.00  0.00     0.000 HD 
ENDBRANCH  19  22
ENDBRANCH  18  19
ENDBRANCH  15  18
ENDBRANCH  12  14
BRANCH  11  25
HETATM   25  C   UNL     1     -10.518   7.606  72.124  1.00  0.00    -0.221 C  
HETATM   26  O   UNL     1     -10.126   7.952  73.234  1.00  0.00    -0.313 OA 
HETATM   27  H   UNL     1     -11.522   6.199  70.964  1.00  0.00     0.000 HD 
HETATM   28  N   UNL     1     -11.189   6.415  71.904  1.00  0.00    -0.266 N  
BRANCH  28  29
HETATM   29  C   UNL     1     -11.432   5.465  72.974  1.00  0.00    -0.259 C  
BRANCH  29  30
HETATM   30  C   UNL     1     -10.406   4.342  72.931  1.00  0.00    -0.175 C  
HETATM   31  O   UNL     1     -10.130   4.002  71.570  1.00  0.00    -0.173 OA 
HETATM   32  H   UNL     1      -9.490   3.300  71.544  1.00  0.00     0.000 HD 
ENDBRANCH  29  30
ENDBRANCH  28  29
ENDBRANCH  11  25
ENDBRANCH   3   5
BRANCH   3  33
HETATM   33  C   UNL     1      -6.342   9.026  68.835  1.00  0.00    -0.044 C  
BRANCH  33  34
HETATM   34  C   UNL     1      -5.642  10.411  68.766  1.00  0.00    -0.041 C  
HETATM   35  O   UNL     1      -5.827  11.055  67.497  1.00  0.00    -0.043 OA 
HETATM   36  H   UNL     1      -5.400  11.902  67.454  1.00  0.00     0.000 HD 
BRANCH  34  37
HETATM   37  C   UNL     1      -6.141  11.376  69.857  1.00  0.00    -0.134 C  
HETATM   38  H   UNL     1      -6.724  11.275  71.748  1.00  0.00     0.000 HD 
HETATM   39  O   UNL     1      -6.416  10.680  71.075  1.00  0.00    -0.334 OA 
ENDBRANCH  34  37
ENDBRANCH  33  34
ENDBRANCH   3  33
TORSDOF 11
ENDMDL
MODEL       40
REMARK 921   NORMALIZED FREE ENERGY PREDICTED BY IDOCK:   -4.75 KCAL/MOL
REMARK 922        TOTAL FREE ENERGY PREDICTED BY IDOCK:   -8.41 KCAL/MOL
REMARK 923 INTER-LIGAND FREE ENERGY PREDICTED BY IDOCK:   -7.36 KCAL/MOL
REMARK 924 INTRA-LIGAND FREE ENERGY PREDICTED BY IDOCK:   -1.04 KCAL/MOL
REMARK 927      BINDING AFFINITY PREDICTED BY RF-SCORE:    0.00 PKD
ROOT
HETATM    1  C   UNL     1     -12.783  12.025  64.125  1.00  0.00    -0.361 C  
HETATM    2  C   UNL     1     -11.873  12.349  65.277  1.00  0.00    -0.399 C  
HETATM    3  N   UNL     1     -10.532  12.621  64.990  1.00  0.00    -0.300 N  
HETATM    4  O   UNL     1     -12.333  12.401  66.420  1.00  0.00    -0.539 OA 
ENDROOT
BRANCH   3   5
HETATM    5  C   UNL     1      -9.705  12.897  66.129  1.00  0.00    -0.248 A  
HETATM    6  I   UNL     1      -6.390  13.999  69.660  1.00  0.00    -0.065 I  
HETATM    7  C   UNL     1      -8.001  13.507  68.285  1.00  0.00    -0.147 A  
HETATM    8  C   UNL     1      -9.125  11.851  66.896  1.00  0.00    -0.196 A  
HETATM    9  I   UNL     1      -9.688   9.808  66.447  1.00  0.00    -0.325 I  
HETATM   10  C   UNL     1      -9.524  14.248  66.525  1.00  0.00    -0.287 A  
HETATM   11  C   UNL     1      -8.662  14.566  67.598  1.00  0.00    -0.186 A  
HETATM   12  C   UNL     1      -8.262  12.145  67.981  1.00  0.00    -0.158 A  
HETATM   13  I   UNL     1     -10.656  15.788  65.474  1.00  0.00    -0.343 I  
BRANCH  12  14
HETATM   14  C   UNL     1      -7.581  11.027  68.711  1.00  0.00    -0.127 C  
HETATM   15  N   UNL     1      -8.121  10.627  69.918  1.00  0.00    -0.330 N  
HETATM   16  O   UNL     1      -6.574  10.511  68.239  1.00  0.00    -0.059 OA 
HETATM   17  H   UNL     1      -8.956  11.097  70.269  1.00  0.00     0.000 HD 
BRANCH  15  18
HETATM   18  C   UNL     1      -7.528   9.548  70.704  1.00  0.00    -0.118 C  
BRANCH  18  19
HETATM   19  C   UNL     1      -8.386   8.274  70.682  1.00  0.00    -0.121 C  
HETATM   20  H   UNL     1     -10.185   7.778  70.062  1.00  0.00     0.000 HD 
HETATM   21  O   UNL     1      -9.654   8.566  70.076  1.00  0.00    -0.166 OA 
BRANCH  19  22
HETATM   22  C   UNL     1      -7.681   7.129  69.933  1.00  0.00    -0.108 C  
HETATM   23  O   UNL     1      -6.941   7.608  68.812  1.00  0.00    -0.066 OA 
HETATM   24  H   UNL     1      -6.507   6.902  68.350  1.00  0.00     0.000 HD 
ENDBRANCH  19  22
ENDBRANCH  18  19
ENDBRANCH  15  18
ENDBRANCH  12  14
BRANCH  11  25
HETATM   25  C   UNL     1      -8.512  15.967  68.074  1.00  0.00    -0.164 C  
HETATM   26  O   UNL     1      -9.237  16.382  68.973  1.00  0.00    -0.249 OA 
HETATM   27  H   UNL     1      -6.960  16.345  66.740  1.00  0.00     0.000 HD 
HETATM   28  N   UNL     1      -7.556  16.757  67.457  1.00  0.00    -0.153 N  
BRANCH  28  29
HETATM   29  C   UNL     1      -7.381  18.155  67.802  1.00  0.00    -0.215 C  
BRANCH  29  30
HETATM   30  C   UNL     1      -7.207  18.996  66.546  1.00  0.00    -0.228 C  
HETATM   31  O   UNL     1      -7.145  18.138  65.404  1.00  0.00    -0.523 OA 
HETATM   32  H   UNL     1      -7.037  18.664  64.620  1.00  0.00     0.000 HD 
ENDBRANCH  29  30
ENDBRANCH  28  29
ENDBRANCH  11  25
ENDBRANCH   3   5
BRANCH   3  33
HETATM   33  C   UNL     1      -9.879  12.455  63.660  1.00  0.00    -0.045 C  
BRANCH  33  34
HETATM   34  C   UNL     1      -9.465  11.015  63.250  1.00  0.00    -0.328 C  
HETATM   35  O   UNL     1     -10.393  10.420  62.331  1.00  0.00    -0.669 OA 
HETATM   36  H   UNL     1     -10.140   9.540  62.080  1.00  0.00     0.000 HD 
BRANCH  34  37
HETATM   37  C   UNL     1      -8.069  10.966  62.603  1.00  0.00    -0.082 C  
HETATM   38  H   UNL     1      -6.229  10.450  63.125  1.00  0.00     0.000 HD 
HETATM   39  O   UNL     1      -7.091  10.480  63.524  1.00  0.00    -0.058 OA 
ENDBRANCH  34  37
ENDBRANCH  33  34
ENDBRANCH   3  33
TORSDOF 11
ENDMDL
MODEL       41
REMARK 921   NORMALIZED FREE ENERGY PREDICTED BY IDOCK:   -4.73 KCAL/MOL
REMARK 922        TOTAL FREE ENERGY PREDICTED BY IDOCK:   -8.39 KCAL/MOL
REMARK 923 INTER-LIGAND FREE ENERGY PREDICTED BY IDOCK:   -8.06 KCAL/MOL
REMARK 924 INTRA-LIGAND FREE ENERGY PREDICTED BY IDOCK:   -0.33 KCAL/MOL
REMARK 927      BINDING AFFINITY PREDICTED BY RF-SCORE:    0.00 PKD
ROOT
HETATM    1  C   UNL     1      -7.147   6.976  69.452  1.00  0.00    -0.079 C  
HETATM    2  C   UNL     1      -7.257   8.318  68.784  1.00  0.00    -0.079 C  
HETATM    3  N   UNL     1      -7.983   9.315  69.443  1.00  0.00    -0.094 N  
HETATM    4  O   UNL     1      -6.684   8.512  67.710  1.00  0.00    -0.064 OA 
ENDROOT
BRANCH   3   5
HETATM    5  C   UNL     1      -8.078  10.565  68.748  1.00  0.00    -0.131 A  
HETATM    6  I   UNL     1      -8.721  15.107  66.843  1.00  0.00    -0.256 I  
HETATM    7  C   UNL     1      -8.294  13.079  67.499  1.00  0.00    -0.184 A  
HETATM    8  C   UNL     1      -8.999  10.754  67.682  1.00  0.00    -0.140 A  
HETATM    9  I   UNL     1     -10.117   9.041  66.970  1.00  0.00    -0.326 I  
HETATM   10  C   UNL     1      -7.182  11.608  69.102  1.00  0.00    -0.064 A  
HETATM   11  C   UNL     1      -7.289  12.876  68.488  1.00  0.00    -0.115 A  
HETATM   12  C   UNL     1      -9.119  12.015  67.047  1.00  0.00    -0.191 A  
HETATM   13  I   UNL     1      -5.617  11.170  70.556  1.00  0.00    -0.078 I  
BRANCH  12  14
HETATM   14  C   UNL     1     -10.166  12.219  65.995  1.00  0.00    -0.243 C  
HETATM   15  N   UNL     1     -11.381  12.743  66.393  1.00  0.00    -0.306 N  
HETATM   16  O   UNL     1      -9.933  11.911  64.831  1.00  0.00    -0.253 OA 
HETATM   17  H   UNL     1     -11.524  12.973  67.377  1.00  0.00     0.000 HD 
BRANCH  15  18
HETATM   18  C   UNL     1     -12.464  12.977  65.441  1.00  0.00    -0.476 C  
BRANCH  18  19
HETATM   19  C   UNL     1     -12.049  13.933  64.312  1.00  0.00    -0.440 C  
HETATM   20  H   UNL     1     -12.525  14.197  62.423  1.00  0.00     0.000 HD 
HETATM   21  O   UNL     1     -12.781  13.606  63.121  1.00  0.00    -0.737 OA 
BRANCH  19  22
HETATM   22  C   UNL     1     -12.282  15.404  64.701  1.00  0.00    -0.054 C  
HETATM   23  O   UNL     1     -11.682  16.298  63.767  1.00  0.00    -1.511 OA 
HETATM   24  H   UNL     1     -11.826  17.206  64.007  1.00  0.00     0.000 HD 
ENDBRANCH  19  22
ENDBRANCH  18  19
ENDBRANCH  15  18
ENDBRANCH  12  14
BRANCH  11  25
HETATM   25  C   UNL     1      -6.317  13.961  68.793  1.00  0.00    -0.091 C  
HETATM   26  O   UNL     1      -5.315  14.089  68.096  1.00  0.00    -0.105 OA 
HETATM   27  H   UNL     1      -7.453  14.646  70.397  1.00  0.00     0.000 HD 
HETATM   28  N   UNL     1      -6.585  14.779  69.878  1.00  0.00    -0.168 N  
BRANCH  28  29
HETATM   29  C   UNL     1      -5.666  15.820  70.296  1.00  0.00    -0.149 C  
BRANCH  29  30
HETATM   30  C   UNL     1      -6.061  17.157  69.686  1.00  0.00    -0.241 C  
HETATM   31  O   UNL     1      -5.445  17.296  68.404  1.00  0.00    -0.133 OA 
HETATM   32  H   UNL     1      -5.692  18.130  68.023  1.00  0.00     0.000 HD 
ENDBRANCH  29  30
ENDBRANCH  28  29
ENDBRANCH  11  25
ENDBRANCH   3   5
BRANCH   3  33
HETATM   33  C   UNL     1      -8.803   9.120  70.673  1.00  0.00    -0.232 C  
BRANCH  33  34
HETATM   34  C   UNL     1     -10.302   8.765  70.475  1.00  0.00    -0.203 C  
HETATM   35  O   UNL     1     -10.551   7.357  70.600  1.00  0.00    -0.217 OA 
HETATM   36  H   UNL     1     -11.468   7.140  70.479  1.00  0.00     0.000 HD 
BRANCH  34  37
HETATM   37  C   UNL     1     -11.216   9.493  71.478  1.00  0.00    -0.367 C  
HETATM   38  H   UNL     1     -12.434  11.054  71.485  1.00  0.00     0.000 HD 
HETATM   39  O   UNL     1     -11.871  10.605  70.865  1.00  0.00    -0.332 OA 
ENDBRANCH  34  37
ENDBRANCH  33  34
ENDBRANCH   3  33
TORSDOF 11
ENDMDL
MODEL       42
REMARK 921   NORMALIZED FREE ENERGY PREDICTED BY IDOCK:   -4.72 KCAL/MOL
REMARK 922        TOTAL FREE ENERGY PREDICTED BY IDOCK:   -8.37 KCAL/MOL
REMARK 923 INTER-LIGAND FREE ENERGY PREDICTED BY IDOCK:   -7.26 KCAL/MOL
REMARK 924 INTRA-LIGAND FREE ENERGY PREDICTED BY IDOCK:   -1.11 KCAL/MOL
REMARK 927      BINDING AFFINITY PREDICTED BY RF-SCORE:    0.00 PKD
ROOT
HETATM    1  C   UNL     1      -7.966   7.947  72.249  1.00  0.00    -0.151 C  
HETATM    2  C   UNL     1      -7.926   7.980  70.747  1.00  0.00    -0.099 C  
HETATM    3  N   UNL     1      -9.082   7.605  70.056  1.00  0.00    -0.151 N  
HETATM    4  O   UNL     1      -6.903   8.364  70.174  1.00  0.00    -0.041 OA 
ENDROOT
BRANCH   3   5
HETATM    5  C   UNL     1      -8.977   7.628  68.627  1.00  0.00    -0.133 A  
HETATM    6  I   UNL     1      -7.993   7.674  63.758  1.00  0.00     0.096 I  
HETATM    7  C   UNL     1      -8.649   7.626  65.831  1.00  0.00    -0.148 A  
HETATM    8  C   UNL     1      -9.149   8.830  67.888  1.00  0.00    -0.139 A  
HETATM    9  I   UNL     1      -9.791  10.607  68.947  1.00  0.00    -0.184 I  
HETATM   10  C   UNL     1      -8.761   6.403  67.943  1.00  0.00    -0.115 A  
HETATM   11  C   UNL     1      -8.584   6.393  66.541  1.00  0.00    -0.125 A  
HETATM   12  C   UNL     1      -8.983   8.843  66.481  1.00  0.00    -0.187 A  
HETATM   13  I   UNL     1      -8.776   4.558  69.107  1.00  0.00    -0.149 I  
BRANCH  12  14
HETATM   14  C   UNL     1      -9.068  10.140  65.736  1.00  0.00    -0.171 C  
HETATM   15  N   UNL     1     -10.265  10.448  65.120  1.00  0.00    -0.294 N  
HETATM   16  O   UNL     1      -8.090  10.879  65.679  1.00  0.00    -0.145 OA 
HETATM   17  H   UNL     1     -11.044   9.793  65.192  1.00  0.00     0.000 HD 
BRANCH  15  18
HETATM   18  C   UNL     1     -10.444  11.688  64.369  1.00  0.00    -0.322 C  
BRANCH  18  19
HETATM   19  C   UNL     1     -11.387  12.669  65.084  1.00  0.00    -0.308 C  
HETATM   20  H   UNL     1     -12.702  12.574  66.542  1.00  0.00     0.000 HD 
HETATM   21  O   UNL     1     -12.119  11.967  66.100  1.00  0.00    -0.582 OA 
BRANCH  19  22
HETATM   22  C   UNL     1     -10.616  13.853  65.694  1.00  0.00    -0.301 C  
HETATM   23  O   UNL     1      -9.251  13.523  65.940  1.00  0.00    -0.484 OA 
HETATM   24  H   UNL     1      -8.775  14.254  66.316  1.00  0.00     0.000 HD 
ENDBRANCH  19  22
ENDBRANCH  18  19
ENDBRANCH  15  18
ENDBRANCH  12  14
BRANCH  11  25
HETATM   25  C   UNL     1      -8.426   5.114  65.797  1.00  0.00    -0.124 C  
HETATM   26  O   UNL     1      -7.319   4.589  65.724  1.00  0.00    -0.074 OA 
HETATM   27  H   UNL     1     -10.451   5.040  65.322  1.00  0.00     0.000 HD 
HETATM   28  N   UNL     1      -9.551   4.576  65.196  1.00  0.00    -0.168 N  
BRANCH  28  29
HETATM   29  C   UNL     1      -9.486   3.370  64.392  1.00  0.00    -0.146 C  
BRANCH  29  30
HETATM   30  C   UNL     1     -10.581   3.375  63.335  1.00  0.00    -0.252 C  
HETATM   31  O   UNL     1     -11.524   2.340  63.623  1.00  0.00    -0.595 OA 
HETATM   32  H   UNL     1     -12.207   2.343  62.963  1.00  0.00     0.000 HD 
ENDBRANCH  29  30
ENDBRANCH  28  29
ENDBRANCH  11  25
ENDBRANCH   3   5
BRANCH   3  33
HETATM   33  C   UNL     1     -10.304   7.013  70.671  1.00  0.00    -0.207 C  
BRANCH  33  34
HETATM   34  C   UNL     1     -11.609   7.853  70.602  1.00  0.00    -0.204 C  
HETATM   35  O   UNL     1     -12.765   7.047  70.331  1.00  0.00    -0.595 OA 
HETATM   36  H   UNL     1     -13.563   7.561  70.289  1.00  0.00     0.000 HD 
BRANCH  34  37
HETATM   37  C   UNL     1     -11.876   8.631  71.904  1.00  0.00    -0.351 C  
HETATM   38  H   UNL     1     -11.532   8.407  73.842  1.00  0.00     0.000 HD 
HETATM   39  O   UNL     1     -11.367   7.927  73.039  1.00  0.00    -0.408 OA 
ENDBRANCH  34  37
ENDBRANCH  33  34
ENDBRANCH   3  33
TORSDOF 11
ENDMDL
MODEL       43
REMARK 921   NORMALIZED FREE ENERGY PREDICTED BY IDOCK:   -4.69 KCAL/MOL
REMARK 922        TOTAL FREE ENERGY PREDICTED BY IDOCK:   -8.32 KCAL/MOL
REMARK 923 INTER-LIGAND FREE ENERGY PREDICTED BY IDOCK:   -7.08 KCAL/MOL
REMARK 924 INTRA-LIGAND FREE ENERGY PREDICTED BY IDOCK:   -1.24 KCAL/MOL
REMARK 927      BINDING AFFINITY PREDICTED BY RF-SCORE:    0.00 PKD
ROOT
HETATM    1  C   UNL     1      -8.902  10.693  64.172  1.00  0.00    -0.170 C  
HETATM    2  C   UNL     1      -9.767  11.200  65.291  1.00  0.00    -0.241 C  
HETATM    3  N   UNL     1      -9.146  11.517  66.502  1.00  0.00    -0.189 N  
HETATM    4  O   UNL     1     -10.976  11.355  65.103  1.00  0.00    -0.267 OA 
ENDROOT
BRANCH   3   5
HETATM    5  C   UNL     1     -10.023  11.969  67.542  1.00  0.00    -0.192 A  
HETATM    6  I   UNL     1     -12.543  13.682  71.465  1.00  0.00    -0.136 I  
HETATM    7  C   UNL     1     -11.645  12.925  69.635  1.00  0.00    -0.248 A  
HETATM    8  C   UNL     1     -10.695  11.054  68.398  1.00  0.00    -0.203 A  
HETATM    9  I   UNL     1     -10.542   8.937  67.966  1.00  0.00    -0.024 I  
HETATM   10  C   UNL     1     -10.267  13.362  67.667  1.00  0.00    -0.228 A  
HETATM   11  C   UNL     1     -11.070  13.853  68.720  1.00  0.00    -0.291 A  
HETATM   12  C   UNL     1     -11.511  11.523  69.457  1.00  0.00    -0.378 A  
HETATM   13  I   UNL     1      -9.422  14.693  66.158  1.00  0.00    -0.104 I  
BRANCH  12  14
HETATM   14  C   UNL     1     -12.127  10.542  70.408  1.00  0.00    -0.329 C  
HETATM   15  N   UNL     1     -11.300   9.948  71.341  1.00  0.00    -0.340 N  
HETATM   16  O   UNL     1     -13.323  10.283  70.332  1.00  0.00    -0.178 OA 
HETATM   17  H   UNL     1     -10.309  10.193  71.354  1.00  0.00     0.000 HD 
BRANCH  15  18
HETATM   18  C   UNL     1     -11.807   8.979  72.310  1.00  0.00    -0.236 C  
BRANCH  18  19
HETATM   19  C   UNL     1     -11.111   7.615  72.186  1.00  0.00    -0.267 C  
HETATM   20  H   UNL     1     -10.485   6.219  73.421  1.00  0.00     0.000 HD 
HETATM   21  O   UNL     1     -10.915   7.062  73.497  1.00  0.00    -0.302 OA 
BRANCH  19  22
HETATM   22  C   UNL     1     -11.919   6.644  71.307  1.00  0.00    -0.355 C  
HETATM   23  O   UNL     1     -12.852   7.335  70.478  1.00  0.00    -0.590 OA 
HETATM   24  H   UNL     1     -13.351   6.736  69.936  1.00  0.00     0.000 HD 
ENDBRANCH  19  22
ENDBRANCH  18  19
ENDBRANCH  15  18
ENDBRANCH  12  14
BRANCH  11  25
HETATM   25  C   UNL     1     -11.395  15.301  68.828  1.00  0.00    -0.308 C  
HETATM   26  O   UNL     1     -12.526  15.690  68.552  1.00  0.00     0.173 OA 
HETATM   27  H   UNL     1      -9.474  15.771  69.476  1.00  0.00     0.000 HD 
HETATM   28  N   UNL     1     -10.384  16.159  69.226  1.00  0.00    -0.246 N  
BRANCH  28  29
HETATM   29  C   UNL     1     -10.582  17.594  69.295  1.00  0.00     0.091 C  
BRANCH  29  30
HETATM   30  C   UNL     1      -9.967  18.277  68.082  1.00  0.00    -0.360 C  
HETATM   31  O   UNL     1     -11.006  18.818  67.263  1.00  0.00    -0.412 OA 
HETATM   32  H   UNL     1     -10.622  19.244  66.506  1.00  0.00     0.000 HD 
ENDBRANCH  29  30
ENDBRANCH  28  29
ENDBRANCH  11  25
ENDBRANCH   3   5
BRANCH   3  33
HETATM   33  C   UNL     1      -7.721  11.240  66.844  1.00  0.00    -0.152 C  
BRANCH  33  34
HETATM   34  C   UNL     1      -7.129  11.987  68.070  1.00  0.00    -0.086 C  
HETATM   35  O   UNL     1      -6.970  11.129  69.209  1.00  0.00    -0.097 OA 
HETATM   36  H   UNL     1      -6.608  11.586  69.959  1.00  0.00     0.000 HD 
BRANCH  34  37
HETATM   37  C   UNL     1      -5.759  12.621  67.767  1.00  0.00    -0.122 C  
HETATM   38  H   UNL     1      -5.020  14.432  67.453  1.00  0.00     0.000 HD 
HETATM   39  O   UNL     1      -5.865  14.041  67.641  1.00  0.00    -0.289 OA 
ENDBRANCH  34  37
ENDBRANCH  33  34
ENDBRANCH   3  33
TORSDOF 11
ENDMDL
MODEL       44
REMARK 921   NORMALIZED FREE ENERGY PREDICTED BY IDOCK:   -4.69 KCAL/MOL
REMARK 922        TOTAL FREE ENERGY PREDICTED BY IDOCK:   -8.32 KCAL/MOL
REMARK 923 INTER-LIGAND FREE ENERGY PREDICTED BY IDOCK:   -7.53 KCAL/MOL
REMARK 924 INTRA-LIGAND FREE ENERGY PREDICTED BY IDOCK:   -0.79 KCAL/MOL
REMARK 927      BINDING AFFINITY PREDICTED BY RF-SCORE:    0.00 PKD
ROOT
HETATM    1  C   UNL     1     -12.514  14.280  64.484  1.00  0.00    -0.357 C  
HETATM    2  C   UNL     1     -11.926  13.032  65.081  1.00  0.00    -0.402 C  
HETATM    3  N   UNL     1     -10.618  13.098  65.567  1.00  0.00    -0.282 N  
HETATM    4  O   UNL     1     -12.615  12.012  65.157  1.00  0.00    -0.396 OA 
ENDROOT
BRANCH   3   5
HETATM    5  C   UNL     1     -10.099  11.872  66.100  1.00  0.00    -0.228 A  
HETATM    6  I   UNL     1      -7.831   7.969  68.173  1.00  0.00    -0.131 I  
HETATM    7  C   UNL     1      -9.006   9.535  67.228  1.00  0.00    -0.131 A  
HETATM    8  C   UNL     1      -9.446  10.919  65.272  1.00  0.00    -0.217 A  
HETATM    9  I   UNL     1      -9.436  11.249  63.131  1.00  0.00    -0.237 I  
HETATM   10  C   UNL     1     -10.307  11.588  67.475  1.00  0.00    -0.194 A  
HETATM   11  C   UNL     1      -9.753  10.424  68.053  1.00  0.00    -0.166 A  
HETATM   12  C   UNL     1      -8.889   9.741  65.828  1.00  0.00    -0.180 A  
HETATM   13  I   UNL     1     -11.548  12.959  68.633  1.00  0.00    -0.371 I  
BRANCH  12  14
HETATM   14  C   UNL     1      -8.117   8.801  64.952  1.00  0.00    -0.147 C  
HETATM   15  N   UNL     1      -8.762   7.662  64.510  1.00  0.00    -0.311 N  
HETATM   16  O   UNL     1      -6.951   9.050  64.665  1.00  0.00    -0.083 OA 
HETATM   17  H   UNL     1      -9.730   7.499  64.787  1.00  0.00     0.000 HD 
BRANCH  15  18
HETATM   18  C   UNL     1      -8.092   6.686  63.654  1.00  0.00    -0.001 C  
BRANCH  18  19
HETATM   19  C   UNL     1      -7.714   5.407  64.416  1.00  0.00    -0.096 C  
HETATM   20  H   UNL     1      -6.141   4.741  65.390  1.00  0.00     0.000 HD 
HETATM   21  O   UNL     1      -6.375   5.532  64.918  1.00  0.00    -0.035 OA 
BRANCH  19  22
HETATM   22  C   UNL     1      -8.697   5.122  65.565  1.00  0.00    -0.147 C  
HETATM   23  O   UNL     1      -9.986   4.755  65.079  1.00  0.00    -0.358 OA 
HETATM   24  H   UNL     1     -10.592   4.579  65.788  1.00  0.00     0.000 HD 
ENDBRANCH  19  22
ENDBRANCH  18  19
ENDBRANCH  15  18
ENDBRANCH  12  14
BRANCH  11  25
HETATM   25  C   UNL     1     -10.017  10.072  69.475  1.00  0.00    -0.228 C  
HETATM   26  O   UNL     1      -9.135  10.234  70.312  1.00  0.00     0.097 OA 
HETATM   27  H   UNL     1     -11.967   9.477  69.055  1.00  0.00     0.000 HD 
HETATM   28  N   UNL     1     -11.262   9.554  69.789  1.00  0.00    -0.191 N  
BRANCH  28  29
HETATM   29  C   UNL     1     -11.592   9.118  71.133  1.00  0.00    -0.317 C  
BRANCH  29  30
HETATM   30  C   UNL     1     -11.552   7.599  71.225  1.00  0.00    -0.278 C  
HETATM   31  O   UNL     1     -12.053   7.036  70.010  1.00  0.00    -0.608 OA 
HETATM   32  H   UNL     1     -12.028   6.089  70.068  1.00  0.00     0.000 HD 
ENDBRANCH  29  30
ENDBRANCH  28  29
ENDBRANCH  11  25
ENDBRANCH   3   5
BRANCH   3  33
HETATM   33  C   UNL     1      -9.686  14.249  65.397  1.00  0.00    -0.100 C  
BRANCH  33  34
HETATM   34  C   UNL     1      -9.617  15.281  66.557  1.00  0.00    -0.271 C  
HETATM   35  O   UNL     1      -8.373  15.218  67.270  1.00  0.00    -0.170 OA 
HETATM   36  H   UNL     1      -8.330  15.849  67.979  1.00  0.00     0.000 HD 
BRANCH  34  37
HETATM   37  C   UNL     1      -9.803  16.728  66.068  1.00  0.00    -0.287 C  
HETATM   38  H   UNL     1     -10.651  17.661  64.540  1.00  0.00     0.000 HD 
HETATM   39  O   UNL     1     -10.536  16.768  64.842  1.00  0.00    -0.702 OA 
ENDBRANCH  34  37
ENDBRANCH  33  34
ENDBRANCH   3  33
TORSDOF 11
ENDMDL
MODEL       45
REMARK 921   NORMALIZED FREE ENERGY PREDICTED BY IDOCK:   -4.67 KCAL/MOL
REMARK 922        TOTAL FREE ENERGY PREDICTED BY IDOCK:   -8.29 KCAL/MOL
REMARK 923 INTER-LIGAND FREE ENERGY PREDICTED BY IDOCK:   -7.91 KCAL/MOL
REMARK 924 INTRA-LIGAND FREE ENERGY PREDICTED BY IDOCK:   -0.37 KCAL/MOL
REMARK 927      BINDING AFFINITY PREDICTED BY RF-SCORE:    0.00 PKD
ROOT
HETATM    1  C   UNL     1      -7.044  10.867  65.528  1.00  0.00     0.117 C  
HETATM    2  C   UNL     1      -7.956  11.348  66.622  1.00  0.00    -0.148 C  
HETATM    3  N   UNL     1      -9.333  11.219  66.426  1.00  0.00    -0.187 N  
HETATM    4  O   UNL     1      -7.471  11.802  67.661  1.00  0.00    -0.107 OA 
ENDROOT
BRANCH   3   5
HETATM    5  C   UNL     1     -10.154  11.719  67.489  1.00  0.00    -0.192 A  
HETATM    6  I   UNL     1     -12.463  13.603  71.463  1.00  0.00     0.031 I  
HETATM    7  C   UNL     1     -11.663  12.770  69.621  1.00  0.00    -0.302 A  
HETATM    8  C   UNL     1     -10.795  10.844  68.408  1.00  0.00    -0.222 A  
HETATM    9  I   UNL     1     -10.688   8.712  68.046  1.00  0.00     0.175 I  
HETATM   10  C   UNL     1     -10.376  13.119  67.575  1.00  0.00    -0.225 A  
HETATM   11  C   UNL     1     -11.122  13.658  68.647  1.00  0.00    -0.299 A  
HETATM   12  C   UNL     1     -11.554  11.361  69.487  1.00  0.00    -0.399 A  
HETATM   13  I   UNL     1      -9.589  14.384  65.981  1.00  0.00    -0.078 I  
BRANCH  12  14
HETATM   14  C   UNL     1     -12.135  10.423  70.501  1.00  0.00    -0.332 C  
HETATM   15  N   UNL     1     -11.261   9.791  71.364  1.00  0.00    -0.352 N  
HETATM   16  O   UNL     1     -13.346  10.231  70.535  1.00  0.00    -0.253 OA 
HETATM   17  H   UNL     1     -10.262   9.980  71.286  1.00  0.00     0.000 HD 
BRANCH  15  18
HETATM   18  C   UNL     1     -11.732   8.858  72.385  1.00  0.00    -0.196 C  
BRANCH  18  19
HETATM   19  C   UNL     1     -11.094   7.468  72.242  1.00  0.00    -0.273 C  
HETATM   20  H   UNL     1     -10.375   6.099  73.456  1.00  0.00     0.000 HD 
HETATM   21  O   UNL     1     -10.770   6.959  73.545  1.00  0.00    -0.325 OA 
BRANCH  19  22
HETATM   22  C   UNL     1     -12.022   6.493  71.497  1.00  0.00    -0.329 C  
HETATM   23  O   UNL     1     -13.029   7.181  70.759  1.00  0.00    -0.597 OA 
HETATM   24  H   UNL     1     -13.602   6.579  70.299  1.00  0.00     0.000 HD 
ENDBRANCH  19  22
ENDBRANCH  18  19
ENDBRANCH  15  18
ENDBRANCH  12  14
BRANCH  11  25
HETATM   25  C   UNL     1     -11.424  15.112  68.718  1.00  0.00    -0.319 C  
HETATM   26  O   UNL     1     -12.531  15.518  68.377  1.00  0.00     0.225 OA 
HETATM   27  H   UNL     1      -9.531  15.557  69.461  1.00  0.00     0.000 HD 
HETATM   28  N   UNL     1     -10.419  15.958  69.157  1.00  0.00    -0.219 N  
BRANCH  28  29
HETATM   29  C   UNL     1     -10.593  17.397  69.197  1.00  0.00    -0.161 C  
BRANCH  29  30
HETATM   30  C   UNL     1      -9.862  18.055  68.034  1.00  0.00    -0.323 C  
HETATM   31  O   UNL     1      -9.239  19.259  68.485  1.00  0.00    -0.353 OA 
HETATM   32  H   UNL     1      -8.783  19.670  67.760  1.00  0.00     0.000 HD 
ENDBRANCH  29  30
ENDBRANCH  28  29
ENDBRANCH  11  25
ENDBRANCH   3   5
BRANCH   3  33
HETATM   33  C   UNL     1      -9.992  10.801  65.155  1.00  0.00    -0.291 C  
BRANCH  33  34
HETATM   34  C   UNL     1     -10.306  11.916  64.120  1.00  0.00    -0.336 C  
HETATM   35  O   UNL     1      -9.415  11.884  62.995  1.00  0.00    -0.583 OA 
HETATM   36  H   UNL     1      -9.607  12.565  62.362  1.00  0.00     0.000 HD 
BRANCH  34  37
HETATM   37  C   UNL     1     -11.745  11.829  63.580  1.00  0.00    -0.415 C  
HETATM   38  H   UNL     1     -13.285  13.046  63.310  1.00  0.00     0.000 HD 
HETATM   39  O   UNL     1     -12.396  13.100  63.643  1.00  0.00    -0.646 OA 
ENDBRANCH  34  37
ENDBRANCH  33  34
ENDBRANCH   3  33
TORSDOF 11
ENDMDL
MODEL       46
REMARK 921   NORMALIZED FREE ENERGY PREDICTED BY IDOCK:   -4.67 KCAL/MOL
REMARK 922        TOTAL FREE ENERGY PREDICTED BY IDOCK:   -8.28 KCAL/MOL
REMARK 923 INTER-LIGAND FREE ENERGY PREDICTED BY IDOCK:   -7.59 KCAL/MOL
REMARK 924 INTRA-LIGAND FREE ENERGY PREDICTED BY IDOCK:   -0.69 KCAL/MOL
REMARK 927      BINDING AFFINITY PREDICTED BY RF-SCORE:    0.00 PKD
ROOT
HETATM    1  C   UNL     1     -12.461  14.449  64.535  1.00  0.00    -0.362 C  
HETATM    2  C   UNL     1     -11.150  14.103  65.185  1.00  0.00    -0.348 C  
HETATM    3  N   UNL     1     -11.099  14.092  66.582  1.00  0.00    -0.307 N  
HETATM    4  O   UNL     1     -10.181  13.808  64.481  1.00  0.00    -0.414 OA 
ENDROOT
BRANCH   3   5
HETATM    5  C   UNL     1      -9.818  13.783  67.147  1.00  0.00    -0.242 A  
HETATM    6  I   UNL     1      -5.171  12.684  68.513  1.00  0.00    -0.073 I  
HETATM    7  C   UNL     1      -7.247  13.210  68.141  1.00  0.00    -0.117 A  
HETATM    8  C   UNL     1      -9.528  12.494  67.669  1.00  0.00    -0.188 A  
HETATM    9  I   UNL     1     -11.135  11.048  67.798  1.00  0.00    -0.342 I  
HETATM   10  C   UNL     1      -8.850  14.817  67.238  1.00  0.00    -0.204 A  
HETATM   11  C   UNL     1      -7.553  14.537  67.725  1.00  0.00    -0.171 A  
HETATM   12  C   UNL     1      -8.237  12.192  68.169  1.00  0.00    -0.164 A  
HETATM   13  I   UNL     1      -9.445  16.838  66.669  1.00  0.00    -0.331 I  
BRANCH  12  14
HETATM   14  C   UNL     1      -7.924  10.797  68.620  1.00  0.00    -0.133 C  
HETATM   15  N   UNL     1      -8.146  10.488  69.948  1.00  0.00    -0.357 N  
HETATM   16  O   UNL     1      -7.474   9.982  67.822  1.00  0.00    -0.088 OA 
HETATM   17  H   UNL     1      -8.513  11.208  70.571  1.00  0.00     0.000 HD 
BRANCH  15  18
HETATM   18  C   UNL     1      -7.871   9.156  70.481  1.00  0.00    -0.142 C  
BRANCH  18  19
HETATM   19  C   UNL     1      -8.934   8.704  71.494  1.00  0.00    -0.234 C  
HETATM   20  H   UNL     1     -10.815   9.134  71.871  1.00  0.00     0.000 HD 
HETATM   21  O   UNL     1     -10.158   9.414  71.245  1.00  0.00    -0.302 OA 
BRANCH  19  22
HETATM   22  C   UNL     1      -9.168   7.185  71.429  1.00  0.00    -0.150 C  
HETATM   23  O   UNL     1      -9.674   6.783  70.157  1.00  0.00    -0.167 OA 
HETATM   24  H   UNL     1      -9.818   5.845  70.117  1.00  0.00     0.000 HD 
ENDBRANCH  19  22
ENDBRANCH  18  19
ENDBRANCH  15  18
ENDBRANCH  12  14
BRANCH  11  25
HETATM   25  C   UNL     1      -6.547  15.619  67.894  1.00  0.00    -0.153 C  
HETATM   26  O   UNL     1      -5.772  15.874  66.977  1.00  0.00    -0.332 OA 
HETATM   27  H   UNL     1      -7.212  16.057  69.817  1.00  0.00     0.000 HD 
HETATM   28  N   UNL     1      -6.519  16.289  69.106  1.00  0.00    -0.163 N  
BRANCH  28  29
HETATM   29  C   UNL     1      -5.531  17.312  69.392  1.00  0.00    -0.180 C  
BRANCH  29  30
HETATM   30  C   UNL     1      -6.174  18.692  69.380  1.00  0.00    -0.265 C  
HETATM   31  O   UNL     1      -6.265  19.161  68.033  1.00  0.00    -0.208 OA 
HETATM   32  H   UNL     1      -6.666  20.023  68.025  1.00  0.00     0.000 HD 
ENDBRANCH  29  30
ENDBRANCH  28  29
ENDBRANCH  11  25
ENDBRANCH   3   5
BRANCH   3  33
HETATM   33  C   UNL     1     -12.185  14.557  67.493  1.00  0.00    -0.121 C  
BRANCH  33  34
HETATM   34  C   UNL     1     -11.770  14.985  68.927  1.00  0.00    -0.328 C  
HETATM   35  O   UNL     1     -12.297  16.270  69.288  1.00  0.00    -0.302 OA 
HETATM   36  H   UNL     1     -12.044  16.531  70.166  1.00  0.00     0.000 HD 
BRANCH  34  37
HETATM   37  C   UNL     1     -12.226  13.975  69.996  1.00  0.00    -0.352 C  
HETATM   38  H   UNL     1     -13.375  13.967  71.609  1.00  0.00     0.000 HD 
HETATM   39  O   UNL     1     -13.094  14.590  70.950  1.00  0.00    -0.355 OA 
ENDBRANCH  34  37
ENDBRANCH  33  34
ENDBRANCH   3  33
TORSDOF 11
ENDMDL
MODEL       47
REMARK 921   NORMALIZED FREE ENERGY PREDICTED BY IDOCK:   -4.66 KCAL/MOL
REMARK 922        TOTAL FREE ENERGY PREDICTED BY IDOCK:   -8.27 KCAL/MOL
REMARK 923 INTER-LIGAND FREE ENERGY PREDICTED BY IDOCK:   -7.28 KCAL/MOL
REMARK 924 INTRA-LIGAND FREE ENERGY PREDICTED BY IDOCK:   -0.99 KCAL/MOL
REMARK 927      BINDING AFFINITY PREDICTED BY RF-SCORE:    0.00 PKD
ROOT
HETATM    1  C   UNL     1     -13.410  15.127  70.212  1.00  0.00     0.049 C  
HETATM    2  C   UNL     1     -11.985  14.680  70.040  1.00  0.00    -0.320 C  
HETATM    3  N   UNL     1     -11.540  14.410  68.743  1.00  0.00    -0.296 N  
HETATM    4  O   UNL     1     -11.250  14.600  71.027  1.00  0.00    -0.156 OA 
ENDROOT
BRANCH   3   5
HETATM    5  C   UNL     1     -10.183  13.961  68.641  1.00  0.00    -0.218 A  
HETATM    6  I   UNL     1      -5.544  12.475  67.668  1.00  0.00    -0.075 I  
HETATM    7  C   UNL     1      -7.512  13.131  68.320  1.00  0.00    -0.129 A  
HETATM    8  C   UNL     1      -9.840  12.590  68.791  1.00  0.00     0.021 A  
HETATM    9  I   UNL     1     -11.388  11.201  69.396  1.00  0.00    -0.418 I  
HETATM   10  C   UNL     1      -9.160  14.928  68.451  1.00  0.00    -0.185 A  
HETATM   11  C   UNL     1      -7.819  14.521  68.277  1.00  0.00    -0.131 A  
HETATM   12  C   UNL     1      -8.500  12.159  68.628  1.00  0.00    -0.005 A  
HETATM   13  I   UNL     1      -9.718  17.037  68.499  1.00  0.00    -0.309 I  
BRANCH  12  14
HETATM   14  C   UNL     1      -8.179  10.697  68.689  1.00  0.00    -0.135 C  
HETATM   15  N   UNL     1      -8.343   9.956  67.535  1.00  0.00    -0.115 N  
HETATM   16  O   UNL     1      -7.798  10.197  69.742  1.00  0.00    -0.154 OA 
HETATM   17  H   UNL     1      -8.672  10.421  66.689  1.00  0.00     0.000 HD 
BRANCH  15  18
HETATM   18  C   UNL     1      -8.057   8.523  67.496  1.00  0.00    -0.107 C  
BRANCH  18  19
HETATM   19  C   UNL     1      -9.081   7.749  66.652  1.00  0.00    -0.161 C  
HETATM   20  H   UNL     1      -9.406   5.868  66.181  1.00  0.00     0.000 HD 
HETATM   21  O   UNL     1      -8.773   6.347  66.703  1.00  0.00    -0.119 OA 
BRANCH  19  22
HETATM   22  C   UNL     1     -10.520   8.003  67.134  1.00  0.00    -0.338 C  
HETATM   23  O   UNL     1     -11.354   6.865  66.928  1.00  0.00    -0.681 OA 
HETATM   24  H   UNL     1     -12.242   7.022  67.225  1.00  0.00     0.000 HD 
ENDBRANCH  19  22
ENDBRANCH  18  19
ENDBRANCH  15  18
ENDBRANCH  12  14
BRANCH  11  25
HETATM   25  C   UNL     1      -6.724  15.520  68.146  1.00  0.00    -0.127 C  
HETATM   26  O   UNL     1      -6.053  15.815  69.130  1.00  0.00    -0.113 OA 
HETATM   27  H   UNL     1      -7.088  15.780  66.114  1.00  0.00     0.000 HD 
HETATM   28  N   UNL     1      -6.521  16.093  66.902  1.00  0.00    -0.078 N  
BRANCH  28  29
HETATM   29  C   UNL     1      -5.524  17.125  66.688  1.00  0.00    -0.167 C  
BRANCH  29  30
HETATM   30  C   UNL     1      -6.188  18.424  66.254  1.00  0.00    -0.191 C  
HETATM   31  O   UNL     1      -7.347  18.127  65.473  1.00  0.00    -0.543 OA 
HETATM   32  H   UNL     1      -7.762  18.938  65.202  1.00  0.00     0.000 HD 
ENDBRANCH  29  30
ENDBRANCH  28  29
ENDBRANCH  11  25
ENDBRANCH   3   5
BRANCH   3  33
HETATM   33  C   UNL     1     -12.398  14.363  67.524  1.00  0.00    -0.009 C  
BRANCH  33  34
HETATM   34  C   UNL     1     -11.763  13.776  66.234  1.00  0.00    -0.376 C  
HETATM   35  O   UNL     1     -12.472  12.627  65.749  1.00  0.00    -0.607 OA 
HETATM   36  H   UNL     1     -12.084  12.268  64.960  1.00  0.00     0.000 HD 
BRANCH  34  37
HETATM   37  C   UNL     1     -11.700  14.804  65.090  1.00  0.00    -0.337 C  
HETATM   38  H   UNL     1     -12.454  15.020  63.271  1.00  0.00     0.000 HD 
HETATM   39  O   UNL     1     -12.493  14.386  63.977  1.00  0.00    -0.748 OA 
ENDBRANCH  34  37
ENDBRANCH  33  34
ENDBRANCH   3  33
TORSDOF 11
ENDMDL
MODEL       48
REMARK 921   NORMALIZED FREE ENERGY PREDICTED BY IDOCK:   -4.66 KCAL/MOL
REMARK 922        TOTAL FREE ENERGY PREDICTED BY IDOCK:   -8.27 KCAL/MOL
REMARK 923 INTER-LIGAND FREE ENERGY PREDICTED BY IDOCK:   -7.38 KCAL/MOL
REMARK 924 INTRA-LIGAND FREE ENERGY PREDICTED BY IDOCK:   -0.88 KCAL/MOL
REMARK 927      BINDING AFFINITY PREDICTED BY RF-SCORE:    0.00 PKD
ROOT
HETATM    1  C   UNL     1      -5.928   6.136  66.497  1.00  0.00    -0.025 C  
HETATM    2  C   UNL     1      -6.925   7.036  67.171  1.00  0.00    -0.078 C  
HETATM    3  N   UNL     1      -8.231   7.049  66.675  1.00  0.00    -0.109 N  
HETATM    4  O   UNL     1      -6.579   7.701  68.151  1.00  0.00    -0.051 OA 
ENDROOT
BRANCH   3   5
HETATM    5  C   UNL     1      -9.131   7.945  67.338  1.00  0.00    -0.133 A  
HETATM    6  I   UNL     1     -11.738  11.340  69.859  1.00  0.00    -0.425 I  
HETATM    7  C   UNL     1     -10.799   9.792  68.655  1.00  0.00    -0.188 A  
HETATM    8  C   UNL     1      -9.836   7.559  68.510  1.00  0.00    -0.165 A  
HETATM    9  I   UNL     1      -9.694   5.500  69.167  1.00  0.00    -0.273 I  
HETATM   10  C   UNL     1      -9.363   9.223  66.763  1.00  0.00    -0.156 A  
HETATM   11  C   UNL     1     -10.190  10.161  67.421  1.00  0.00    -0.267 A  
HETATM   12  C   UNL     1     -10.675   8.481  69.184  1.00  0.00    -0.128 A  
HETATM   13  I   UNL     1      -8.464   9.655  64.823  1.00  0.00    -0.234 I  
BRANCH  12  14
HETATM   14  C   UNL     1     -11.327   8.084  70.474  1.00  0.00    -0.225 C  
HETATM   15  N   UNL     1     -10.617   8.288  71.641  1.00  0.00    -0.227 N  
HETATM   16  O   UNL     1     -12.448   7.585  70.466  1.00  0.00    -0.006 OA 
HETATM   17  H   UNL     1      -9.684   8.698  71.589  1.00  0.00     0.000 HD 
BRANCH  15  18
HETATM   18  C   UNL     1     -11.167   7.932  72.946  1.00  0.00    -0.366 C  
BRANCH  18  19
HETATM   19  C   UNL     1     -10.257   6.963  73.717  1.00  0.00    -0.363 C  
HETATM   20  H   UNL     1      -9.774   5.061  73.594  1.00  0.00     0.000 HD 
HETATM   21  O   UNL     1     -10.336   5.661  73.117  1.00  0.00    -0.181 OA 
BRANCH  19  22
HETATM   22  C   UNL     1      -8.800   7.456  73.745  1.00  0.00    -0.215 C  
HETATM   23  O   UNL     1      -8.712   8.819  74.158  1.00  0.00    -0.194 OA 
HETATM   24  H   UNL     1      -7.813   9.123  74.175  1.00  0.00     0.000 HD 
ENDBRANCH  19  22
ENDBRANCH  18  19
ENDBRANCH  15  18
ENDBRANCH  12  14
BRANCH  11  25
HETATM   25  C   UNL     1     -10.501  11.477  66.802  1.00  0.00    -0.239 C  
HETATM   26  O   UNL     1      -9.768  12.437  67.020  1.00  0.00    -0.203 OA 
HETATM   27  H   UNL     1     -12.182  10.721  65.836  1.00  0.00     0.000 HD 
HETATM   28  N   UNL     1     -11.633  11.563  66.009  1.00  0.00    -0.044 N  
BRANCH  28  29
HETATM   29  C   UNL     1     -12.058  12.817  65.417  1.00  0.00    -0.462 C  
BRANCH  29  30
HETATM   30  C   UNL     1     -11.633  12.890  63.957  1.00  0.00    -0.426 C  
HETATM   31  O   UNL     1     -12.358  13.933  63.302  1.00  0.00    -1.115 OA 
HETATM   32  H   UNL     1     -12.092  13.978  62.391  1.00  0.00     0.000 HD 
ENDBRANCH  29  30
ENDBRANCH  28  29
ENDBRANCH  11  25
ENDBRANCH   3   5
BRANCH   3  33
HETATM   33  C   UNL     1      -8.690   6.375  65.426  1.00  0.00    -0.022 C  
BRANCH  33  34
HETATM   34  C   UNL     1      -9.312   4.959  65.574  1.00  0.00    -0.157 C  
HETATM   35  O   UNL     1     -10.745   4.997  65.649  1.00  0.00    -0.502 OA 
HETATM   36  H   UNL     1     -11.125   4.131  65.739  1.00  0.00     0.000 HD 
BRANCH  34  37
HETATM   37  C   UNL     1      -8.929   4.025  64.412  1.00  0.00    -0.137 C  
HETATM   38  H   UNL     1      -7.324   3.623  63.322  1.00  0.00     0.000 HD 
HETATM   39  O   UNL     1      -7.560   4.200  64.039  1.00  0.00    -0.069 OA 
ENDBRANCH  34  37
ENDBRANCH  33  34
ENDBRANCH   3  33
TORSDOF 11
ENDMDL
MODEL       49
REMARK 921   NORMALIZED FREE ENERGY PREDICTED BY IDOCK:   -4.66 KCAL/MOL
REMARK 922        TOTAL FREE ENERGY PREDICTED BY IDOCK:   -8.26 KCAL/MOL
REMARK 923 INTER-LIGAND FREE ENERGY PREDICTED BY IDOCK:   -7.30 KCAL/MOL
REMARK 924 INTRA-LIGAND FREE ENERGY PREDICTED BY IDOCK:   -0.96 KCAL/MOL
REMARK 927      BINDING AFFINITY PREDICTED BY RF-SCORE:    0.00 PKD
ROOT
HETATM    1  C   UNL     1     -11.699  14.422  65.181  1.00  0.00    -0.372 C  
HETATM    2  C   UNL     1     -11.666  13.106  65.906  1.00  0.00    -0.384 C  
HETATM    3  N   UNL     1     -10.540  12.818  66.683  1.00  0.00    -0.255 N  
HETATM    4  O   UNL     1     -12.633  12.344  65.827  1.00  0.00    -0.532 OA 
ENDROOT
BRANCH   3   5
HETATM    5  C   UNL     1     -10.551  11.539  67.329  1.00  0.00    -0.228 A  
HETATM    6  I   UNL     1     -10.096   7.312  69.899  1.00  0.00    -0.218 I  
HETATM    7  C   UNL     1     -10.499   9.078  68.695  1.00  0.00    -0.200 A  
HETATM    8  C   UNL     1     -10.052  10.375  66.682  1.00  0.00    -0.224 A  
HETATM    9  I   UNL     1      -9.466  10.523  64.602  1.00  0.00    -0.396 I  
HETATM   10  C   UNL     1     -11.135  11.435  68.619  1.00  0.00    -0.236 A  
HETATM   11  C   UNL     1     -11.104  10.207  69.317  1.00  0.00    -0.270 A  
HETATM   12  C   UNL     1     -10.017   9.132  67.361  1.00  0.00    -0.262 A  
HETATM   13  I   UNL     1     -12.124  13.195  69.444  1.00  0.00    -0.001 I  
BRANCH  12  14
HETATM   14  C   UNL     1      -9.393   7.942  66.696  1.00  0.00    -0.193 C  
HETATM   15  N   UNL     1      -8.017   7.834  66.736  1.00  0.00    -0.106 N  
HETATM   16  O   UNL     1     -10.101   7.114  66.133  1.00  0.00     0.070 OA 
HETATM   17  H   UNL     1      -7.475   8.557  67.210  1.00  0.00     0.000 HD 
BRANCH  15  18
HETATM   18  C   UNL     1      -7.318   6.711  66.115  1.00  0.00    -0.076 C  
BRANCH  18  19
HETATM   19  C   UNL     1      -6.450   7.152  64.926  1.00  0.00    -0.037 C  
HETATM   20  H   UNL     1      -4.981   6.380  63.872  1.00  0.00     0.000 HD 
HETATM   21  O   UNL     1      -5.517   6.108  64.607  1.00  0.00    -0.017 OA 
BRANCH  19  22
HETATM   22  C   UNL     1      -7.309   7.502  63.698  1.00  0.00    -0.094 C  
HETATM   23  O   UNL     1      -8.590   6.878  63.754  1.00  0.00    -0.326 OA 
HETATM   24  H   UNL     1      -9.119   7.095  62.996  1.00  0.00     0.000 HD 
ENDBRANCH  19  22
ENDBRANCH  18  19
ENDBRANCH  15  18
ENDBRANCH  12  14
BRANCH  11  25
HETATM   25  C   UNL     1     -11.771  10.059  70.638  1.00  0.00    -0.337 C  
HETATM   26  O   UNL     1     -11.094  10.061  71.662  1.00  0.00    -0.083 OA 
HETATM   27  H   UNL     1     -13.659   9.948  69.770  1.00  0.00     0.000 HD 
HETATM   28  N   UNL     1     -13.148   9.906  70.651  1.00  0.00    -0.182 N  
BRANCH  28  29
HETATM   29  C   UNL     1     -13.881   9.686  71.883  1.00  0.00    -0.213 C  
BRANCH  29  30
HETATM   30  C   UNL     1     -14.006   8.197  72.171  1.00  0.00    -0.272 C  
HETATM   31  O   UNL     1     -14.143   7.485  70.939  1.00  0.00    -0.647 OA 
HETATM   32  H   UNL     1     -14.221   6.555  71.119  1.00  0.00     0.000 HD 
ENDBRANCH  29  30
ENDBRANCH  28  29
ENDBRANCH  11  25
ENDBRANCH   3   5
BRANCH   3  33
HETATM   33  C   UNL     1      -9.287  13.626  66.725  1.00  0.00    -0.261 C  
BRANCH  33  34
HETATM   34  C   UNL     1      -9.008  14.430  68.025  1.00  0.00    -0.183 C  
HETATM   35  O   UNL     1      -8.268  13.667  68.990  1.00  0.00    -0.341 OA 
HETATM   36  H   UNL     1      -8.097  14.159  69.785  1.00  0.00     0.000 HD 
BRANCH  34  37
HETATM   37  C   UNL     1      -8.226  15.729  67.756  1.00  0.00    -0.144 C  
HETATM   38  H   UNL     1      -7.967  17.000  66.259  1.00  0.00     0.000 HD 
HETATM   39  O   UNL     1      -8.450  16.198  66.425  1.00  0.00    -0.283 OA 
ENDBRANCH  34  37
ENDBRANCH  33  34
ENDBRANCH   3  33
TORSDOF 11
ENDMDL
MODEL       50
REMARK 921   NORMALIZED FREE ENERGY PREDICTED BY IDOCK:   -4.65 KCAL/MOL
REMARK 922        TOTAL FREE ENERGY PREDICTED BY IDOCK:   -8.25 KCAL/MOL
REMARK 923 INTER-LIGAND FREE ENERGY PREDICTED BY IDOCK:   -7.36 KCAL/MOL
REMARK 924 INTRA-LIGAND FREE ENERGY PREDICTED BY IDOCK:   -0.89 KCAL/MOL
REMARK 927      BINDING AFFINITY PREDICTED BY RF-SCORE:    0.00 PKD
ROOT
HETATM    1  C   UNL     1      -7.289  17.791  68.164  1.00  0.00    -0.238 C  
HETATM    2  C   UNL     1      -7.471  16.368  67.716  1.00  0.00    -0.142 C  
HETATM    3  N   UNL     1      -8.523  15.639  68.277  1.00  0.00    -0.153 N  
HETATM    4  O   UNL     1      -6.722  15.901  66.855  1.00  0.00    -0.266 OA 
ENDROOT
BRANCH   3   5
HETATM    5  C   UNL     1      -8.632  14.280  67.834  1.00  0.00    -0.171 A  
HETATM    6  I   UNL     1      -9.559   9.558  66.600  1.00  0.00    -0.307 I  
HETATM    7  C   UNL     1      -8.975  11.616  66.989  1.00  0.00    -0.182 A  
HETATM    8  C   UNL     1      -7.890  13.235  68.450  1.00  0.00    -0.137 A  
HETATM    9  I   UNL     1      -6.414  13.763  69.944  1.00  0.00     0.155 I  
HETATM   10  C   UNL     1      -9.453  13.995  66.711  1.00  0.00    -0.282 A  
HETATM   11  C   UNL     1      -9.641  12.661  66.286  1.00  0.00    -0.244 A  
HETATM   12  C   UNL     1      -8.057  11.890  68.036  1.00  0.00    -0.151 A  
HETATM   13  I   UNL     1     -10.351  15.672  65.643  1.00  0.00    -0.420 I  
BRANCH  12  14
HETATM   14  C   UNL     1      -7.342  10.795  68.768  1.00  0.00    -0.104 C  
HETATM   15  N   UNL     1      -7.901  10.341  69.946  1.00  0.00    -0.302 N  
HETATM   16  O   UNL     1      -6.292  10.345  68.323  1.00  0.00    -0.051 OA 
HETATM   17  H   UNL     1      -8.772  10.757  70.276  1.00  0.00     0.000 HD 
BRANCH  15  18
HETATM   18  C   UNL     1      -7.277   9.278  70.731  1.00  0.00    -0.121 C  
BRANCH  18  19
HETATM   19  C   UNL     1      -8.211   8.073  70.923  1.00  0.00    -0.103 C  
HETATM   20  H   UNL     1     -10.152   7.778  71.030  1.00  0.00     0.000 HD 
HETATM   21  O   UNL     1      -9.575   8.523  70.911  1.00  0.00    -0.167 OA 
BRANCH  19  22
HETATM   22  C   UNL     1      -7.986   7.004  69.840  1.00  0.00    -0.123 C  
HETATM   23  O   UNL     1      -7.015   7.419  68.881  1.00  0.00    -0.072 OA 
HETATM   24  H   UNL     1      -6.876   6.759  68.213  1.00  0.00     0.000 HD 
ENDBRANCH  19  22
ENDBRANCH  18  19
ENDBRANCH  15  18
ENDBRANCH  12  14
BRANCH  11  25
HETATM   25  C   UNL     1     -10.441  12.347  65.072  1.00  0.00    -0.294 C  
HETATM   26  O   UNL     1      -9.867  12.121  64.011  1.00  0.00    -0.267 OA 
HETATM   27  H   UNL     1     -12.238  12.501  66.110  1.00  0.00     0.000 HD 
HETATM   28  N   UNL     1     -11.820  12.341  65.194  1.00  0.00    -0.368 N  
BRANCH  28  29
HETATM   29  C   UNL     1     -12.688  12.114  64.053  1.00  0.00    -0.344 C  
BRANCH  29  30
HETATM   30  C   UNL     1     -12.407  13.134  62.959  1.00  0.00     0.103 C  
HETATM   31  O   UNL     1     -12.681  14.447  63.452  1.00  0.00    -0.938 OA 
HETATM   32  H   UNL     1     -12.505  15.084  62.768  1.00  0.00     0.000 HD 
ENDBRANCH  29  30
ENDBRANCH  28  29
ENDBRANCH  11  25
ENDBRANCH   3   5
BRANCH   3  33
HETATM   33  C   UNL     1      -9.385  16.090  69.407  1.00  0.00    -0.218 C  
BRANCH  33  34
HETATM   34  C   UNL     1     -10.506  15.121  69.872  1.00  0.00    -0.216 C  
HETATM   35  O   UNL     1     -10.605  15.045  71.302  1.00  0.00    -0.476 OA 
HETATM   36  H   UNL     1     -11.291  14.453  71.586  1.00  0.00     0.000 HD 
BRANCH  34  37
HETATM   37  C   UNL     1     -11.890  15.519  69.328  1.00  0.00    -0.353 C  
HETATM   38  H   UNL     1     -13.730  15.748  70.026  1.00  0.00     0.000 HD 
HETATM   39  O   UNL     1     -12.876  15.502  70.363  1.00  0.00    -0.410 OA 
ENDBRANCH  34  37
ENDBRANCH  33  34
ENDBRANCH   3  33
TORSDOF 11
ENDMDL
MODEL       51
REMARK 921   NORMALIZED FREE ENERGY PREDICTED BY IDOCK:   -4.65 KCAL/MOL
REMARK 922        TOTAL FREE ENERGY PREDICTED BY IDOCK:   -8.25 KCAL/MOL
REMARK 923 INTER-LIGAND FREE ENERGY PREDICTED BY IDOCK:   -8.03 KCAL/MOL
REMARK 924 INTRA-LIGAND FREE ENERGY PREDICTED BY IDOCK:   -0.22 KCAL/MOL
REMARK 927      BINDING AFFINITY PREDICTED BY RF-SCORE:    0.00 PKD
ROOT
HETATM    1  C   UNL     1      -9.185   3.026  65.392  1.00  0.00    -0.141 C  
HETATM    2  C   UNL     1      -9.590   4.370  65.930  1.00  0.00    -0.188 C  
HETATM    3  N   UNL     1      -8.584   5.200  66.432  1.00  0.00    -0.112 N  
HETATM    4  O   UNL     1     -10.774   4.712  65.883  1.00  0.00    -0.307 OA 
ENDROOT
BRANCH   3   5
HETATM    5  C   UNL     1      -9.031   6.457  66.957  1.00  0.00    -0.119 A  
HETATM    6  I   UNL     1     -11.158  10.627  68.617  1.00  0.00    -0.349 I  
HETATM    7  C   UNL     1     -10.031   8.875  67.995  1.00  0.00    -0.178 A  
HETATM    8  C   UNL     1      -8.855   7.669  66.235  1.00  0.00    -0.156 A  
HETATM    9  I   UNL     1      -7.696   7.621  64.406  1.00  0.00    -0.096 I  
HETATM   10  C   UNL     1      -9.602   6.485  68.256  1.00  0.00    -0.131 A  
HETATM   11  C   UNL     1     -10.117   7.691  68.782  1.00  0.00    -0.202 A  
HETATM   12  C   UNL     1      -9.357   8.892  66.746  1.00  0.00    -0.224 A  
HETATM   13  I   UNL     1      -9.599   4.640  69.421  1.00  0.00    -0.248 I  
BRANCH  12  14
HETATM   14  C   UNL     1      -9.250  10.139  65.921  1.00  0.00    -0.162 C  
HETATM   15  N   UNL     1     -10.173  10.319  64.910  1.00  0.00    -0.281 N  
HETATM   16  O   UNL     1      -8.358  10.949  66.148  1.00  0.00    -0.162 OA 
HETATM   17  H   UNL     1     -10.890   9.609  64.758  1.00  0.00     0.000 HD 
BRANCH  15  18
HETATM   18  C   UNL     1     -10.149  11.502  64.052  1.00  0.00    -0.321 C  
BRANCH  18  19
HETATM   19  C   UNL     1     -11.218  12.531  64.451  1.00  0.00    -0.339 C  
HETATM   20  H   UNL     1     -11.280  14.470  64.768  1.00  0.00     0.000 HD 
HETATM   21  O   UNL     1     -10.619  13.834  64.521  1.00  0.00    -0.423 OA 
BRANCH  19  22
HETATM   22  C   UNL     1     -12.399  12.532  63.464  1.00  0.00    -0.525 C  
HETATM   23  O   UNL     1     -12.545  11.272  62.813  1.00  0.00    -0.912 OA 
HETATM   24  H   UNL     1     -13.273  11.273  62.204  1.00  0.00     0.000 HD 
ENDBRANCH  19  22
ENDBRANCH  18  19
ENDBRANCH  15  18
ENDBRANCH  12  14
BRANCH  11  25
HETATM   25  C   UNL     1     -10.656   7.757  70.167  1.00  0.00    -0.237 C  
HETATM   26  O   UNL     1      -9.912   8.070  71.092  1.00  0.00    -0.172 OA 
HETATM   27  H   UNL     1     -12.568   7.223  69.541  1.00  0.00     0.000 HD 
HETATM   28  N   UNL     1     -11.991   7.441  70.354  1.00  0.00    -0.097 N  
BRANCH  28  29
HETATM   29  C   UNL     1     -12.592   7.410  71.674  1.00  0.00    -0.358 C  
BRANCH  29  30
HETATM   30  C   UNL     1     -13.664   8.484  71.796  1.00  0.00    -0.407 C  
HETATM   31  O   UNL     1     -13.770   8.895  73.161  1.00  0.00    -1.009 OA 
HETATM   32  H   UNL     1     -14.439   9.565  73.238  1.00  0.00     0.000 HD 
ENDBRANCH  29  30
ENDBRANCH  28  29
ENDBRANCH  11  25
ENDBRANCH   3   5
BRANCH   3  33
HETATM   33  C   UNL     1      -7.160   4.809  66.637  1.00  0.00    -0.072 C  
BRANCH  33  34
HETATM   34  C   UNL     1      -6.802   4.123  67.985  1.00  0.00    -0.048 C  
HETATM   35  O   UNL     1      -6.580   2.713  67.838  1.00  0.00    -0.035 OA 
HETATM   36  H   UNL     1      -6.361   2.294  68.661  1.00  0.00     0.000 HD 
BRANCH  34  37
HETATM   37  C   UNL     1      -5.547   4.729  68.637  1.00  0.00    -0.015 C  
HETATM   38  H   UNL     1      -4.601   6.470  68.658  1.00  0.00     0.000 HD 
HETATM   39  O   UNL     1      -5.376   6.096  68.255  1.00  0.00    -0.007 OA 
ENDBRANCH  34  37
ENDBRANCH  33  34
ENDBRANCH   3  33
TORSDOF 11
ENDMDL
MODEL       52
REMARK 921   NORMALIZED FREE ENERGY PREDICTED BY IDOCK:   -4.63 KCAL/MOL
REMARK 922        TOTAL FREE ENERGY PREDICTED BY IDOCK:   -8.22 KCAL/MOL
REMARK 923 INTER-LIGAND FREE ENERGY PREDICTED BY IDOCK:   -7.04 KCAL/MOL
REMARK 924 INTRA-LIGAND FREE ENERGY PREDICTED BY IDOCK:   -1.19 KCAL/MOL
REMARK 927      BINDING AFFINITY PREDICTED BY RF-SCORE:    0.00 PKD
ROOT
HETATM    1  C   UNL     1      -8.335   9.116  65.642  1.00  0.00    -0.131 C  
HETATM    2  C   UNL     1      -8.598  10.524  66.096  1.00  0.00    -0.150 C  
HETATM    3  N   UNL     1      -8.222  10.871  67.396  1.00  0.00    -0.116 N  
HETATM    4  O   UNL     1      -9.098  11.333  65.309  1.00  0.00    -0.200 OA 
ENDROOT
BRANCH   3   5
HETATM    5  C   UNL     1      -8.523  12.218  67.784  1.00  0.00    -0.163 A  
HETATM    6  I   UNL     1      -9.821  16.950  68.556  1.00  0.00    -0.309 I  
HETATM    7  C   UNL     1      -9.202  14.868  68.447  1.00  0.00    -0.189 A  
HETATM    8  C   UNL     1      -7.519  13.223  67.817  1.00  0.00    -0.154 A  
HETATM    9  I   UNL     1      -5.462  12.638  67.478  1.00  0.00     0.051 I  
HETATM   10  C   UNL     1      -9.844  12.524  68.203  1.00  0.00    -0.221 A  
HETATM   11  C   UNL     1     -10.198  13.853  68.527  1.00  0.00    -0.240 A  
HETATM   12  C   UNL     1      -7.849  14.562  68.145  1.00  0.00    -0.135 A  
HETATM   13  I   UNL     1     -11.271  10.884  68.389  1.00  0.00    -0.362 I  
BRANCH  12  14
HETATM   14  C   UNL     1      -6.795  15.624  68.075  1.00  0.00    -0.132 C  
HETATM   15  N   UNL     1      -6.615  16.269  66.867  1.00  0.00    -0.158 N  
HETATM   16  O   UNL     1      -6.119  15.884  69.065  1.00  0.00    -0.115 OA 
HETATM   17  H   UNL     1      -7.198  16.007  66.072  1.00  0.00     0.000 HD 
BRANCH  15  18
HETATM   18  C   UNL     1      -5.611  17.318  66.699  1.00  0.00    -0.197 C  
BRANCH  18  19
HETATM   19  C   UNL     1      -6.239  18.668  66.322  1.00  0.00    -0.183 C  
HETATM   20  H   UNL     1      -7.821  19.274  65.323  1.00  0.00     0.000 HD 
HETATM   21  O   UNL     1      -7.433  18.439  65.557  1.00  0.00    -0.528 OA 
BRANCH  19  22
HETATM   22  C   UNL     1      -6.551  19.515  67.568  1.00  0.00    -0.212 C  
HETATM   23  O   UNL     1      -6.301  18.794  68.773  1.00  0.00    -0.221 OA 
HETATM   24  H   UNL     1      -6.494  19.317  69.541  1.00  0.00     0.000 HD 
ENDBRANCH  19  22
ENDBRANCH  18  19
ENDBRANCH  15  18
ENDBRANCH  12  14
BRANCH  11  25
HETATM   25  C   UNL     1     -11.557  14.184  69.035  1.00  0.00    -0.304 C  
HETATM   26  O   UNL     1     -12.468  14.385  68.239  1.00  0.00    -0.085 OA 
HETATM   27  H   UNL     1     -10.941  14.052  71.019  1.00  0.00     0.000 HD 
HETATM   28  N   UNL     1     -11.729  14.266  70.407  1.00  0.00    -0.281 N  
BRANCH  28  29
HETATM   29  C   UNL     1     -12.997  14.648  70.997  1.00  0.00    -0.356 C  
BRANCH  29  30
HETATM   30  C   UNL     1     -13.465  13.590  71.986  1.00  0.00    -0.494 C  
HETATM   31  O   UNL     1     -13.659  14.191  73.269  1.00  0.00    -0.444 OA 
HETATM   32  H   UNL     1     -13.951  13.531  73.886  1.00  0.00     0.000 HD 
ENDBRANCH  29  30
ENDBRANCH  28  29
ENDBRANCH  11  25
ENDBRANCH   3   5
BRANCH   3  33
HETATM   33  C   UNL     1      -7.734   9.923  68.439  1.00  0.00    -0.084 C  
BRANCH  33  34
HETATM   34  C   UNL     1      -7.685  10.444  69.902  1.00  0.00    -0.069 C  
HETATM   35  O   UNL     1      -8.615   9.761  70.756  1.00  0.00    -0.356 OA 
HETATM   36  H   UNL     1      -8.585  10.079  71.650  1.00  0.00     0.000 HD 
BRANCH  34  37
HETATM   37  C   UNL     1      -6.285  10.306  70.528  1.00  0.00    -0.116 C  
HETATM   38  H   UNL     1      -5.037  11.422  71.586  1.00  0.00     0.000 HD 
HETATM   39  O   UNL     1      -5.901  11.507  71.200  1.00  0.00    -0.380 OA 
ENDBRANCH  34  37
ENDBRANCH  33  34
ENDBRANCH   3  33
TORSDOF 11
ENDMDL
MODEL       53
REMARK 921   NORMALIZED FREE ENERGY PREDICTED BY IDOCK:   -4.57 KCAL/MOL
REMARK 922        TOTAL FREE ENERGY PREDICTED BY IDOCK:   -8.11 KCAL/MOL
REMARK 923 INTER-LIGAND FREE ENERGY PREDICTED BY IDOCK:   -8.33 KCAL/MOL
REMARK 924 INTRA-LIGAND FREE ENERGY PREDICTED BY IDOCK:    0.22 KCAL/MOL
REMARK 927      BINDING AFFINITY PREDICTED BY RF-SCORE:    0.00 PKD
ROOT
HETATM    1  C   UNL     1     -10.580  13.682  64.679  1.00  0.00    -0.446 C  
HETATM    2  C   UNL     1     -10.992  12.760  65.793  1.00  0.00    -0.277 C  
HETATM    3  N   UNL     1     -10.135  12.643  66.892  1.00  0.00    -0.227 N  
HETATM    4  O   UNL     1     -12.073  12.171  65.726  1.00  0.00    -0.572 OA 
ENDROOT
BRANCH   3   5
HETATM    5  C   UNL     1     -10.565  11.730  67.910  1.00  0.00    -0.201 A  
HETATM    6  I   UNL     1     -11.612   8.826  71.801  1.00  0.00    -0.456 I  
HETATM    7  C   UNL     1     -11.349  10.014  69.999  1.00  0.00    -0.275 A  
HETATM    8  C   UNL     1     -10.208  10.355  67.874  1.00  0.00    -0.179 A  
HETATM    9  I   UNL     1      -9.174   9.603  66.126  1.00  0.00    -0.287 I  
HETATM   10  C   UNL     1     -11.420  12.212  68.936  1.00  0.00    -0.297 A  
HETATM   11  C   UNL     1     -11.810  11.362  69.995  1.00  0.00    -0.440 A  
HETATM   12  C   UNL     1     -10.594   9.482  68.922  1.00  0.00    -0.239 A  
HETATM   13  I   UNL     1     -12.150  14.262  68.788  1.00  0.00     0.035 I  
BRANCH  12  14
HETATM   14  C   UNL     1     -10.120   8.060  68.914  1.00  0.00    -0.201 C  
HETATM   15  N   UNL     1      -8.896   7.789  69.493  1.00  0.00    -0.139 N  
HETATM   16  O   UNL     1     -10.808   7.188  68.394  1.00  0.00    -0.178 OA 
HETATM   17  H   UNL     1      -8.360   8.555  69.903  1.00  0.00     0.000 HD 
BRANCH  15  18
HETATM   18  C   UNL     1      -8.349   6.435  69.533  1.00  0.00    -0.126 C  
BRANCH  18  19
HETATM   19  C   UNL     1      -8.304   5.869  70.961  1.00  0.00    -0.123 C  
HETATM   20  H   UNL     1      -8.066   6.593  72.773  1.00  0.00     0.000 HD 
HETATM   21  O   UNL     1      -8.094   6.943  71.891  1.00  0.00    -0.100 OA 
BRANCH  19  22
HETATM   22  C   UNL     1      -9.592   5.100  71.306  1.00  0.00    -0.162 C  
HETATM   23  O   UNL     1     -10.468   5.007  70.185  1.00  0.00    -0.267 OA 
HETATM   24  H   UNL     1     -11.262   4.533  70.398  1.00  0.00     0.000 HD 
ENDBRANCH  19  22
ENDBRANCH  18  19
ENDBRANCH  15  18
ENDBRANCH  12  14
BRANCH  11  25
HETATM   25  C   UNL     1     -12.760  11.826  71.042  1.00  0.00    -0.275 C  
HETATM   26  O   UNL     1     -13.621  11.058  71.461  1.00  0.00    -0.089 OA 
HETATM   27  H   UNL     1     -11.878  13.709  71.130  1.00  0.00     0.000 HD 
HETATM   28  N   UNL     1     -12.636  13.130  71.490  1.00  0.00    -0.254 N  
BRANCH  28  29
HETATM   29  C   UNL     1     -13.557  13.696  72.458  1.00  0.00    -0.570 C  
BRANCH  29  30
HETATM   30  C   UNL     1     -12.889  14.824  73.232  1.00  0.00    -0.507 C  
HETATM   31  O   UNL     1     -12.267  15.727  72.314  1.00  0.00    -0.374 OA 
HETATM   32  H   UNL     1     -11.850  16.431  72.797  1.00  0.00     0.000 HD 
ENDBRANCH  29  30
ENDBRANCH  28  29
ENDBRANCH  11  25
ENDBRANCH   3   5
BRANCH   3  33
HETATM   33  C   UNL     1      -8.764  13.220  66.987  1.00  0.00    -0.186 C  
BRANCH  33  34
HETATM   34  C   UNL     1      -8.610  14.554  67.768  1.00  0.00    -0.175 C  
HETATM   35  O   UNL     1      -8.285  14.344  69.150  1.00  0.00    -0.319 OA 
HETATM   36  H   UNL     1      -8.191  15.160  69.627  1.00  0.00     0.000 HD 
BRANCH  34  37
HETATM   37  C   UNL     1      -7.526  15.466  67.165  1.00  0.00    -0.189 C  
HETATM   38  H   UNL     1      -7.434  17.197  66.205  1.00  0.00     0.000 HD 
HETATM   39  O   UNL     1      -8.103  16.634  66.578  1.00  0.00    -0.241 OA 
ENDBRANCH  34  37
ENDBRANCH  33  34
ENDBRANCH   3  33
TORSDOF 11
ENDMDL
MODEL       54
REMARK 921   NORMALIZED FREE ENERGY PREDICTED BY IDOCK:   -4.56 KCAL/MOL
REMARK 922        TOTAL FREE ENERGY PREDICTED BY IDOCK:   -8.09 KCAL/MOL
REMARK 923 INTER-LIGAND FREE ENERGY PREDICTED BY IDOCK:   -7.13 KCAL/MOL
REMARK 924 INTRA-LIGAND FREE ENERGY PREDICTED BY IDOCK:   -0.97 KCAL/MOL
REMARK 927      BINDING AFFINITY PREDICTED BY RF-SCORE:    0.00 PKD
ROOT
HETATM    1  C   UNL     1      -9.552   4.726  65.393  1.00  0.00    -0.152 C  
HETATM    2  C   UNL     1     -10.146   5.700  66.372  1.00  0.00    -0.156 C  
HETATM    3  N   UNL     1      -9.268   6.493  67.116  1.00  0.00    -0.125 N  
HETATM    4  O   UNL     1     -11.372   5.796  66.465  1.00  0.00     0.011 OA 
ENDROOT
BRANCH   3   5
HETATM    5  C   UNL     1      -9.889   7.383  68.053  1.00  0.00    -0.148 A  
HETATM    6  I   UNL     1     -12.580  10.183  71.149  1.00  0.00    -0.542 I  
HETATM    7  C   UNL     1     -11.212   9.049  69.896  1.00  0.00    -0.079 A  
HETATM    8  C   UNL     1     -10.125   8.748  67.737  1.00  0.00    -0.207 A  
HETATM    9  I   UNL     1      -9.329   9.529  65.880  1.00  0.00    -0.340 I  
HETATM   10  C   UNL     1     -10.211   6.890  69.345  1.00  0.00    -0.182 A  
HETATM   11  C   UNL     1     -10.885   7.715  70.273  1.00  0.00    -0.253 A  
HETATM   12  C   UNL     1     -10.793   9.596  68.655  1.00  0.00    -0.203 A  
HETATM   13  I   UNL     1      -9.580   4.867  69.861  1.00  0.00    -0.306 I  
BRANCH  12  14
HETATM   14  C   UNL     1     -11.121  11.004  68.260  1.00  0.00    -0.257 C  
HETATM   15  N   UNL     1     -10.228  11.995  68.619  1.00  0.00    -0.301 N  
HETATM   16  O   UNL     1     -12.159  11.243  67.652  1.00  0.00    -0.600 OA 
HETATM   17  H   UNL     1      -9.384  11.741  69.133  1.00  0.00     0.000 HD 
BRANCH  15  18
HETATM   18  C   UNL     1     -10.462  13.397  68.280  1.00  0.00    -0.250 C  
BRANCH  18  19
HETATM   19  C   UNL     1     -10.823  14.240  69.512  1.00  0.00    -0.115 C  
HETATM   20  H   UNL     1     -10.008  15.724  70.511  1.00  0.00     0.000 HD 
HETATM   21  O   UNL     1      -9.784  15.203  69.749  1.00  0.00    -0.187 OA 
BRANCH  19  22
HETATM   22  C   UNL     1     -12.181  14.943  69.338  1.00  0.00    -0.205 C  
HETATM   23  O   UNL     1     -13.081  14.623  70.397  1.00  0.00    -0.552 OA 
HETATM   24  H   UNL     1     -13.919  15.057  70.290  1.00  0.00     0.000 HD 
ENDBRANCH  19  22
ENDBRANCH  18  19
ENDBRANCH  15  18
ENDBRANCH  12  14
BRANCH  11  25
HETATM   25  C   UNL     1     -11.170   7.242  71.655  1.00  0.00    -0.245 C  
HETATM   26  O   UNL     1     -12.250   6.716  71.904  1.00  0.00    -0.336 OA 
HETATM   27  H   UNL     1      -9.299   7.846  72.339  1.00  0.00     0.000 HD 
HETATM   28  N   UNL     1     -10.191   7.436  72.616  1.00  0.00    -0.208 N  
BRANCH  28  29
HETATM   29  C   UNL     1     -10.401   7.072  74.004  1.00  0.00    -0.273 C  
BRANCH  29  30
HETATM   30  C   UNL     1     -10.079   5.600  74.223  1.00  0.00    -0.264 C  
HETATM   31  O   UNL     1     -11.273   4.827  74.085  1.00  0.00    -0.338 OA 
HETATM   32  H   UNL     1     -11.072   3.909  74.222  1.00  0.00     0.000 HD 
ENDBRANCH  29  30
ENDBRANCH  28  29
ENDBRANCH  11  25
ENDBRANCH   3   5
BRANCH   3  33
HETATM   33  C   UNL     1      -7.785   6.345  67.150  1.00  0.00    -0.100 C  
BRANCH  33  34
HETATM   34  C   UNL     1      -6.998   7.317  68.073  1.00  0.00    -0.079 C  
HETATM   35  O   UNL     1      -6.297   6.629  69.120  1.00  0.00    -0.032 OA 
HETATM   36  H   UNL     1      -5.816   7.223  69.684  1.00  0.00     0.000 HD 
BRANCH  34  37
HETATM   37  C   UNL     1      -5.971   8.161  67.297  1.00  0.00    -0.050 C  
HETATM   38  H   UNL     1      -5.320  10.032  67.288  1.00  0.00     0.000 HD 
HETATM   39  O   UNL     1      -5.954   9.511  67.767  1.00  0.00    -0.051 OA 
ENDBRANCH  34  37
ENDBRANCH  33  34
ENDBRANCH   3  33
TORSDOF 11
ENDMDL
MODEL       55
REMARK 921   NORMALIZED FREE ENERGY PREDICTED BY IDOCK:   -4.49 KCAL/MOL
REMARK 922        TOTAL FREE ENERGY PREDICTED BY IDOCK:   -7.99 KCAL/MOL
REMARK 923 INTER-LIGAND FREE ENERGY PREDICTED BY IDOCK:   -7.54 KCAL/MOL
REMARK 924 INTRA-LIGAND FREE ENERGY PREDICTED BY IDOCK:   -0.45 KCAL/MOL
REMARK 927      BINDING AFFINITY PREDICTED BY RF-SCORE:    0.00 PKD
ROOT
HETATM    1  C   UNL     1      -9.706  10.346  63.995  1.00  0.00    -0.373 C  
HETATM    2  C   UNL     1     -10.341  10.860  65.257  1.00  0.00    -0.268 C  
HETATM    3  N   UNL     1      -9.531  10.984  66.389  1.00  0.00    -0.188 N  
HETATM    4  O   UNL     1     -11.530  11.186  65.250  1.00  0.00     0.069 OA 
ENDROOT
BRANCH   3   5
HETATM    5  C   UNL     1     -10.195  11.452  67.570  1.00  0.00    -0.185 A  
HETATM    6  I   UNL     1     -13.029  12.878  71.392  1.00  0.00    -0.003 I  
HETATM    7  C   UNL     1     -11.604  12.297  69.856  1.00  0.00    -0.203 A  
HETATM    8  C   UNL     1     -10.424  12.837  67.795  1.00  0.00    -0.223 A  
HETATM    9  I   UNL     1      -9.553  14.262  66.417  1.00  0.00    -0.234 I  
HETATM   10  C   UNL     1     -10.571  10.504  68.558  1.00  0.00    -0.206 A  
HETATM   11  C   UNL     1     -11.287  10.916  69.704  1.00  0.00    -0.362 A  
HETATM   12  C   UNL     1     -11.135  13.274  68.940  1.00  0.00    -0.304 A  
HETATM   13  I   UNL     1      -9.953   8.430  68.281  1.00  0.00    -0.250 I  
BRANCH  12  14
HETATM   14  C   UNL     1     -11.452  14.729  69.105  1.00  0.00    -0.299 C  
HETATM   15  N   UNL     1     -10.508  15.525  69.724  1.00  0.00    -0.283 N  
HETATM   16  O   UNL     1     -12.525  15.171  68.707  1.00  0.00    -0.009 OA 
HETATM   17  H   UNL     1      -9.636  15.104  70.045  1.00  0.00     0.000 HD 
BRANCH  15  18
HETATM   18  C   UNL     1     -10.727  16.955  69.932  1.00  0.00    -0.010 C  
BRANCH  18  19
HETATM   19  C   UNL     1      -9.921  17.815  68.947  1.00  0.00    -0.332 C  
HETATM   20  H   UNL     1      -8.134  17.747  68.129  1.00  0.00     0.000 HD 
HETATM   21  O   UNL     1      -8.633  17.215  68.738  1.00  0.00    -0.268 OA 
BRANCH  19  22
HETATM   22  C   UNL     1     -10.659  17.987  67.608  1.00  0.00    -0.399 C  
HETATM   23  O   UNL     1     -10.858  19.362  67.288  1.00  0.00    -0.484 OA 
HETATM   24  H   UNL     1     -11.313  19.469  66.461  1.00  0.00     0.000 HD 
ENDBRANCH  19  22
ENDBRANCH  18  19
ENDBRANCH  15  18
ENDBRANCH  12  14
BRANCH  11  25
HETATM   25  C   UNL     1     -11.629   9.952  70.784  1.00  0.00    -0.349 C  
HETATM   26  O   UNL     1     -10.799   9.696  71.652  1.00  0.00    -0.290 OA 
HETATM   27  H   UNL     1     -13.542   9.645  70.024  1.00  0.00     0.000 HD 
HETATM   28  N   UNL     1     -12.883   9.365  70.750  1.00  0.00    -0.068 N  
BRANCH  28  29
HETATM   29  C   UNL     1     -13.284   8.362  71.719  1.00  0.00    -0.355 C  
BRANCH  29  30
HETATM   30  C   UNL     1     -12.443   7.103  71.562  1.00  0.00    -0.381 C  
HETATM   31  O   UNL     1     -12.423   6.714  70.186  1.00  0.00    -0.500 OA 
HETATM   32  H   UNL     1     -11.898   5.928  70.089  1.00  0.00     0.000 HD 
ENDBRANCH  29  30
ENDBRANCH  28  29
ENDBRANCH  11  25
ENDBRANCH   3   5
BRANCH   3  33
HETATM   33  C   UNL     1      -8.128  10.494  66.509  1.00  0.00    -0.134 C  
BRANCH  33  34
HETATM   34  C   UNL     1      -7.151  11.348  67.363  1.00  0.00    -0.114 C  
HETATM   35  O   UNL     1      -6.954  10.804  68.676  1.00  0.00    -0.064 OA 
HETATM   36  H   UNL     1      -6.357  11.326  69.198  1.00  0.00     0.000 HD 
BRANCH  34  37
HETATM   37  C   UNL     1      -5.767  11.493  66.704  1.00  0.00    -0.139 C  
HETATM   38  H   UNL     1      -4.350  12.869  66.558  1.00  0.00     0.000 HD 
HETATM   39  O   UNL     1      -5.204  12.780  66.965  1.00  0.00    -0.340 OA 
ENDBRANCH  34  37
ENDBRANCH  33  34
ENDBRANCH   3  33
TORSDOF 11
ENDMDL
MODEL       56
REMARK 921   NORMALIZED FREE ENERGY PREDICTED BY IDOCK:   -4.48 KCAL/MOL
REMARK 922        TOTAL FREE ENERGY PREDICTED BY IDOCK:   -7.96 KCAL/MOL
REMARK 923 INTER-LIGAND FREE ENERGY PREDICTED BY IDOCK:   -7.69 KCAL/MOL
REMARK 924 INTRA-LIGAND FREE ENERGY PREDICTED BY IDOCK:   -0.28 KCAL/MOL
REMARK 927      BINDING AFFINITY PREDICTED BY RF-SCORE:    0.00 PKD
ROOT
HETATM    1  C   UNL     1      -5.701  11.306  66.468  1.00  0.00    -0.145 C  
HETATM    2  C   UNL     1      -6.808  11.290  67.484  1.00  0.00    -0.086 C  
HETATM    3  N   UNL     1      -8.040  10.756  67.095  1.00  0.00    -0.121 N  
HETATM    4  O   UNL     1      -6.594  11.707  68.624  1.00  0.00    -0.057 OA 
ENDROOT
BRANCH   3   5
HETATM    5  C   UNL     1      -9.067  10.792  68.094  1.00  0.00    -0.151 A  
HETATM    6  I   UNL     1     -12.942  10.518  71.190  1.00  0.00    -0.345 I  
HETATM    7  C   UNL     1     -11.133  10.751  70.006  1.00  0.00    -0.255 A  
HETATM    8  C   UNL     1      -9.944  11.904  68.220  1.00  0.00    -0.202 A  
HETATM    9  I   UNL     1      -9.565  13.657  67.007  1.00  0.00    -0.277 I  
HETATM   10  C   UNL     1      -9.157   9.714  69.014  1.00  0.00    -0.148 A  
HETATM   11  C   UNL     1     -10.196   9.678  69.970  1.00  0.00    -0.296 A  
HETATM   12  C   UNL     1     -10.990  11.893  69.176  1.00  0.00    -0.251 A  
HETATM   13  I   UNL     1      -7.617   8.170  68.942  1.00  0.00    -0.102 I  
BRANCH  12  14
HETATM   14  C   UNL     1     -11.964  13.031  69.222  1.00  0.00    -0.278 C  
HETATM   15  N   UNL     1     -12.214  13.612  70.450  1.00  0.00    -0.353 N  
HETATM   16  O   UNL     1     -12.517  13.406  68.193  1.00  0.00    -0.038 OA 
HETATM   17  H   UNL     1     -11.733  13.254  71.276  1.00  0.00     0.000 HD 
BRANCH  15  18
HETATM   18  C   UNL     1     -13.148  14.726  70.595  1.00  0.00    -0.293 C  
BRANCH  18  19
HETATM   19  C   UNL     1     -13.096  15.349  71.999  1.00  0.00    -0.413 C  
HETATM   20  H   UNL     1     -13.165  14.693  73.851  1.00  0.00     0.000 HD 
HETATM   21  O   UNL     1     -13.197  14.308  72.983  1.00  0.00    -0.554 OA 
BRANCH  19  22
HETATM   22  C   UNL     1     -11.810  16.166  72.208  1.00  0.00    -0.536 C  
HETATM   23  O   UNL     1     -11.230  16.565  70.968  1.00  0.00    -0.392 OA 
HETATM   24  H   UNL     1     -10.436  17.070  71.097  1.00  0.00     0.000 HD 
ENDBRANCH  19  22
ENDBRANCH  18  19
ENDBRANCH  15  18
ENDBRANCH  12  14
BRANCH  11  25
HETATM   25  C   UNL     1     -10.268   8.594  70.987  1.00  0.00    -0.220 C  
HETATM   26  O   UNL     1      -9.691   8.733  72.061  1.00  0.00    -0.299 OA 
HETATM   27  H   UNL     1     -11.469   7.411  69.767  1.00  0.00     0.000 HD 
HETATM   28  N   UNL     1     -10.981   7.453  70.661  1.00  0.00    -0.251 N  
BRANCH  28  29
HETATM   29  C   UNL     1     -11.052   6.314  71.557  1.00  0.00    -0.281 C  
BRANCH  29  30
HETATM   30  C   UNL     1     -10.335   5.115  70.953  1.00  0.00    -0.212 C  
HETATM   31  O   UNL     1     -10.130   5.339  69.556  1.00  0.00    -0.207 OA 
HETATM   32  H   UNL     1      -9.683   4.590  69.179  1.00  0.00     0.000 HD 
ENDBRANCH  29  30
ENDBRANCH  28  29
ENDBRANCH  11  25
ENDBRANCH   3   5
BRANCH   3  33
HETATM   33  C   UNL     1      -8.411  10.353  65.708  1.00  0.00    -0.166 C  
BRANCH  33  34
HETATM   34  C   UNL     1      -8.383   8.834  65.382  1.00  0.00    -0.151 C  
HETATM   35  O   UNL     1      -9.683   8.233  65.468  1.00  0.00    -0.375 OA 
HETATM   36  H   UNL     1      -9.666   7.304  65.268  1.00  0.00     0.000 HD 
BRANCH  34  37
HETATM   37  C   UNL     1      -7.826   8.546  63.976  1.00  0.00    -0.148 C  
HETATM   38  H   UNL     1      -6.123   8.793  62.995  1.00  0.00     0.000 HD 
HETATM   39  O   UNL     1      -6.466   8.971  63.863  1.00  0.00    -0.086 OA 
ENDBRANCH  34  37
ENDBRANCH  33  34
ENDBRANCH   3  33
TORSDOF 11
ENDMDL
MODEL       57
REMARK 921   NORMALIZED FREE ENERGY PREDICTED BY IDOCK:   -4.47 KCAL/MOL
REMARK 922        TOTAL FREE ENERGY PREDICTED BY IDOCK:   -7.95 KCAL/MOL
REMARK 923 INTER-LIGAND FREE ENERGY PREDICTED BY IDOCK:   -8.57 KCAL/MOL
REMARK 924 INTRA-LIGAND FREE ENERGY PREDICTED BY IDOCK:    0.61 KCAL/MOL
REMARK 927      BINDING AFFINITY PREDICTED BY RF-SCORE:    0.00 PKD
ROOT
HETATM    1  C   UNL     1     -10.122   8.406  72.802  1.00  0.00    -0.268 C  
HETATM    2  C   UNL     1      -9.766   8.834  71.406  1.00  0.00    -0.280 C  
HETATM    3  N   UNL     1     -10.647   8.492  70.376  1.00  0.00    -0.217 N  
HETATM    4  O   UNL     1      -8.743   9.495  71.215  1.00  0.00    -0.241 OA 
ENDROOT
BRANCH   3   5
HETATM    5  C   UNL     1     -10.244   8.901  69.063  1.00  0.00    -0.206 A  
HETATM    6  I   UNL     1      -9.429  10.173  64.331  1.00  0.00    -0.233 I  
HETATM    7  C   UNL     1      -9.579   9.715  66.451  1.00  0.00    -0.210 A  
HETATM    8  C   UNL     1      -9.421   8.077  68.247  1.00  0.00    -0.141 A  
HETATM    9  I   UNL     1      -8.599   6.268  69.107  1.00  0.00    -0.118 I  
HETATM   10  C   UNL     1     -10.628  10.189  68.605  1.00  0.00    -0.210 A  
HETATM   11  C   UNL     1     -10.309  10.603  67.293  1.00  0.00    -0.265 A  
HETATM   12  C   UNL     1      -9.083   8.475  66.929  1.00  0.00    -0.177 A  
HETATM   13  I   UNL     1     -11.657  11.511  70.002  1.00  0.00    -0.140 I  
BRANCH  12  14
HETATM   14  C   UNL     1      -8.301   7.544  66.052  1.00  0.00    -0.136 C  
HETATM   15  N   UNL     1      -9.009   6.649  65.275  1.00  0.00    -0.357 N  
HETATM   16  O   UNL     1      -7.075   7.588  66.052  1.00  0.00    -0.066 OA 
HETATM   17  H   UNL     1     -10.029   6.649  65.321  1.00  0.00     0.000 HD 
BRANCH  15  18
HETATM   18  C   UNL     1      -8.336   5.702  64.390  1.00  0.00    -0.093 C  
BRANCH  18  19
HETATM   19  C   UNL     1      -9.171   4.434  64.151  1.00  0.00    -0.140 C  
HETATM   20  H   UNL     1      -8.835   2.609  63.501  1.00  0.00     0.000 HD 
HETATM   21  O   UNL     1      -8.319   3.393  63.649  1.00  0.00    -0.088 OA 
BRANCH  19  22
HETATM   22  C   UNL     1      -9.884   3.976  65.435  1.00  0.00    -0.192 C  
HETATM   23  O   UNL     1     -11.189   4.541  65.544  1.00  0.00    -0.852 OA 
HETATM   24  H   UNL     1     -11.630   4.258  66.336  1.00  0.00     0.000 HD 
ENDBRANCH  19  22
ENDBRANCH  18  19
ENDBRANCH  15  18
ENDBRANCH  12  14
BRANCH  11  25
HETATM   25  C   UNL     1     -10.642  11.973  66.817  1.00  0.00    -0.227 C  
HETATM   26  O   UNL     1      -9.912  12.912  67.120  1.00  0.00    -0.233 OA 
HETATM   27  H   UNL     1     -12.334  11.305  65.806  1.00  0.00     0.000 HD 
HETATM   28  N   UNL     1     -11.787  12.130  66.056  1.00  0.00    -0.341 N  
BRANCH  28  29
HETATM   29  C   UNL     1     -12.232  13.434  65.603  1.00  0.00    -0.463 C  
BRANCH  29  30
HETATM   30  C   UNL     1     -11.425  13.883  64.394  1.00  0.00    -0.361 C  
HETATM   31  O   UNL     1     -12.255  14.663  63.530  1.00  0.00    -0.978 OA 
HETATM   32  H   UNL     1     -11.751  14.942  62.775  1.00  0.00     0.000 HD 
ENDBRANCH  29  30
ENDBRANCH  28  29
ENDBRANCH  11  25
ENDBRANCH   3   5
BRANCH   3  33
HETATM   33  C   UNL     1     -11.829   7.592  70.509  1.00  0.00    -0.080 C  
BRANCH  33  34
HETATM   34  C   UNL     1     -12.026   6.881  71.876  1.00  0.00    -0.327 C  
HETATM   35  O   UNL     1     -13.412   6.719  72.212  1.00  0.00    -0.536 OA 
HETATM   36  H   UNL     1     -13.533   6.284  73.048  1.00  0.00     0.000 HD 
BRANCH  34  37
HETATM   37  C   UNL     1     -11.369   5.489  71.915  1.00  0.00    -0.071 C  
HETATM   38  H   UNL     1     -11.103   4.031  73.228  1.00  0.00     0.000 HD 
HETATM   39  O   UNL     1     -11.508   4.890  73.204  1.00  0.00    -0.322 OA 
ENDBRANCH  34  37
ENDBRANCH  33  34
ENDBRANCH   3  33
TORSDOF 11
ENDMDL
MODEL       58
REMARK 921   NORMALIZED FREE ENERGY PREDICTED BY IDOCK:   -4.44 KCAL/MOL
REMARK 922        TOTAL FREE ENERGY PREDICTED BY IDOCK:   -7.90 KCAL/MOL
REMARK 923 INTER-LIGAND FREE ENERGY PREDICTED BY IDOCK:   -7.05 KCAL/MOL
REMARK 924 INTRA-LIGAND FREE ENERGY PREDICTED BY IDOCK:   -0.85 KCAL/MOL
REMARK 927      BINDING AFFINITY PREDICTED BY RF-SCORE:    0.00 PKD
ROOT
HETATM    1  C   UNL     1      -7.659   8.284  72.517  1.00  0.00    -0.159 C  
HETATM    2  C   UNL     1      -7.606   8.127  71.023  1.00  0.00    -0.083 C  
HETATM    3  N   UNL     1      -8.769   7.705  70.372  1.00  0.00    -0.142 N  
HETATM    4  O   UNL     1      -6.568   8.404  70.419  1.00  0.00    -0.035 OA 
ENDROOT
BRANCH   3   5
HETATM    5  C   UNL     1      -8.653   7.546  68.952  1.00  0.00    -0.129 A  
HETATM    6  I   UNL     1      -7.630   7.002  64.122  1.00  0.00    -0.096 I  
HETATM    7  C   UNL     1      -8.300   7.193  66.181  1.00  0.00    -0.133 A  
HETATM    8  C   UNL     1      -8.879   8.630  68.061  1.00  0.00    -0.141 A  
HETATM    9  I   UNL     1      -9.621  10.495  68.875  1.00  0.00    -0.179 I  
HETATM   10  C   UNL     1      -8.368   6.254  68.435  1.00  0.00    -0.115 A  
HETATM   11  C   UNL     1      -8.179   6.069  67.048  1.00  0.00    -0.105 A  
HETATM   12  C   UNL     1      -8.702   8.466  66.665  1.00  0.00    -0.144 A  
HETATM   13  I   UNL     1      -8.299   4.580  69.832  1.00  0.00    -0.093 I  
BRANCH  12  14
HETATM   14  C   UNL     1      -8.847   9.648  65.755  1.00  0.00    -0.157 C  
HETATM   15  N   UNL     1     -10.079   9.858  65.168  1.00  0.00    -0.345 N  
HETATM   16  O   UNL     1      -7.886  10.380  65.545  1.00  0.00    -0.148 OA 
HETATM   17  H   UNL     1     -10.842   9.211  65.371  1.00  0.00     0.000 HD 
BRANCH  15  18
HETATM   18  C   UNL     1     -10.317  10.982  64.266  1.00  0.00    -0.364 C  
BRANCH  18  19
HETATM   19  C   UNL     1     -10.522  12.302  65.024  1.00  0.00    -0.290 C  
HETATM   20  H   UNL     1     -10.559  14.215  64.569  1.00  0.00     0.000 HD 
HETATM   21  O   UNL     1     -10.432  13.398  64.100  1.00  0.00    -0.393 OA 
BRANCH  19  22
HETATM   22  C   UNL     1     -11.872  12.328  65.762  1.00  0.00    -0.352 C  
HETATM   23  O   UNL     1     -12.957  12.575  64.870  1.00  0.00    -0.821 OA 
HETATM   24  H   UNL     1     -13.790  12.591  65.325  1.00  0.00     0.000 HD 
ENDBRANCH  19  22
ENDBRANCH  18  19
ENDBRANCH  15  18
ENDBRANCH  12  14
BRANCH  11  25
HETATM   25  C   UNL     1      -7.949   4.714  66.479  1.00  0.00    -0.103 C  
HETATM   26  O   UNL     1      -6.800   4.313  66.314  1.00  0.00    -0.052 OA 
HETATM   27  H   UNL     1      -9.990   4.334  66.334  1.00  0.00     0.000 HD 
HETATM   28  N   UNL     1      -9.060   3.961  66.140  1.00  0.00    -0.138 N  
BRANCH  28  29
HETATM   29  C   UNL     1      -8.940   2.656  65.516  1.00  0.00    -0.135 C  
BRANCH  29  30
HETATM   30  C   UNL     1      -8.838   1.567  66.575  1.00  0.00    -0.114 C  
HETATM   31  O   UNL     1      -9.766   1.839  67.627  1.00  0.00    -0.409 OA 
HETATM   32  H   UNL     1      -9.703   1.159  68.287  1.00  0.00     0.000 HD 
ENDBRANCH  29  30
ENDBRANCH  28  29
ENDBRANCH  11  25
ENDBRANCH   3   5
BRANCH   3  33
HETATM   33  C   UNL     1     -10.015   7.233  71.041  1.00  0.00    -0.187 C  
BRANCH  33  34
HETATM   34  C   UNL     1     -11.364   7.604  70.367  1.00  0.00    -0.219 C  
HETATM   35  O   UNL     1     -11.942   6.499  69.657  1.00  0.00    -0.618 OA 
HETATM   36  H   UNL     1     -12.768   6.726  69.245  1.00  0.00     0.000 HD 
BRANCH  34  37
HETATM   37  C   UNL     1     -12.409   8.107  71.381  1.00  0.00    -0.298 C  
HETATM   38  H   UNL     1     -12.652   9.661  72.585  1.00  0.00     0.000 HD 
HETATM   39  O   UNL     1     -12.008   9.351  71.959  1.00  0.00    -0.355 OA 
ENDBRANCH  34  37
ENDBRANCH  33  34
ENDBRANCH   3  33
TORSDOF 11
ENDMDL
MODEL       59
REMARK 921   NORMALIZED FREE ENERGY PREDICTED BY IDOCK:   -4.43 KCAL/MOL
REMARK 922        TOTAL FREE ENERGY PREDICTED BY IDOCK:   -7.89 KCAL/MOL
REMARK 923 INTER-LIGAND FREE ENERGY PREDICTED BY IDOCK:   -7.00 KCAL/MOL
REMARK 924 INTRA-LIGAND FREE ENERGY PREDICTED BY IDOCK:   -0.90 KCAL/MOL
REMARK 927      BINDING AFFINITY PREDICTED BY RF-SCORE:    0.00 PKD
ROOT
HETATM    1  C   UNL     1      -7.638   7.085  65.801  1.00  0.00    -0.094 C  
HETATM    2  C   UNL     1      -8.390   8.287  66.304  1.00  0.00    -0.124 C  
HETATM    3  N   UNL     1      -8.008   8.824  67.536  1.00  0.00    -0.102 N  
HETATM    4  O   UNL     1      -9.283   8.779  65.610  1.00  0.00    -0.217 OA 
ENDROOT
BRANCH   3   5
HETATM    5  C   UNL     1      -8.777   9.951  67.978  1.00  0.00    -0.125 A  
HETATM    6  I   UNL     1     -11.810  13.746  69.015  1.00  0.00    -0.340 I  
HETATM    7  C   UNL     1     -10.386  12.120  68.772  1.00  0.00    -0.147 A  
HETATM    8  C   UNL     1      -8.326  11.283  67.776  1.00  0.00    -0.125 A  
HETATM    9  I   UNL     1      -6.338  11.588  66.973  1.00  0.00    -0.096 I  
HETATM   10  C   UNL     1      -9.982   9.713  68.691  1.00  0.00    -0.165 A  
HETATM   11  C   UNL     1     -10.802  10.794  69.083  1.00  0.00    -0.281 A  
HETATM   12  C   UNL     1      -9.129  12.384  68.168  1.00  0.00    -0.200 A  
HETATM   13  I   UNL     1     -10.482   7.653  69.206  1.00  0.00    -0.135 I  
BRANCH  12  14
HETATM   14  C   UNL     1      -8.680  13.778  67.852  1.00  0.00    -0.183 C  
HETATM   15  N   UNL     1      -9.021  14.297  66.618  1.00  0.00    -0.408 N  
HETATM   16  O   UNL     1      -8.023  14.411  68.672  1.00  0.00    -0.137 OA 
HETATM   17  H   UNL     1      -9.561  13.724  65.970  1.00  0.00     0.000 HD 
BRANCH  15  18
HETATM   18  C   UNL     1      -8.627  15.647  66.219  1.00  0.00    -0.230 C  
BRANCH  18  19
HETATM   19  C   UNL     1      -9.838  16.575  66.038  1.00  0.00    -0.322 C  
HETATM   20  H   UNL     1     -10.126  18.483  65.660  1.00  0.00     0.000 HD 
HETATM   21  O   UNL     1      -9.377  17.909  65.772  1.00  0.00    -0.507 OA 
BRANCH  19  22
HETATM   22  C   UNL     1     -10.761  16.088  64.908  1.00  0.00    -0.316 C  
HETATM   23  O   UNL     1     -11.528  14.952  65.304  1.00  0.00    -0.347 OA 
HETATM   24  H   UNL     1     -12.098  14.652  64.606  1.00  0.00     0.000 HD 
ENDBRANCH  19  22
ENDBRANCH  18  19
ENDBRANCH  15  18
ENDBRANCH  12  14
BRANCH  11  25
HETATM   25  C   UNL     1     -12.032  10.571  69.890  1.00  0.00    -0.264 C  
HETATM   26  O   UNL     1     -13.128  10.577  69.337  1.00  0.00     0.126 OA 
HETATM   27  H   UNL     1     -10.942  10.350  71.649  1.00  0.00     0.000 HD 
HETATM   28  N   UNL     1     -11.882  10.380  71.253  1.00  0.00    -0.332 N  
BRANCH  28  29
HETATM   29  C   UNL     1     -13.024  10.223  72.134  1.00  0.00    -0.311 C  
BRANCH  29  30
HETATM   30  C   UNL     1     -13.343   8.749  72.335  1.00  0.00    -0.399 C  
HETATM   31  O   UNL     1     -12.241   8.108  72.981  1.00  0.00    -0.655 OA 
HETATM   32  H   UNL     1     -12.440   7.187  73.106  1.00  0.00     0.000 HD 
ENDBRANCH  29  30
ENDBRANCH  28  29
ENDBRANCH  11  25
ENDBRANCH   3   5
BRANCH   3  33
HETATM   33  C   UNL     1      -7.032   8.214  68.483  1.00  0.00    -0.072 C  
BRANCH  33  34
HETATM   34  C   UNL     1      -7.045   8.734  69.947  1.00  0.00    -0.051 C  
HETATM   35  O   UNL     1      -7.103   7.668  70.906  1.00  0.00    -0.053 OA 
HETATM   36  H   UNL     1      -7.111   7.986  71.801  1.00  0.00     0.000 HD 
BRANCH  34  37
HETATM   37  C   UNL     1      -5.810   9.593  70.276  1.00  0.00    -0.051 C  
HETATM   38  H   UNL     1      -5.431  11.424  70.930  1.00  0.00     0.000 HD 
HETATM   39  O   UNL     1      -6.193  10.894  70.727  1.00  0.00    -0.333 OA 
ENDBRANCH  34  37
ENDBRANCH  33  34
ENDBRANCH   3  33
TORSDOF 11
ENDMDL
MODEL       60
REMARK 921   NORMALIZED FREE ENERGY PREDICTED BY IDOCK:   -4.40 KCAL/MOL
REMARK 922        TOTAL FREE ENERGY PREDICTED BY IDOCK:   -7.84 KCAL/MOL
REMARK 923 INTER-LIGAND FREE ENERGY PREDICTED BY IDOCK:   -7.19 KCAL/MOL
REMARK 924 INTRA-LIGAND FREE ENERGY PREDICTED BY IDOCK:   -0.65 KCAL/MOL
REMARK 927      BINDING AFFINITY PREDICTED BY RF-SCORE:    0.00 PKD
ROOT
HETATM    1  C   UNL     1      -9.709  14.204  65.884  1.00  0.00    -0.267 C  
HETATM    2  C   UNL     1      -9.282  12.943  66.582  1.00  0.00    -0.221 C  
HETATM    3  N   UNL     1     -10.003  11.775  66.317  1.00  0.00    -0.213 N  
HETATM    4  O   UNL     1      -8.301  12.964  67.330  1.00  0.00    -0.178 OA 
ENDROOT
BRANCH   3   5
HETATM    5  C   UNL     1      -9.569  10.611  67.030  1.00  0.00    -0.169 A  
HETATM    6  I   UNL     1      -7.712   6.964  69.846  1.00  0.00    -0.114 I  
HETATM    7  C   UNL     1      -8.676   8.402  68.530  1.00  0.00    -0.136 A  
HETATM    8  C   UNL     1      -8.628   9.704  66.472  1.00  0.00    -0.127 A  
HETATM    9  I   UNL     1      -8.014   9.994  64.415  1.00  0.00    -0.112 I  
HETATM   10  C   UNL     1     -10.150  10.335  68.296  1.00  0.00    -0.154 A  
HETATM   11  C   UNL     1      -9.701   9.236  69.062  1.00  0.00    -0.162 A  
HETATM   12  C   UNL     1      -8.168   8.591  67.218  1.00  0.00    -0.108 A  
HETATM   13  I   UNL     1     -11.782  11.613  68.979  1.00  0.00    -0.361 I  
BRANCH  12  14
HETATM   14  C   UNL     1      -7.101   7.706  66.649  1.00  0.00    -0.079 C  
HETATM   15  N   UNL     1      -7.503   6.583  65.952  1.00  0.00    -0.079 N  
HETATM   16  O   UNL     1      -5.919   7.985  66.820  1.00  0.00    -0.049 OA 
HETATM   17  H   UNL     1      -8.500   6.394  65.848  1.00  0.00     0.000 HD 
BRANCH  15  18
HETATM   18  C   UNL     1      -6.536   5.660  65.362  1.00  0.00    -0.040 C  
BRANCH  18  19
HETATM   19  C   UNL     1      -6.735   5.502  63.847  1.00  0.00    -0.037 C  
HETATM   20  H   UNL     1      -8.228   5.678  62.580  1.00  0.00     0.000 HD 
HETATM   21  O   UNL     1      -8.105   5.776  63.517  1.00  0.00    -0.116 OA 
BRANCH  19  22
HETATM   22  C   UNL     1      -5.794   6.424  63.052  1.00  0.00    -0.026 C  
HETATM   23  O   UNL     1      -5.276   7.476  63.865  1.00  0.00    -0.029 OA 
HETATM   24  H   UNL     1      -4.695   8.045  63.374  1.00  0.00     0.000 HD 
ENDBRANCH  19  22
ENDBRANCH  18  19
ENDBRANCH  15  18
ENDBRANCH  12  14
BRANCH  11  25
HETATM   25  C   UNL     1     -10.344   8.889  70.358  1.00  0.00    -0.204 C  
HETATM   26  O   UNL     1      -9.954   9.427  71.390  1.00  0.00    -0.286 OA 
HETATM   27  H   UNL     1     -11.662   7.561  69.448  1.00  0.00     0.000 HD 
HETATM   28  N   UNL     1     -11.358   7.946  70.342  1.00  0.00    -0.238 N  
BRANCH  28  29
HETATM   29  C   UNL     1     -11.999   7.492  71.561  1.00  0.00    -0.307 C  
BRANCH  29  30
HETATM   30  C   UNL     1     -11.417   6.157  72.003  1.00  0.00    -0.313 C  
HETATM   31  O   UNL     1     -12.287   5.554  72.964  1.00  0.00    -0.504 OA 
HETATM   32  H   UNL     1     -11.924   4.721  73.240  1.00  0.00     0.000 HD 
ENDBRANCH  29  30
ENDBRANCH  28  29
ENDBRANCH  11  25
ENDBRANCH   3   5
BRANCH   3  33
HETATM   33  C   UNL     1     -11.268  11.698  65.530  1.00  0.00    -0.205 C  
BRANCH  33  34
HETATM   34  C   UNL     1     -11.190  12.082  64.027  1.00  0.00    -0.397 C  
HETATM   35  O   UNL     1     -10.866  10.961  63.192  1.00  0.00    -0.733 OA 
HETATM   36  H   UNL     1     -10.819  11.196  62.273  1.00  0.00     0.000 HD 
BRANCH  34  37
HETATM   37  C   UNL     1     -12.507  12.688  63.507  1.00  0.00    -0.418 C  
HETATM   38  H   UNL     1     -13.370  14.469  63.426  1.00  0.00     0.000 HD 
HETATM   39  O   UNL     1     -12.557  14.095  63.747  1.00  0.00    -0.804 OA 
ENDBRANCH  34  37
ENDBRANCH  33  34
ENDBRANCH   3  33
TORSDOF 11
ENDMDL
MODEL       61
REMARK 921   NORMALIZED FREE ENERGY PREDICTED BY IDOCK:   -4.38 KCAL/MOL
REMARK 922        TOTAL FREE ENERGY PREDICTED BY IDOCK:   -7.81 KCAL/MOL
REMARK 923 INTER-LIGAND FREE ENERGY PREDICTED BY IDOCK:   -7.58 KCAL/MOL
REMARK 924 INTRA-LIGAND FREE ENERGY PREDICTED BY IDOCK:   -0.23 KCAL/MOL
REMARK 927      BINDING AFFINITY PREDICTED BY RF-SCORE:    0.00 PKD
ROOT
HETATM    1  C   UNL     1      -6.520  17.779  66.094  1.00  0.00    -0.295 C  
HETATM    2  C   UNL     1      -7.470  16.696  66.524  1.00  0.00    -0.271 C  
HETATM    3  N   UNL     1      -7.240  16.081  67.757  1.00  0.00    -0.132 N  
HETATM    4  O   UNL     1      -8.430  16.409  65.805  1.00  0.00    -0.346 OA 
ENDROOT
BRANCH   3   5
HETATM    5  C   UNL     1      -8.160  15.037  68.103  1.00  0.00    -0.131 A  
HETATM    6  I   UNL     1     -11.406  11.322  68.682  1.00  0.00    -0.429 I  
HETATM    7  C   UNL     1      -9.950  12.936  68.659  1.00  0.00    -0.092 A  
HETATM    8  C   UNL     1      -9.485  15.324  68.529  1.00  0.00    -0.200 A  
HETATM    9  I   UNL     1     -10.035  17.392  68.860  1.00  0.00    -0.159 I  
HETATM   10  C   UNL     1      -7.702  13.693  68.076  1.00  0.00    -0.143 A  
HETATM   11  C   UNL     1      -8.595  12.631  68.343  1.00  0.00    -0.122 A  
HETATM   12  C   UNL     1     -10.396  14.275  68.809  1.00  0.00    -0.239 A  
HETATM   13  I   UNL     1      -5.587  13.335  67.677  1.00  0.00     0.184 I  
BRANCH  12  14
HETATM   14  C   UNL     1     -11.817  14.601  69.157  1.00  0.00    -0.312 C  
HETATM   15  N   UNL     1     -12.135  14.731  70.495  1.00  0.00    -0.293 N  
HETATM   16  O   UNL     1     -12.652  14.730  68.268  1.00  0.00     0.159 OA 
HETATM   17  H   UNL     1     -11.403  14.605  71.194  1.00  0.00     0.000 HD 
BRANCH  15  18
HETATM   18  C   UNL     1     -13.492  15.046  70.933  1.00  0.00    -0.349 C  
BRANCH  18  19
HETATM   19  C   UNL     1     -13.683  14.821  72.441  1.00  0.00    -0.471 C  
HETATM   20  H   UNL     1     -13.849  13.272  73.640  1.00  0.00     0.000 HD 
HETATM   21  O   UNL     1     -13.731  13.411  72.708  1.00  0.00    -0.697 OA 
BRANCH  19  22
HETATM   22  C   UNL     1     -12.563  15.487  73.259  1.00  0.00    -0.499 C  
HETATM   23  O   UNL     1     -12.272  14.756  74.449  1.00  0.00    -0.694 OA 
HETATM   24  H   UNL     1     -11.581  15.167  74.954  1.00  0.00     0.000 HD 
ENDBRANCH  19  22
ENDBRANCH  18  19
ENDBRANCH  15  18
ENDBRANCH  12  14
BRANCH  11  25
HETATM   25  C   UNL     1      -8.120  11.222  68.388  1.00  0.00    -0.143 C  
HETATM   26  O   UNL     1      -8.102  10.556  67.357  1.00  0.00    -0.110 OA 
HETATM   27  H   UNL     1      -7.734  11.326  70.430  1.00  0.00     0.000 HD 
HETATM   28  N   UNL     1      -7.731  10.713  69.615  1.00  0.00    -0.119 N  
BRANCH  28  29
HETATM   29  C   UNL     1      -7.318   9.331  69.774  1.00  0.00    -0.072 C  
BRANCH  29  30
HETATM   30  C   UNL     1      -8.378   8.542  70.530  1.00  0.00    -0.135 C  
HETATM   31  O   UNL     1      -8.430   8.994  71.885  1.00  0.00    -0.363 OA 
HETATM   32  H   UNL     1      -9.091   8.502  72.357  1.00  0.00     0.000 HD 
ENDBRANCH  29  30
ENDBRANCH  28  29
ENDBRANCH  11  25
ENDBRANCH   3   5
BRANCH   3  33
HETATM   33  C   UNL     1      -6.038  16.283  68.617  1.00  0.00    -0.117 C  
BRANCH  33  34
HETATM   34  C   UNL     1      -6.181  17.264  69.813  1.00  0.00    -0.199 C  
HETATM   35  O   UNL     1      -5.346  16.898  70.922  1.00  0.00    -0.204 OA 
HETATM   36  H   UNL     1      -5.433  17.498  71.653  1.00  0.00     0.000 HD 
BRANCH  34  37
HETATM   37  C   UNL     1      -5.838  18.714  69.428  1.00  0.00    -0.243 C  
HETATM   38  H   UNL     1      -6.811  20.394  69.032  1.00  0.00     0.000 HD 
HETATM   39  O   UNL     1      -7.023  19.499  69.270  1.00  0.00    -0.344 OA 
ENDBRANCH  34  37
ENDBRANCH  33  34
ENDBRANCH   3  33
TORSDOF 11
ENDMDL
MODEL       62
REMARK 921   NORMALIZED FREE ENERGY PREDICTED BY IDOCK:   -4.37 KCAL/MOL
REMARK 922        TOTAL FREE ENERGY PREDICTED BY IDOCK:   -7.79 KCAL/MOL
REMARK 923 INTER-LIGAND FREE ENERGY PREDICTED BY IDOCK:   -7.00 KCAL/MOL
REMARK 924 INTRA-LIGAND FREE ENERGY PREDICTED BY IDOCK:   -0.79 KCAL/MOL
REMARK 927      BINDING AFFINITY PREDICTED BY RF-SCORE:    0.00 PKD
ROOT
HETATM    1  C   UNL     1     -10.911  13.190  66.835  1.00  0.00    -0.278 C  
HETATM    2  C   UNL     1     -10.843  11.699  67.008  1.00  0.00    -0.266 C  
HETATM    3  N   UNL     1      -9.778  11.176  67.747  1.00  0.00    -0.169 N  
HETATM    4  O   UNL     1     -11.735  10.990  66.533  1.00  0.00    -0.134 OA 
ENDROOT
BRANCH   3   5
HETATM    5  C   UNL     1      -9.749   9.747  67.856  1.00  0.00    -0.144 A  
HETATM    6  I   UNL     1      -9.189   4.877  68.652  1.00  0.00    -0.206 I  
HETATM    7  C   UNL     1      -9.628   6.954  68.185  1.00  0.00    -0.124 A  
HETATM    8  C   UNL     1      -9.154   8.937  66.852  1.00  0.00    -0.133 A  
HETATM    9  I   UNL     1      -8.473   9.888  65.029  1.00  0.00    -0.221 I  
HETATM   10  C   UNL     1     -10.392   9.139  68.966  1.00  0.00    -0.215 A  
HETATM   11  C   UNL     1     -10.327   7.739  69.146  1.00  0.00    -0.219 A  
HETATM   12  C   UNL     1      -9.084   7.530  67.007  1.00  0.00    -0.156 A  
HETATM   13  I   UNL     1     -11.519  10.416  70.329  1.00  0.00    -0.420 I  
BRANCH  12  14
HETATM   14  C   UNL     1      -8.361   6.706  65.985  1.00  0.00    -0.134 C  
HETATM   15  N   UNL     1      -9.120   6.062  65.028  1.00  0.00    -0.350 N  
HETATM   16  O   UNL     1      -7.139   6.613  66.027  1.00  0.00    -0.060 OA 
HETATM   17  H   UNL     1     -10.135   6.166  65.046  1.00  0.00     0.000 HD 
BRANCH  15  18
HETATM   18  C   UNL     1      -8.507   5.235  63.991  1.00  0.00    -0.102 C  
BRANCH  18  19
HETATM   19  C   UNL     1      -9.491   4.210  63.407  1.00  0.00    -0.139 C  
HETATM   20  H   UNL     1      -9.364   2.541  62.376  1.00  0.00     0.000 HD 
HETATM   21  O   UNL     1      -8.756   3.174  62.738  1.00  0.00    -0.081 OA 
BRANCH  19  22
HETATM   22  C   UNL     1     -10.398   3.611  64.496  1.00  0.00    -0.157 C  
HETATM   23  O   UNL     1     -11.530   4.439  64.756  1.00  0.00    -1.011 OA 
HETATM   24  H   UNL     1     -12.089   4.069  65.428  1.00  0.00     0.000 HD 
ENDBRANCH  19  22
ENDBRANCH  18  19
ENDBRANCH  15  18
ENDBRANCH  12  14
BRANCH  11  25
HETATM   25  C   UNL     1     -11.051   7.074  70.263  1.00  0.00    -0.285 C  
HETATM   26  O   UNL     1     -12.151   6.570  70.057  1.00  0.00    -0.282 OA 
HETATM   27  H   UNL     1      -9.516   7.474  71.610  1.00  0.00     0.000 HD 
HETATM   28  N   UNL     1     -10.447   7.070  71.509  1.00  0.00    -0.204 N  
BRANCH  28  29
HETATM   29  C   UNL     1     -11.102   6.508  72.675  1.00  0.00    -0.257 C  
BRANCH  29  30
HETATM   30  C   UNL     1     -10.218   5.454  73.327  1.00  0.00    -0.192 C  
HETATM   31  O   UNL     1     -10.987   4.709  74.274  1.00  0.00    -0.314 OA 
HETATM   32  H   UNL     1     -10.435   4.052  74.681  1.00  0.00     0.000 HD 
ENDBRANCH  29  30
ENDBRANCH  28  29
ENDBRANCH  11  25
ENDBRANCH   3   5
BRANCH   3  33
HETATM   33  C   UNL     1      -8.603  11.951  68.240  1.00  0.00    -0.162 C  
BRANCH  33  34
HETATM   34  C   UNL     1      -7.271  11.174  68.426  1.00  0.00    -0.083 C  
HETATM   35  O   UNL     1      -6.123  11.977  68.114  1.00  0.00    -0.050 OA 
HETATM   36  H   UNL     1      -5.308  11.502  68.228  1.00  0.00     0.000 HD 
BRANCH  34  37
HETATM   37  C   UNL     1      -7.095  10.643  69.860  1.00  0.00    -0.129 C  
HETATM   38  H   UNL     1      -6.163  11.188  71.521  1.00  0.00     0.000 HD 
HETATM   39  O   UNL     1      -6.271  11.516  70.636  1.00  0.00    -0.322 OA 
ENDBRANCH  34  37
ENDBRANCH  33  34
ENDBRANCH   3  33
TORSDOF 11
ENDMDL
MODEL       63
REMARK 921   NORMALIZED FREE ENERGY PREDICTED BY IDOCK:   -4.37 KCAL/MOL
REMARK 922        TOTAL FREE ENERGY PREDICTED BY IDOCK:   -7.79 KCAL/MOL
REMARK 923 INTER-LIGAND FREE ENERGY PREDICTED BY IDOCK:   -6.79 KCAL/MOL
REMARK 924 INTRA-LIGAND FREE ENERGY PREDICTED BY IDOCK:   -1.00 KCAL/MOL
REMARK 927      BINDING AFFINITY PREDICTED BY RF-SCORE:    0.00 PKD
ROOT
HETATM    1  C   UNL     1      -6.751  11.872  69.253  1.00  0.00    -0.099 C  
HETATM    2  C   UNL     1      -7.058  10.424  68.988  1.00  0.00    -0.076 C  
HETATM    3  N   UNL     1      -8.347  10.101  68.555  1.00  0.00    -0.112 N  
HETATM    4  O   UNL     1      -6.169   9.580  69.122  1.00  0.00    -0.041 OA 
ENDROOT
BRANCH   3   5
HETATM    5  C   UNL     1      -8.591   8.704  68.344  1.00  0.00    -0.135 A  
HETATM    6  I   UNL     1      -8.945   3.762  67.991  1.00  0.00    -0.221 I  
HETATM    7  C   UNL     1      -8.998   5.936  68.038  1.00  0.00    -0.118 A  
HETATM    8  C   UNL     1      -8.224   8.060  67.132  1.00  0.00    -0.117 A  
HETATM    9  I   UNL     1      -7.477   9.277  65.503  1.00  0.00    -0.097 I  
HETATM   10  C   UNL     1      -9.274   7.975  69.353  1.00  0.00    -0.152 A  
HETATM   11  C   UNL     1      -9.474   6.584  69.214  1.00  0.00    -0.141 A  
HETATM   12  C   UNL     1      -8.420   6.667  66.967  1.00  0.00    -0.113 A  
HETATM   13  I   UNL     1     -10.051   9.075  71.070  1.00  0.00    -0.378 I  
BRANCH  12  14
HETATM   14  C   UNL     1      -7.932   5.991  65.721  1.00  0.00    -0.113 C  
HETATM   15  N   UNL     1      -8.859   5.721  64.733  1.00  0.00    -0.363 N  
HETATM   16  O   UNL     1      -6.749   5.687  65.612  1.00  0.00    -0.043 OA 
HETATM   17  H   UNL     1      -9.833   5.987  64.880  1.00  0.00     0.000 HD 
BRANCH  15  18
HETATM   18  C   UNL     1      -8.480   5.065  63.484  1.00  0.00    -0.127 C  
BRANCH  18  19
HETATM   19  C   UNL     1      -9.222   3.736  63.277  1.00  0.00    -0.108 C  
HETATM   20  H   UNL     1      -8.872   1.837  63.646  1.00  0.00     0.000 HD 
HETATM   21  O   UNL     1      -8.413   2.658  63.774  1.00  0.00    -0.085 OA 
BRANCH  19  22
HETATM   22  C   UNL     1     -10.597   3.741  63.969  1.00  0.00    -0.262 C  
HETATM   23  O   UNL     1     -11.379   2.608  63.598  1.00  0.00    -0.565 OA 
HETATM   24  H   UNL     1     -12.227   2.611  64.025  1.00  0.00     0.000 HD 
ENDBRANCH  19  22
ENDBRANCH  18  19
ENDBRANCH  15  18
ENDBRANCH  12  14
BRANCH  11  25
HETATM   25  C   UNL     1     -10.247   5.814  70.225  1.00  0.00    -0.230 C  
HETATM   26  O   UNL     1     -11.454   5.653  70.070  1.00  0.00    -0.031 OA 
HETATM   27  H   UNL     1      -8.551   5.457  71.377  1.00  0.00     0.000 HD 
HETATM   28  N   UNL     1      -9.561   5.321  71.322  1.00  0.00    -0.154 N  
BRANCH  28  29
HETATM   29  C   UNL     1     -10.238   4.617  72.395  1.00  0.00    -0.189 C  
BRANCH  29  30
HETATM   30  C   UNL     1     -10.778   5.603  73.421  1.00  0.00    -0.278 C  
HETATM   31  O   UNL     1     -12.001   6.166  72.940  1.00  0.00    -0.496 OA 
HETATM   32  H   UNL     1     -12.338   6.781  73.581  1.00  0.00     0.000 HD 
ENDBRANCH  29  30
ENDBRANCH  28  29
ENDBRANCH  11  25
ENDBRANCH   3   5
BRANCH   3  33
HETATM   33  C   UNL     1      -9.502  11.043  68.492  1.00  0.00    -0.188 C  
BRANCH  33  34
HETATM   34  C   UNL     1     -10.586  10.761  67.415  1.00  0.00    -0.242 C  
HETATM   35  O   UNL     1     -11.896  10.623  67.983  1.00  0.00    -0.755 OA 
HETATM   36  H   UNL     1     -12.560  10.451  67.325  1.00  0.00     0.000 HD 
BRANCH  34  37
HETATM   37  C   UNL     1     -10.653  11.867  66.346  1.00  0.00    -0.248 C  
HETATM   38  H   UNL     1     -12.017  12.678  65.161  1.00  0.00     0.000 HD 
HETATM   39  O   UNL     1     -11.976  11.996  65.821  1.00  0.00    -0.514 OA 
ENDBRANCH  34  37
ENDBRANCH  33  34
ENDBRANCH   3  33
TORSDOF 11
ENDMDL
MODEL       64
REMARK 921   NORMALIZED FREE ENERGY PREDICTED BY IDOCK:   -4.36 KCAL/MOL
REMARK 922        TOTAL FREE ENERGY PREDICTED BY IDOCK:   -7.77 KCAL/MOL
REMARK 923 INTER-LIGAND FREE ENERGY PREDICTED BY IDOCK:   -9.35 KCAL/MOL
REMARK 924 INTRA-LIGAND FREE ENERGY PREDICTED BY IDOCK:    1.58 KCAL/MOL
REMARK 927      BINDING AFFINITY PREDICTED BY RF-SCORE:    0.00 PKD
ROOT
HETATM    1  C   UNL     1      -8.345   8.016  73.074  1.00  0.00    -0.243 C  
HETATM    2  C   UNL     1      -8.477   8.437  71.637  1.00  0.00    -0.163 C  
HETATM    3  N   UNL     1      -9.420   7.771  70.848  1.00  0.00    -0.160 N  
HETATM    4  O   UNL     1      -7.789   9.366  71.209  1.00  0.00    -0.335 OA 
ENDROOT
BRANCH   3   5
HETATM    5  C   UNL     1      -9.484   8.195  69.480  1.00  0.00    -0.156 A  
HETATM    6  I   UNL     1      -9.135   9.910  64.832  1.00  0.00    -0.318 I  
HETATM    7  C   UNL     1      -9.478   9.043  66.795  1.00  0.00    -0.182 A  
HETATM    8  C   UNL     1     -10.274   9.307  69.082  1.00  0.00    -0.206 A  
HETATM    9  I   UNL     1     -11.565  10.233  70.554  1.00  0.00    -0.440 I  
HETATM   10  C   UNL     1      -8.788   7.437  68.502  1.00  0.00    -0.126 A  
HETATM   11  C   UNL     1      -8.769   7.860  67.154  1.00  0.00    -0.133 A  
HETATM   12  C   UNL     1     -10.277   9.746  67.735  1.00  0.00    -0.254 A  
HETATM   13  I   UNL     1      -7.816   5.588  69.133  1.00  0.00    -0.093 I  
BRANCH  12  14
HETATM   14  C   UNL     1     -11.036  10.981  67.359  1.00  0.00    -0.305 C  
HETATM   15  N   UNL     1     -10.441  11.853  66.467  1.00  0.00    -0.216 N  
HETATM   16  O   UNL     1     -12.140  11.195  67.849  1.00  0.00    -0.627 OA 
HETATM   17  H   UNL     1      -9.517  11.631  66.097  1.00  0.00     0.000 HD 
BRANCH  15  18
HETATM   18  C   UNL     1     -11.103  13.084  66.041  1.00  0.00    -0.278 C  
BRANCH  18  19
HETATM   19  C   UNL     1     -12.284  12.813  65.097  1.00  0.00    -0.477 C  
HETATM   20  H   UNL     1     -13.972  13.708  64.633  1.00  0.00     0.000 HD 
HETATM   21  O   UNL     1     -13.242  13.876  65.217  1.00  0.00    -0.774 OA 
BRANCH  19  22
HETATM   22  C   UNL     1     -11.820  12.668  63.637  1.00  0.00    -0.530 C  
HETATM   23  O   UNL     1     -12.332  11.481  63.035  1.00  0.00    -0.975 OA 
HETATM   24  H   UNL     1     -12.045  11.391  62.134  1.00  0.00     0.000 HD 
ENDBRANCH  19  22
ENDBRANCH  18  19
ENDBRANCH  15  18
ENDBRANCH  12  14
BRANCH  11  25
HETATM   25  C   UNL     1      -8.105   7.044  66.102  1.00  0.00    -0.119 C  
HETATM   26  O   UNL     1      -6.937   7.275  65.805  1.00  0.00    -0.058 OA 
HETATM   27  H   UNL     1      -9.809   5.887  65.803  1.00  0.00     0.000 HD 
HETATM   28  N   UNL     1      -8.854   6.055  65.486  1.00  0.00    -0.119 N  
BRANCH  28  29
HETATM   29  C   UNL     1      -8.318   5.252  64.403  1.00  0.00    -0.137 C  
BRANCH  29  30
HETATM   30  C   UNL     1      -9.382   4.308  63.863  1.00  0.00    -0.138 C  
HETATM   31  O   UNL     1     -10.594   4.486  64.599  1.00  0.00    -0.463 OA 
HETATM   32  H   UNL     1     -11.258   3.897  64.262  1.00  0.00     0.000 HD 
ENDBRANCH  29  30
ENDBRANCH  28  29
ENDBRANCH  11  25
ENDBRANCH   3   5
BRANCH   3  33
HETATM   33  C   UNL     1     -10.193   6.563  71.256  1.00  0.00    -0.198 C  
BRANCH  33  34
HETATM   34  C   UNL     1     -11.146   6.711  72.474  1.00  0.00    -0.261 C  
HETATM   35  O   UNL     1     -12.526   6.765  72.084  1.00  0.00    -0.489 OA 
HETATM   36  H   UNL     1     -13.109   6.855  72.829  1.00  0.00     0.000 HD 
BRANCH  34  37
HETATM   37  C   UNL     1     -10.990   5.560  73.484  1.00  0.00    -0.240 C  
HETATM   38  H   UNL     1      -9.979   3.862  73.628  1.00  0.00     0.000 HD 
HETATM   39  O   UNL     1     -10.075   4.573  73.004  1.00  0.00    -0.142 OA 
ENDBRANCH  34  37
ENDBRANCH  33  34
ENDBRANCH   3  33
TORSDOF 11
ENDMDL
MODEL       65
REMARK 921   NORMALIZED FREE ENERGY PREDICTED BY IDOCK:   -4.36 KCAL/MOL
REMARK 922        TOTAL FREE ENERGY PREDICTED BY IDOCK:   -7.77 KCAL/MOL
REMARK 923 INTER-LIGAND FREE ENERGY PREDICTED BY IDOCK:   -7.04 KCAL/MOL
REMARK 924 INTRA-LIGAND FREE ENERGY PREDICTED BY IDOCK:   -0.73 KCAL/MOL
REMARK 927      BINDING AFFINITY PREDICTED BY RF-SCORE:    0.00 PKD
ROOT
HETATM    1  C   UNL     1      -5.994   5.160  64.929  1.00  0.00    -0.022 C  
HETATM    2  C   UNL     1      -6.686   6.322  65.585  1.00  0.00    -0.048 C  
HETATM    3  N   UNL     1      -8.083   6.350  65.553  1.00  0.00    -0.123 N  
HETATM    4  O   UNL     1      -6.016   7.186  66.155  1.00  0.00    -0.034 OA 
ENDROOT
BRANCH   3   5
HETATM    5  C   UNL     1      -8.688   7.494  66.169  1.00  0.00    -0.156 A  
HETATM    6  I   UNL     1     -10.207  11.702  68.327  1.00  0.00    -0.238 I  
HETATM    7  C   UNL     1      -9.768   9.811  67.349  1.00  0.00    -0.163 A  
HETATM    8  C   UNL     1      -9.099   7.476  67.530  1.00  0.00    -0.125 A  
HETATM    9  I   UNL     1      -8.994   5.603  68.612  1.00  0.00    -0.133 I  
HETATM   10  C   UNL     1      -8.935   8.643  65.372  1.00  0.00    -0.130 A  
HETATM   11  C   UNL     1      -9.467   9.814  65.957  1.00  0.00    -0.269 A  
HETATM   12  C   UNL     1      -9.641   8.636  68.136  1.00  0.00    -0.162 A  
HETATM   13  I   UNL     1      -8.532   8.515  63.232  1.00  0.00     0.266 I  
BRANCH  12  14
HETATM   14  C   UNL     1      -9.972   8.624  69.597  1.00  0.00    -0.191 C  
HETATM   15  N   UNL     1     -11.281   8.370  69.956  1.00  0.00    -0.435 N  
HETATM   16  O   UNL     1      -9.095   8.847  70.426  1.00  0.00    -0.160 OA 
HETATM   17  H   UNL     1     -11.973   8.200  69.225  1.00  0.00     0.000 HD 
BRANCH  15  18
HETATM   18  C   UNL     1     -11.701   8.338  71.355  1.00  0.00    -0.287 C  
BRANCH  18  19
HETATM   19  C   UNL     1     -12.886   9.277  71.628  1.00  0.00    -0.372 C  
HETATM   20  H   UNL     1     -13.529  10.999  70.929  1.00  0.00     0.000 HD 
HETATM   21  O   UNL     1     -12.796  10.419  70.761  1.00  0.00    -0.358 OA 
BRANCH  19  22
HETATM   22  C   UNL     1     -14.233   8.559  71.436  1.00  0.00    -0.302 C  
HETATM   23  O   UNL     1     -14.067   7.274  70.840  1.00  0.00    -0.557 OA 
HETATM   24  H   UNL     1     -14.898   6.831  70.722  1.00  0.00     0.000 HD 
ENDBRANCH  19  22
ENDBRANCH  18  19
ENDBRANCH  15  18
ENDBRANCH  12  14
BRANCH  11  25
HETATM   25  C   UNL     1      -9.798  11.004  65.127  1.00  0.00    -0.268 C  
HETATM   26  O   UNL     1      -8.932  11.844  64.901  1.00  0.00     0.230 OA 
HETATM   27  H   UNL     1     -11.760  10.370  64.846  1.00  0.00     0.000 HD 
HETATM   28  N   UNL     1     -11.095  11.118  64.655  1.00  0.00    -0.170 N  
BRANCH  28  29
HETATM   29  C   UNL     1     -11.533  12.274  63.896  1.00  0.00    -0.435 C  
BRANCH  29  30
HETATM   30  C   UNL     1     -11.839  13.438  64.828  1.00  0.00    -0.380 C  
HETATM   31  O   UNL     1     -13.255  13.567  64.978  1.00  0.00    -0.721 OA 
HETATM   32  H   UNL     1     -13.446  14.293  65.559  1.00  0.00     0.000 HD 
ENDBRANCH  29  30
ENDBRANCH  28  29
ENDBRANCH  11  25
ENDBRANCH   3   5
BRANCH   3  33
HETATM   33  C   UNL     1      -8.951   5.416  64.780  1.00  0.00     0.043 C  
BRANCH  33  34
HETATM   34  C   UNL     1      -9.804   4.404  65.594  1.00  0.00    -0.221 C  
HETATM   35  O   UNL     1     -11.213   4.596  65.400  1.00  0.00    -0.927 OA 
HETATM   36  H   UNL     1     -11.734   3.977  65.898  1.00  0.00     0.000 HD 
BRANCH  34  37
HETATM   37  C   UNL     1      -9.477   2.942  65.239  1.00  0.00    -0.061 C  
HETATM   38  H   UNL     1      -8.788   1.329  66.160  1.00  0.00     0.000 HD 
HETATM   39  O   UNL     1      -8.990   2.231  66.379  1.00  0.00    -0.131 OA 
ENDBRANCH  34  37
ENDBRANCH  33  34
ENDBRANCH   3  33
TORSDOF 11
ENDMDL
MODEL       66
REMARK 921   NORMALIZED FREE ENERGY PREDICTED BY IDOCK:   -4.34 KCAL/MOL
REMARK 922        TOTAL FREE ENERGY PREDICTED BY IDOCK:   -7.74 KCAL/MOL
REMARK 923 INTER-LIGAND FREE ENERGY PREDICTED BY IDOCK:   -7.05 KCAL/MOL
REMARK 924 INTRA-LIGAND FREE ENERGY PREDICTED BY IDOCK:   -0.68 KCAL/MOL
REMARK 927      BINDING AFFINITY PREDICTED BY RF-SCORE:    0.00 PKD
ROOT
HETATM    1  C   UNL     1      -7.523   6.431  72.283  1.00  0.00    -0.093 C  
HETATM    2  C   UNL     1      -7.546   6.838  70.836  1.00  0.00    -0.088 C  
HETATM    3  N   UNL     1      -8.732   6.643  70.123  1.00  0.00    -0.140 N  
HETATM    4  O   UNL     1      -6.546   7.358  70.335  1.00  0.00    -0.045 OA 
ENDROOT
BRANCH   3   5
HETATM    5  C   UNL     1      -8.688   7.023  68.742  1.00  0.00    -0.127 A  
HETATM    6  I   UNL     1      -7.909   8.356  64.020  1.00  0.00    -0.119 I  
HETATM    7  C   UNL     1      -8.473   7.735  66.026  1.00  0.00    -0.139 A  
HETATM    8  C   UNL     1      -9.013   8.342  68.323  1.00  0.00    -0.136 A  
HETATM    9  I   UNL     1      -9.794   9.727  69.793  1.00  0.00    -0.270 I  
HETATM   10  C   UNL     1      -8.373   6.032  67.775  1.00  0.00    -0.112 A  
HETATM   11  C   UNL     1      -8.252   6.381  66.411  1.00  0.00    -0.115 A  
HETATM   12  C   UNL     1      -8.906   8.713  66.959  1.00  0.00    -0.143 A  
HETATM   13  I   UNL     1      -8.149   3.970  68.451  1.00  0.00    -0.088 I  
BRANCH  12  14
HETATM   14  C   UNL     1      -9.155  10.135  66.556  1.00  0.00    -0.144 C  
HETATM   15  N   UNL     1     -10.385  10.438  66.006  1.00  0.00    -0.223 N  
HETATM   16  O   UNL     1      -8.277  10.977  66.708  1.00  0.00    -0.137 OA 
HETATM   17  H   UNL     1     -11.076   9.696  65.894  1.00  0.00     0.000 HD 
BRANCH  15  18
HETATM   18  C   UNL     1     -10.721  11.795  65.581  1.00  0.00    -0.280 C  
BRANCH  18  19
HETATM   19  C   UNL     1     -11.771  12.447  66.494  1.00  0.00    -0.379 C  
HETATM   20  H   UNL     1     -12.856  11.894  68.038  1.00  0.00     0.000 HD 
HETATM   21  O   UNL     1     -12.206  11.491  67.473  1.00  0.00    -0.463 OA 
BRANCH  19  22
HETATM   22  C   UNL     1     -11.220  13.709  67.179  1.00  0.00    -0.309 C  
HETATM   23  O   UNL     1     -12.267  14.560  67.640  1.00  0.00    -0.598 OA 
HETATM   24  H   UNL     1     -11.927  15.339  68.063  1.00  0.00     0.000 HD 
ENDBRANCH  19  22
ENDBRANCH  18  19
ENDBRANCH  15  18
ENDBRANCH  12  14
BRANCH  11  25
HETATM   25  C   UNL     1      -7.991   5.347  65.374  1.00  0.00    -0.107 C  
HETATM   26  O   UNL     1      -6.836   5.012  65.130  1.00  0.00    -0.050 OA 
HETATM   27  H   UNL     1     -10.021   5.105  64.982  1.00  0.00     0.000 HD 
HETATM   28  N   UNL     1      -9.082   4.812  64.710  1.00  0.00    -0.151 N  
BRANCH  28  29
HETATM   29  C   UNL     1      -8.928   3.849  63.636  1.00  0.00    -0.116 C  
BRANCH  29  30
HETATM   30  C   UNL     1     -10.262   3.193  63.313  1.00  0.00    -0.175 C  
HETATM   31  O   UNL     1     -11.164   3.387  64.404  1.00  0.00    -0.618 OA 
HETATM   32  H   UNL     1     -11.997   2.978  64.202  1.00  0.00     0.000 HD 
ENDBRANCH  29  30
ENDBRANCH  28  29
ENDBRANCH  11  25
ENDBRANCH   3   5
BRANCH   3  33
HETATM   33  C   UNL     1      -9.932   5.910  70.621  1.00  0.00    -0.189 C  
BRANCH  33  34
HETATM   34  C   UNL     1     -11.201   6.753  70.925  1.00  0.00    -0.292 C  
HETATM   35  O   UNL     1     -12.145   6.729  69.844  1.00  0.00    -0.656 OA 
HETATM   36  H   UNL     1     -12.921   7.244  70.030  1.00  0.00     0.000 HD 
BRANCH  34  37
HETATM   37  C   UNL     1     -11.931   6.280  72.195  1.00  0.00    -0.287 C  
HETATM   38  H   UNL     1     -11.584   5.059  73.716  1.00  0.00     0.000 HD 
HETATM   39  O   UNL     1     -11.133   5.351  72.932  1.00  0.00    -0.264 OA 
ENDBRANCH  34  37
ENDBRANCH  33  34
ENDBRANCH   3  33
TORSDOF 11
ENDMDL
MODEL       67
REMARK 921   NORMALIZED FREE ENERGY PREDICTED BY IDOCK:   -4.31 KCAL/MOL
REMARK 922        TOTAL FREE ENERGY PREDICTED BY IDOCK:   -7.69 KCAL/MOL
REMARK 923 INTER-LIGAND FREE ENERGY PREDICTED BY IDOCK:   -6.74 KCAL/MOL
REMARK 924 INTRA-LIGAND FREE ENERGY PREDICTED BY IDOCK:   -0.95 KCAL/MOL
REMARK 927      BINDING AFFINITY PREDICTED BY RF-SCORE:    0.00 PKD
ROOT
HETATM    1  C   UNL     1     -11.145  13.445  65.640  1.00  0.00    -0.298 C  
HETATM    2  C   UNL     1     -11.042  12.023  66.117  1.00  0.00    -0.322 C  
HETATM    3  N   UNL     1      -9.928  11.674  66.886  1.00  0.00    -0.200 N  
HETATM    4  O   UNL     1     -11.944  11.226  65.851  1.00  0.00     0.107 OA 
ENDROOT
BRANCH   3   5
HETATM    5  C   UNL     1      -9.868  10.300  67.289  1.00  0.00    -0.182 A  
HETATM    6  I   UNL     1      -9.206   5.715  69.083  1.00  0.00    -0.167 I  
HETATM    7  C   UNL     1      -9.687   7.639  68.191  1.00  0.00    -0.153 A  
HETATM    8  C   UNL     1      -9.239   9.315  66.481  1.00  0.00    -0.161 A  
HETATM    9  I   UNL     1      -8.553   9.886  64.507  1.00  0.00    -0.269 I  
HETATM   10  C   UNL     1     -10.512   9.917  68.495  1.00  0.00    -0.205 A  
HETATM   11  C   UNL     1     -10.418   8.587  68.962  1.00  0.00    -0.216 A  
HETATM   12  C   UNL     1      -9.138   7.973  66.925  1.00  0.00    -0.182 A  
HETATM   13  I   UNL     1     -11.690  11.419  69.553  1.00  0.00    -0.463 I  
BRANCH  12  14
HETATM   14  C   UNL     1      -8.381   6.974  66.103  1.00  0.00    -0.130 C  
HETATM   15  N   UNL     1      -9.110   6.135  65.283  1.00  0.00    -0.367 N  
HETATM   16  O   UNL     1      -7.159   6.916  66.183  1.00  0.00    -0.069 OA 
HETATM   17  H   UNL     1     -10.127   6.221  65.262  1.00  0.00     0.000 HD 
BRANCH  15  18
HETATM   18  C   UNL     1      -8.462   5.129  64.445  1.00  0.00    -0.138 C  
BRANCH  18  19
HETATM   19  C   UNL     1      -9.477   4.299  63.644  1.00  0.00    -0.110 C  
HETATM   20  H   UNL     1      -9.401   2.945  62.220  1.00  0.00     0.000 HD 
HETATM   21  O   UNL     1      -8.774   3.458  62.715  1.00  0.00    -0.084 OA 
BRANCH  19  22
HETATM   22  C   UNL     1     -10.371   3.453  64.567  1.00  0.00    -0.049 C  
HETATM   23  O   UNL     1     -11.473   4.206  65.069  1.00  0.00    -0.902 OA 
HETATM   24  H   UNL     1     -12.026   3.684  65.639  1.00  0.00     0.000 HD 
ENDBRANCH  19  22
ENDBRANCH  18  19
ENDBRANCH  15  18
ENDBRANCH  12  14
BRANCH  11  25
HETATM   25  C   UNL     1     -11.143   8.150  70.185  1.00  0.00    -0.187 C  
HETATM   26  O   UNL     1     -12.264   7.661  70.083  1.00  0.00     0.245 OA 
HETATM   27  H   UNL     1      -9.567   8.711  71.424  1.00  0.00     0.000 HD 
HETATM   28  N   UNL     1     -10.514   8.333  71.406  1.00  0.00    -0.211 N  
BRANCH  28  29
HETATM   29  C   UNL     1     -11.166   8.001  72.659  1.00  0.00    -0.397 C  
BRANCH  29  30
HETATM   30  C   UNL     1     -10.786   6.595  73.101  1.00  0.00    -0.269 C  
HETATM   31  O   UNL     1     -10.501   6.598  74.502  1.00  0.00    -0.410 OA 
HETATM   32  H   UNL     1     -10.264   5.721  74.778  1.00  0.00     0.000 HD 
ENDBRANCH  29  30
ENDBRANCH  28  29
ENDBRANCH  11  25
ENDBRANCH   3   5
BRANCH   3  33
HETATM   33  C   UNL     1      -8.743  12.542  67.139  1.00  0.00    -0.200 C  
BRANCH  33  34
HETATM   34  C   UNL     1      -8.578  13.114  68.574  1.00  0.00    -0.056 C  
HETATM   35  O   UNL     1      -7.383  12.644  69.215  1.00  0.00    -0.318 OA 
HETATM   36  H   UNL     1      -7.282  12.993  70.093  1.00  0.00     0.000 HD 
BRANCH  34  37
HETATM   37  C   UNL     1      -8.545  14.653  68.594  1.00  0.00    -0.172 C  
HETATM   38  H   UNL     1      -9.831  16.143  68.823  1.00  0.00     0.000 HD 
HETATM   39  O   UNL     1      -9.851  15.193  68.811  1.00  0.00    -0.208 OA 
ENDBRANCH  34  37
ENDBRANCH  33  34
ENDBRANCH   3  33
TORSDOF 11
ENDMDL
MODEL       68
REMARK 921   NORMALIZED FREE ENERGY PREDICTED BY IDOCK:   -4.27 KCAL/MOL
REMARK 922        TOTAL FREE ENERGY PREDICTED BY IDOCK:   -7.63 KCAL/MOL
REMARK 923 INTER-LIGAND FREE ENERGY PREDICTED BY IDOCK:   -7.76 KCAL/MOL
REMARK 924 INTRA-LIGAND FREE ENERGY PREDICTED BY IDOCK:    0.13 KCAL/MOL
REMARK 927      BINDING AFFINITY PREDICTED BY RF-SCORE:    0.00 PKD
ROOT
HETATM    1  C   UNL     1      -7.729   9.023  64.873  1.00  0.00    -0.111 C  
HETATM    2  C   UNL     1      -8.709   9.398  65.949  1.00  0.00    -0.154 C  
HETATM    3  N   UNL     1      -8.197   9.855  67.166  1.00  0.00    -0.120 N  
HETATM    4  O   UNL     1      -9.919   9.328  65.720  1.00  0.00    -0.299 OA 
ENDROOT
BRANCH   3   5
HETATM    5  C   UNL     1      -9.176  10.172  68.164  1.00  0.00    -0.135 A  
HETATM    6  I   UNL     1     -12.955  10.886  71.307  1.00  0.00    -0.231 I  
HETATM    7  C   UNL     1     -11.167  10.687  70.086  1.00  0.00    -0.302 A  
HETATM    8  C   UNL     1      -9.866  11.415  68.160  1.00  0.00    -0.191 A  
HETATM    9  I   UNL     1      -9.255  12.928  66.736  1.00  0.00    -0.123 I  
HETATM   10  C   UNL     1      -9.405   9.240  69.210  1.00  0.00    -0.160 A  
HETATM   11  C   UNL     1     -10.410   9.484  70.173  1.00  0.00    -0.300 A  
HETATM   12  C   UNL     1     -10.872  11.684  69.120  1.00  0.00    -0.231 A  
HETATM   13  I   UNL     1      -8.127   7.475  69.313  1.00  0.00    -0.128 I  
BRANCH  12  14
HETATM   14  C   UNL     1     -11.656  12.959  69.035  1.00  0.00    -0.322 C  
HETATM   15  N   UNL     1     -11.384  13.942  69.967  1.00  0.00    -0.478 N  
HETATM   16  O   UNL     1     -12.513  13.094  68.168  1.00  0.00     0.033 OA 
HETATM   17  H   UNL     1     -10.668  13.773  70.673  1.00  0.00     0.000 HD 
BRANCH  15  18
HETATM   18  C   UNL     1     -12.097  15.217  69.965  1.00  0.00    -0.352 C  
BRANCH  18  19
HETATM   19  C   UNL     1     -12.738  15.527  71.327  1.00  0.00    -0.462 C  
HETATM   20  H   UNL     1     -14.107  14.707  72.475  1.00  0.00     0.000 HD 
HETATM   21  O   UNL     1     -13.711  14.515  71.633  1.00  0.00    -0.358 OA 
BRANCH  19  22
HETATM   22  C   UNL     1     -11.682  15.615  72.443  1.00  0.00    -0.475 C  
HETATM   23  O   UNL     1     -12.170  15.088  73.675  1.00  0.00    -0.462 OA 
HETATM   24  H   UNL     1     -11.519  15.143  74.363  1.00  0.00     0.000 HD 
ENDBRANCH  19  22
ENDBRANCH  18  19
ENDBRANCH  15  18
ENDBRANCH  12  14
BRANCH  11  25
HETATM   25  C   UNL     1     -10.619   8.555  71.316  1.00  0.00    -0.234 C  
HETATM   26  O   UNL     1     -10.077   8.788  72.392  1.00  0.00    -0.283 OA 
HETATM   27  H   UNL     1     -11.869   7.322  70.198  1.00  0.00     0.000 HD 
HETATM   28  N   UNL     1     -11.416   7.443  71.104  1.00  0.00    -0.271 N  
BRANCH  28  29
HETATM   29  C   UNL     1     -11.625   6.443  72.135  1.00  0.00    -0.313 C  
BRANCH  29  30
HETATM   30  C   UNL     1     -10.523   5.394  72.090  1.00  0.00    -0.218 C  
HETATM   31  O   UNL     1     -10.429   4.861  70.767  1.00  0.00    -0.199 OA 
HETATM   32  H   UNL     1      -9.741   4.206  70.739  1.00  0.00     0.000 HD 
ENDBRANCH  29  30
ENDBRANCH  28  29
ENDBRANCH  11  25
ENDBRANCH   3   5
BRANCH   3  33
HETATM   33  C   UNL     1      -6.758   9.847  67.559  1.00  0.00    -0.073 C  
BRANCH  33  34
HETATM   34  C   UNL     1      -5.889  11.045  67.087  1.00  0.00    -0.064 C  
HETATM   35  O   UNL     1      -6.306  11.554  65.811  1.00  0.00    -0.386 OA 
HETATM   36  H   UNL     1      -5.775  12.286  65.523  1.00  0.00     0.000 HD 
BRANCH  34  37
HETATM   37  C   UNL     1      -5.909  12.215  68.087  1.00  0.00    -0.056 C  
HETATM   38  H   UNL     1      -5.316  14.104  68.144  1.00  0.00     0.000 HD 
HETATM   39  O   UNL     1      -5.304  13.382  67.526  1.00  0.00    -0.304 OA 
ENDBRANCH  34  37
ENDBRANCH  33  34
ENDBRANCH   3  33
TORSDOF 11
ENDMDL
MODEL       69
REMARK 921   NORMALIZED FREE ENERGY PREDICTED BY IDOCK:   -4.26 KCAL/MOL
REMARK 922        TOTAL FREE ENERGY PREDICTED BY IDOCK:   -7.60 KCAL/MOL
REMARK 923 INTER-LIGAND FREE ENERGY PREDICTED BY IDOCK:   -8.23 KCAL/MOL
REMARK 924 INTRA-LIGAND FREE ENERGY PREDICTED BY IDOCK:    0.62 KCAL/MOL
REMARK 927      BINDING AFFINITY PREDICTED BY RF-SCORE:    0.00 PKD
ROOT
HETATM    1  C   UNL     1     -11.542  14.771  64.499  1.00  0.00    -0.366 C  
HETATM    2  C   UNL     1     -11.735  13.715  65.552  1.00  0.00    -0.337 C  
HETATM    3  N   UNL     1     -10.745  13.582  66.529  1.00  0.00    -0.285 N  
HETATM    4  O   UNL     1     -12.761  13.031  65.546  1.00  0.00    -0.522 OA 
ENDROOT
BRANCH   3   5
HETATM    5  C   UNL     1     -10.968  12.542  67.490  1.00  0.00    -0.251 A  
HETATM    6  I   UNL     1     -11.242   9.168  71.125  1.00  0.00    -0.485 I  
HETATM    7  C   UNL     1     -11.331  10.566  69.463  1.00  0.00    -0.278 A  
HETATM    8  C   UNL     1     -10.602  11.194  67.224  1.00  0.00    -0.239 A  
HETATM    9  I   UNL     1      -9.893  10.690  65.241  1.00  0.00    -0.390 I  
HETATM   10  C   UNL     1     -11.628  12.869  68.703  1.00  0.00    -0.316 A  
HETATM   11  C   UNL     1     -11.805  11.888  69.704  1.00  0.00    -0.406 A  
HETATM   12  C   UNL     1     -10.777  10.192  68.210  1.00  0.00    -0.277 A  
HETATM   13  I   UNL     1     -12.405  14.894  68.938  1.00  0.00     0.401 I  
BRANCH  12  14
HETATM   14  C   UNL     1     -10.290   8.799  67.946  1.00  0.00    -0.224 C  
HETATM   15  N   UNL     1      -8.993   8.493  68.309  1.00  0.00    -0.139 N  
HETATM   16  O   UNL     1     -11.033   7.982  67.412  1.00  0.00    -0.151 OA 
HETATM   17  H   UNL     1      -8.415   9.214  68.742  1.00  0.00     0.000 HD 
BRANCH  15  18
HETATM   18  C   UNL     1      -8.429   7.164  68.091  1.00  0.00    -0.123 C  
BRANCH  18  19
HETATM   19  C   UNL     1      -7.065   6.991  68.776  1.00  0.00    -0.089 C  
HETATM   20  H   UNL     1      -6.019   5.497  69.512  1.00  0.00     0.000 HD 
HETATM   21  O   UNL     1      -6.862   5.604  69.088  1.00  0.00    -0.057 OA 
BRANCH  19  22
HETATM   22  C   UNL     1      -5.918   7.520  67.897  1.00  0.00    -0.039 C  
HETATM   23  O   UNL     1      -6.408   8.234  66.764  1.00  0.00    -0.053 OA 
HETATM   24  H   UNL     1      -5.700   8.560  66.221  1.00  0.00     0.000 HD 
ENDBRANCH  19  22
ENDBRANCH  18  19
ENDBRANCH  15  18
ENDBRANCH  12  14
BRANCH  11  25
HETATM   25  C   UNL     1     -12.555  12.191  70.953  1.00  0.00    -0.247 C  
HETATM   26  O   UNL     1     -13.264  11.326  71.458  1.00  0.00    -0.379 OA 
HETATM   27  H   UNL     1     -11.796  14.127  71.041  1.00  0.00     0.000 HD 
HETATM   28  N   UNL     1     -12.429  13.462  71.486  1.00  0.00    -0.228 N  
BRANCH  28  29
HETATM   29  C   UNL     1     -13.172  13.876  72.662  1.00  0.00    -0.494 C  
BRANCH  29  30
HETATM   30  C   UNL     1     -12.843  15.318  73.020  1.00  0.00    -0.469 C  
HETATM   31  O   UNL     1     -14.057  16.051  73.200  1.00  0.00    -0.666 OA 
HETATM   32  H   UNL     1     -13.852  16.952  73.423  1.00  0.00     0.000 HD 
ENDBRANCH  29  30
ENDBRANCH  28  29
ENDBRANCH  11  25
ENDBRANCH   3   5
BRANCH   3  33
HETATM   33  C   UNL     1      -9.428  14.280  66.529  1.00  0.00    -0.287 C  
BRANCH  33  34
HETATM   34  C   UNL     1      -8.412  13.874  67.632  1.00  0.00    -0.192 C  
HETATM   35  O   UNL     1      -7.096  13.646  67.105  1.00  0.00    -0.355 OA 
HETATM   36  H   UNL     1      -6.475  13.398  67.780  1.00  0.00     0.000 HD 
BRANCH  34  37
HETATM   37  C   UNL     1      -8.294  14.935  68.742  1.00  0.00    -0.170 C  
HETATM   38  H   UNL     1      -6.864  15.997  69.608  1.00  0.00     0.000 HD 
HETATM   39  O   UNL     1      -6.936  15.343  68.923  1.00  0.00    -0.114 OA 
ENDBRANCH  34  37
ENDBRANCH  33  34
ENDBRANCH   3  33
TORSDOF 11
ENDMDL
MODEL       70
REMARK 921   NORMALIZED FREE ENERGY PREDICTED BY IDOCK:   -4.26 KCAL/MOL
REMARK 922        TOTAL FREE ENERGY PREDICTED BY IDOCK:   -7.60 KCAL/MOL
REMARK 923 INTER-LIGAND FREE ENERGY PREDICTED BY IDOCK:   -7.09 KCAL/MOL
REMARK 924 INTRA-LIGAND FREE ENERGY PREDICTED BY IDOCK:   -0.51 KCAL/MOL
REMARK 927      BINDING AFFINITY PREDICTED BY RF-SCORE:    0.00 PKD
ROOT
HETATM    1  C   UNL     1      -9.895   8.758  72.485  1.00  0.00    -0.133 C  
HETATM    2  C   UNL     1      -9.563   8.729  71.019  1.00  0.00    -0.229 C  
HETATM    3  N   UNL     1     -10.619   8.579  70.115  1.00  0.00    -0.228 N  
HETATM    4  O   UNL     1      -8.392   8.873  70.657  1.00  0.00    -0.130 OA 
ENDROOT
BRANCH   3   5
HETATM    5  C   UNL     1     -10.241   8.530  68.733  1.00  0.00    -0.200 A  
HETATM    6  I   UNL     1      -8.340   8.340  64.148  1.00  0.00     0.204 I  
HETATM    7  C   UNL     1      -9.381   8.389  66.056  1.00  0.00    -0.177 A  
HETATM    8  C   UNL     1     -10.273   9.690  67.913  1.00  0.00    -0.198 A  
HETATM    9  I   UNL     1     -11.114  11.509  68.732  1.00  0.00    -0.384 I  
HETATM   10  C   UNL     1      -9.892   7.275  68.169  1.00  0.00    -0.149 A  
HETATM   11  C   UNL     1      -9.449   7.195  66.830  1.00  0.00    -0.200 A  
HETATM   12  C   UNL     1      -9.839   9.632  66.565  1.00  0.00    -0.298 A  
HETATM   13  I   UNL     1     -10.123   5.492  69.405  1.00  0.00    -0.344 I  
BRANCH  12  14
HETATM   14  C   UNL     1      -9.785  10.888  65.749  1.00  0.00    -0.224 C  
HETATM   15  N   UNL     1     -10.765  11.075  64.794  1.00  0.00    -0.280 N  
HETATM   16  O   UNL     1      -8.884  11.700  65.934  1.00  0.00    -0.164 OA 
HETATM   17  H   UNL     1     -11.486  10.363  64.676  1.00  0.00     0.000 HD 
BRANCH  15  18
HETATM   18  C   UNL     1     -10.795  12.267  63.949  1.00  0.00    -0.412 C  
BRANCH  18  19
HETATM   19  C   UNL     1     -11.855  13.279  64.410  1.00  0.00    -0.399 C  
HETATM   20  H   UNL     1     -13.575  13.207  65.359  1.00  0.00     0.000 HD 
HETATM   21  O   UNL     1     -12.920  12.581  65.074  1.00  0.00    -0.779 OA 
BRANCH  19  22
HETATM   22  C   UNL     1     -11.251  14.349  65.336  1.00  0.00    -0.335 C  
HETATM   23  O   UNL     1      -9.825  14.319  65.319  1.00  0.00    -0.533 OA 
HETATM   24  H   UNL     1      -9.453  14.980  65.890  1.00  0.00     0.000 HD 
ENDBRANCH  19  22
ENDBRANCH  18  19
ENDBRANCH  15  18
ENDBRANCH  12  14
BRANCH  11  25
HETATM   25  C   UNL     1      -9.145   5.882  66.199  1.00  0.00    -0.150 C  
HETATM   26  O   UNL     1      -9.980   5.352  65.473  1.00  0.00     0.039 OA 
HETATM   27  H   UNL     1      -7.252   5.809  67.060  1.00  0.00     0.000 HD 
HETATM   28  N   UNL     1      -7.919   5.302  66.478  1.00  0.00    -0.104 N  
BRANCH  28  29
HETATM   29  C   UNL     1      -7.557   3.994  65.966  1.00  0.00    -0.089 C  
BRANCH  29  30
HETATM   30  C   UNL     1      -6.044   3.858  65.872  1.00  0.00    -0.028 C  
HETATM   31  O   UNL     1      -5.509   4.986  65.175  1.00  0.00    -0.013 OA 
HETATM   32  H   UNL     1      -4.564   4.901  65.116  1.00  0.00     0.000 HD 
ENDBRANCH  29  30
ENDBRANCH  28  29
ENDBRANCH  11  25
ENDBRANCH   3   5
BRANCH   3  33
HETATM   33  C   UNL     1     -12.033   8.275  70.478  1.00  0.00     0.072 C  
BRANCH  33  34
HETATM   34  C   UNL     1     -12.979   9.484  70.713  1.00  0.00    -0.022 C  
HETATM   35  O   UNL     1     -14.364   9.115  70.647  1.00  0.00    -0.397 OA 
HETATM   36  H   UNL     1     -14.943   9.855  70.791  1.00  0.00     0.000 HD 
BRANCH  34  37
HETATM   37  C   UNL     1     -12.739  10.161  72.075  1.00  0.00    -0.327 C  
HETATM   38  H   UNL     1     -13.170  11.885  72.951  1.00  0.00     0.000 HD 
HETATM   39  O   UNL     1     -13.319  11.467  72.110  1.00  0.00    -0.477 OA 
ENDBRANCH  34  37
ENDBRANCH  33  34
ENDBRANCH   3  33
TORSDOF 11
ENDMDL
MODEL       71
REMARK 921   NORMALIZED FREE ENERGY PREDICTED BY IDOCK:   -4.22 KCAL/MOL
REMARK 922        TOTAL FREE ENERGY PREDICTED BY IDOCK:   -7.55 KCAL/MOL
REMARK 923 INTER-LIGAND FREE ENERGY PREDICTED BY IDOCK:   -7.88 KCAL/MOL
REMARK 924 INTRA-LIGAND FREE ENERGY PREDICTED BY IDOCK:    0.34 KCAL/MOL
REMARK 927      BINDING AFFINITY PREDICTED BY RF-SCORE:    0.00 PKD
ROOT
HETATM    1  C   UNL     1      -6.658  18.560  66.201  1.00  0.00    -0.267 C  
HETATM    2  C   UNL     1      -7.459  17.344  66.575  1.00  0.00    -0.280 C  
HETATM    3  N   UNL     1      -7.376  16.891  67.894  1.00  0.00    -0.164 N  
HETATM    4  O   UNL     1      -8.182  16.810  65.731  1.00  0.00    -0.398 OA 
ENDROOT
BRANCH   3   5
HETATM    5  C   UNL     1      -8.138  15.712  68.187  1.00  0.00    -0.136 A  
HETATM    6  I   UNL     1     -10.792  11.532  68.579  1.00  0.00    -0.342 I  
HETATM    7  C   UNL     1      -9.606  13.353  68.640  1.00  0.00    -0.060 A  
HETATM    8  C   UNL     1      -9.512  15.785  68.544  1.00  0.00    -0.201 A  
HETATM    9  I   UNL     1     -10.394  17.739  68.856  1.00  0.00     0.159 I  
HETATM   10  C   UNL     1      -7.476  14.457  68.178  1.00  0.00    -0.128 A  
HETATM   11  C   UNL     1      -8.205  13.266  68.393  1.00  0.00    -0.134 A  
HETATM   12  C   UNL     1     -10.262  14.605  68.771  1.00  0.00    -0.242 A  
HETATM   13  I   UNL     1      -5.314  14.436  67.888  1.00  0.00     0.124 I  
BRANCH  12  14
HETATM   14  C   UNL     1     -11.732  14.701  69.047  1.00  0.00    -0.306 C  
HETATM   15  N   UNL     1     -12.131  14.822  70.364  1.00  0.00    -0.299 N  
HETATM   16  O   UNL     1     -12.533  14.659  68.119  1.00  0.00    -0.021 OA 
HETATM   17  H   UNL     1     -11.422  14.843  71.098  1.00  0.00     0.000 HD 
BRANCH  15  18
HETATM   18  C   UNL     1     -13.541  14.922  70.732  1.00  0.00    -0.174 C  
BRANCH  18  19
HETATM   19  C   UNL     1     -13.767  14.699  72.235  1.00  0.00    -0.460 C  
HETATM   20  H   UNL     1     -14.049  13.155  73.420  1.00  0.00     0.000 HD 
HETATM   21  O   UNL     1     -13.909  13.293  72.490  1.00  0.00    -0.668 OA 
BRANCH  19  22
HETATM   22  C   UNL     1     -12.617  15.285  73.073  1.00  0.00    -0.430 C  
HETATM   23  O   UNL     1     -13.101  16.125  74.119  1.00  0.00    -0.920 OA 
HETATM   24  H   UNL     1     -12.391  16.486  74.637  1.00  0.00     0.000 HD 
ENDBRANCH  19  22
ENDBRANCH  18  19
ENDBRANCH  15  18
ENDBRANCH  12  14
BRANCH  11  25
HETATM   25  C   UNL     1      -7.520  11.947  68.456  1.00  0.00    -0.117 C  
HETATM   26  O   UNL     1      -7.255  11.454  69.549  1.00  0.00    -0.084 OA 
HETATM   27  H   UNL     1      -7.472  11.775  66.383  1.00  0.00     0.000 HD 
HETATM   28  N   UNL     1      -7.193  11.333  67.259  1.00  0.00    -0.106 N  
BRANCH  28  29
HETATM   29  C   UNL     1      -6.464  10.079  67.216  1.00  0.00    -0.068 C  
BRANCH  29  30
HETATM   30  C   UNL     1      -5.685   9.960  65.914  1.00  0.00    -0.057 C  
HETATM   31  O   UNL     1      -5.536  11.256  65.329  1.00  0.00    -0.493 OA 
HETATM   32  H   UNL     1      -5.050  11.182  64.517  1.00  0.00     0.000 HD 
ENDBRANCH  29  30
ENDBRANCH  28  29
ENDBRANCH  11  25
ENDBRANCH   3   5
BRANCH   3  33
HETATM   33  C   UNL     1      -6.434  17.403  68.930  1.00  0.00    -0.208 C  
BRANCH  33  34
HETATM   34  C   UNL     1      -6.330  18.945  69.092  1.00  0.00    -0.268 C  
HETATM   35  O   UNL     1      -7.616  19.568  69.224  1.00  0.00    -0.343 OA 
HETATM   36  H   UNL     1      -7.553  20.511  69.324  1.00  0.00     0.000 HD 
BRANCH  34  37
HETATM   37  C   UNL     1      -5.484  19.352  70.312  1.00  0.00    -0.225 C  
HETATM   38  H   UNL     1      -5.622  20.610  71.836  1.00  0.00     0.000 HD 
HETATM   39  O   UNL     1      -6.144  20.358  71.083  1.00  0.00    -0.566 OA 
ENDBRANCH  34  37
ENDBRANCH  33  34
ENDBRANCH   3  33
TORSDOF 11
ENDMDL
MODEL       72
REMARK 921   NORMALIZED FREE ENERGY PREDICTED BY IDOCK:   -4.22 KCAL/MOL
REMARK 922        TOTAL FREE ENERGY PREDICTED BY IDOCK:   -7.55 KCAL/MOL
REMARK 923 INTER-LIGAND FREE ENERGY PREDICTED BY IDOCK:   -6.68 KCAL/MOL
REMARK 924 INTRA-LIGAND FREE ENERGY PREDICTED BY IDOCK:   -0.86 KCAL/MOL
REMARK 927      BINDING AFFINITY PREDICTED BY RF-SCORE:    0.00 PKD
ROOT
HETATM    1  C   UNL     1     -12.656  13.449  63.660  1.00  0.00    -0.166 C  
HETATM    2  C   UNL     1     -12.026  12.302  64.400  1.00  0.00    -0.394 C  
HETATM    3  N   UNL     1     -10.785  12.521  65.004  1.00  0.00    -0.285 N  
HETATM    4  O   UNL     1     -12.627  11.228  64.482  1.00  0.00     0.468 OA 
ENDROOT
BRANCH   3   5
HETATM    5  C   UNL     1     -10.218  11.386  65.671  1.00  0.00    -0.251 A  
HETATM    6  I   UNL     1      -8.715   7.116  67.715  1.00  0.00    -0.122 I  
HETATM    7  C   UNL     1      -9.172   9.077  66.897  1.00  0.00    -0.142 A  
HETATM    8  C   UNL     1     -10.409  11.169  67.063  1.00  0.00    -0.224 A  
HETATM    9  I   UNL     1     -11.399  12.710  68.219  1.00  0.00    -0.423 I  
HETATM   10  C   UNL     1      -9.397  10.501  64.924  1.00  0.00    -0.232 A  
HETATM   11  C   UNL     1      -8.876   9.334  65.527  1.00  0.00    -0.224 A  
HETATM   12  C   UNL     1      -9.891  10.010  67.690  1.00  0.00    -0.194 A  
HETATM   13  I   UNL     1      -8.921  11.032  62.863  1.00  0.00    -0.198 I  
BRANCH  12  14
HETATM   14  C   UNL     1     -10.191   9.752  69.136  1.00  0.00    -0.199 C  
HETATM   15  N   UNL     1     -11.394   9.145  69.442  1.00  0.00    -0.432 N  
HETATM   16  O   UNL     1      -9.387  10.089  69.998  1.00  0.00    -0.217 OA 
HETATM   17  H   UNL     1     -12.030   8.893  68.685  1.00  0.00     0.000 HD 
BRANCH  15  18
HETATM   18  C   UNL     1     -11.776   8.853  70.822  1.00  0.00    -0.230 C  
BRANCH  18  19
HETATM   19  C   UNL     1     -11.550   7.379  71.188  1.00  0.00    -0.286 C  
HETATM   20  H   UNL     1     -11.522   5.661  70.231  1.00  0.00     0.000 HD 
HETATM   21  O   UNL     1     -11.662   6.573  70.004  1.00  0.00    -0.416 OA 
BRANCH  19  22
HETATM   22  C   UNL     1     -10.183   7.165  71.859  1.00  0.00    -0.190 C  
HETATM   23  O   UNL     1      -9.689   8.367  72.447  1.00  0.00    -0.268 OA 
HETATM   24  H   UNL     1      -8.845   8.235  72.862  1.00  0.00     0.000 HD 
ENDBRANCH  19  22
ENDBRANCH  18  19
ENDBRANCH  15  18
ENDBRANCH  12  14
BRANCH  11  25
HETATM   25  C   UNL     1      -7.957   8.430  64.784  1.00  0.00    -0.138 C  
HETATM   26  O   UNL     1      -6.745   8.611  64.851  1.00  0.00    -0.068 OA 
HETATM   27  H   UNL     1      -9.535   7.298  64.037  1.00  0.00     0.000 HD 
HETATM   28  N   UNL     1      -8.523   7.420  64.025  1.00  0.00     0.184 N  
BRANCH  28  29
HETATM   29  C   UNL     1      -7.715   6.531  63.211  1.00  0.00    -0.095 C  
BRANCH  29  30
HETATM   30  C   UNL     1      -8.355   5.152  63.133  1.00  0.00    -0.115 C  
HETATM   31  O   UNL     1      -9.372   5.043  64.132  1.00  0.00    -0.358 OA 
HETATM   32  H   UNL     1      -9.771   4.182  64.083  1.00  0.00     0.000 HD 
ENDBRANCH  29  30
ENDBRANCH  28  29
ENDBRANCH  11  25
ENDBRANCH   3   5
BRANCH   3  33
HETATM   33  C   UNL     1      -9.945  13.743  64.842  1.00  0.00    -0.145 C  
BRANCH  33  34
HETATM   34  C   UNL     1      -9.657  14.578  66.119  1.00  0.00    -0.297 C  
HETATM   35  O   UNL     1      -8.342  14.341  66.643  1.00  0.00    -0.412 OA 
HETATM   36  H   UNL     1      -8.166  14.852  67.424  1.00  0.00     0.000 HD 
BRANCH  34  37
HETATM   37  C   UNL     1      -9.798  16.092  65.876  1.00  0.00    -0.348 C  
HETATM   38  H   UNL     1     -10.182  17.718  66.940  1.00  0.00     0.000 HD 
HETATM   39  O   UNL     1     -10.095  16.784  67.091  1.00  0.00    -0.268 OA 
ENDBRANCH  34  37
ENDBRANCH  33  34
ENDBRANCH   3  33
TORSDOF 11
ENDMDL
MODEL       73
REMARK 921   NORMALIZED FREE ENERGY PREDICTED BY IDOCK:   -4.17 KCAL/MOL
REMARK 922        TOTAL FREE ENERGY PREDICTED BY IDOCK:   -7.47 KCAL/MOL
REMARK 923 INTER-LIGAND FREE ENERGY PREDICTED BY IDOCK:   -6.64 KCAL/MOL
REMARK 924 INTRA-LIGAND FREE ENERGY PREDICTED BY IDOCK:   -0.83 KCAL/MOL
REMARK 927      BINDING AFFINITY PREDICTED BY RF-SCORE:    0.00 PKD
ROOT
HETATM    1  C   UNL     1      -8.170   9.342  64.902  1.00  0.00    -0.143 C  
HETATM    2  C   UNL     1      -9.010   9.223  66.144  1.00  0.00    -0.165 C  
HETATM    3  N   UNL     1      -8.461   9.676  67.347  1.00  0.00    -0.125 N  
HETATM    4  O   UNL     1     -10.154   8.771  66.063  1.00  0.00    -0.228 OA 
ENDROOT
BRANCH   3   5
HETATM    5  C   UNL     1      -9.295   9.513  68.501  1.00  0.00    -0.137 A  
HETATM    6  I   UNL     1     -12.488   8.510  72.171  1.00  0.00    -0.380 I  
HETATM    7  C   UNL     1     -10.970   9.076  70.721  1.00  0.00    -0.258 A  
HETATM    8  C   UNL     1     -10.308  10.455  68.825  1.00  0.00    -0.196 A  
HETATM    9  I   UNL     1     -10.436  12.275  67.658  1.00  0.00    -0.271 I  
HETATM   10  C   UNL     1      -9.048   8.415  69.367  1.00  0.00    -0.154 A  
HETATM   11  C   UNL     1      -9.889   8.180  70.477  1.00  0.00    -0.194 A  
HETATM   12  C   UNL     1     -11.160  10.244  69.938  1.00  0.00    -0.362 A  
HETATM   13  I   UNL     1      -7.310   7.159  68.964  1.00  0.00    -0.097 I  
BRANCH  12  14
HETATM   14  C   UNL     1     -12.287  11.197  70.200  1.00  0.00    -0.295 C  
HETATM   15  N   UNL     1     -12.012  12.323  70.952  1.00  0.00    -0.377 N  
HETATM   16  O   UNL     1     -13.407  10.957  69.763  1.00  0.00     0.156 OA 
HETATM   17  H   UNL     1     -11.064  12.469  71.299  1.00  0.00     0.000 HD 
BRANCH  15  18
HETATM   18  C   UNL     1     -13.044  13.309  71.262  1.00  0.00    -0.218 C  
BRANCH  18  19
HETATM   19  C   UNL     1     -12.728  14.689  70.665  1.00  0.00    -0.357 C  
HETATM   20  H   UNL     1     -13.649  16.420  70.511  1.00  0.00     0.000 HD 
HETATM   21  O   UNL     1     -13.844  15.566  70.880  1.00  0.00    -0.512 OA 
BRANCH  19  22
HETATM   22  C   UNL     1     -11.446  15.288  71.270  1.00  0.00    -0.380 C  
HETATM   23  O   UNL     1     -10.303  15.014  70.463  1.00  0.00    -0.512 OA 
HETATM   24  H   UNL     1      -9.512  15.384  70.837  1.00  0.00     0.000 HD 
ENDBRANCH  19  22
ENDBRANCH  18  19
ENDBRANCH  15  18
ENDBRANCH  12  14
BRANCH  11  25
HETATM   25  C   UNL     1      -9.607   7.078  71.435  1.00  0.00    -0.162 C  
HETATM   26  O   UNL     1     -10.065   5.959  71.222  1.00  0.00    -0.186 OA 
HETATM   27  H   UNL     1      -8.459   8.314  72.653  1.00  0.00     0.000 HD 
HETATM   28  N   UNL     1      -8.841   7.374  72.550  1.00  0.00    -0.125 N  
BRANCH  28  29
HETATM   29  C   UNL     1      -8.569   6.385  73.575  1.00  0.00    -0.123 C  
BRANCH  29  30
HETATM   30  C   UNL     1      -7.133   6.507  74.065  1.00  0.00    -0.084 C  
HETATM   31  O   UNL     1      -6.261   6.676  72.945  1.00  0.00    -0.053 OA 
HETATM   32  H   UNL     1      -5.365   6.753  73.251  1.00  0.00     0.000 HD 
ENDBRANCH  29  30
ENDBRANCH  28  29
ENDBRANCH  11  25
ENDBRANCH   3   5
BRANCH   3  33
HETATM   33  C   UNL     1      -7.049  10.115  67.544  1.00  0.00    -0.087 C  
BRANCH  33  34
HETATM   34  C   UNL     1      -6.802  11.635  67.746  1.00  0.00    -0.079 C  
HETATM   35  O   UNL     1      -6.885  12.025  69.125  1.00  0.00    -0.102 OA 
HETATM   36  H   UNL     1      -6.733  12.954  69.248  1.00  0.00     0.000 HD 
BRANCH  34  37
HETATM   37  C   UNL     1      -5.429  12.083  67.214  1.00  0.00    -0.128 C  
HETATM   38  H   UNL     1      -4.342  11.841  65.576  1.00  0.00     0.000 HD 
HETATM   39  O   UNL     1      -5.190  11.565  65.904  1.00  0.00    -0.308 OA 
ENDBRANCH  34  37
ENDBRANCH  33  34
ENDBRANCH   3  33
TORSDOF 11
ENDMDL
MODEL       74
REMARK 921   NORMALIZED FREE ENERGY PREDICTED BY IDOCK:   -4.14 KCAL/MOL
REMARK 922        TOTAL FREE ENERGY PREDICTED BY IDOCK:   -7.42 KCAL/MOL
REMARK 923 INTER-LIGAND FREE ENERGY PREDICTED BY IDOCK:   -6.72 KCAL/MOL
REMARK 924 INTRA-LIGAND FREE ENERGY PREDICTED BY IDOCK:   -0.70 KCAL/MOL
REMARK 927      BINDING AFFINITY PREDICTED BY RF-SCORE:    0.00 PKD
ROOT
HETATM    1  C   UNL     1     -10.597  18.142  65.937  1.00  0.00    -0.247 C  
HETATM    2  C   UNL     1      -9.831  16.883  66.233  1.00  0.00    -0.302 C  
HETATM    3  N   UNL     1     -10.284  16.075  67.279  1.00  0.00    -0.271 N  
HETATM    4  O   UNL     1      -8.860  16.583  65.533  1.00  0.00    -0.325 OA 
ENDROOT
BRANCH   3   5
HETATM    5  C   UNL     1      -9.500  14.903  67.534  1.00  0.00    -0.200 A  
HETATM    6  I   UNL     1      -6.408  11.037  67.951  1.00  0.00    -0.062 I  
HETATM    7  C   UNL     1      -7.859  12.657  67.968  1.00  0.00    -0.149 A  
HETATM    8  C   UNL     1      -9.923  13.616  67.102  1.00  0.00    -0.247 A  
HETATM    9  I   UNL     1     -11.897  13.419  66.232  1.00  0.00    -0.477 I  
HETATM   10  C   UNL     1      -8.307  15.036  68.292  1.00  0.00    -0.145 A  
HETATM   11  C   UNL     1      -7.471  13.918  68.506  1.00  0.00    -0.122 A  
HETATM   12  C   UNL     1      -9.104  12.479  67.311  1.00  0.00    -0.189 A  
HETATM   13  I   UNL     1      -7.850  16.986  69.156  1.00  0.00     0.299 I  
BRANCH  12  14
HETATM   14  C   UNL     1      -9.524  11.151  66.758  1.00  0.00    -0.184 C  
HETATM   15  N   UNL     1     -10.268  10.322  67.574  1.00  0.00    -0.198 N  
HETATM   16  O   UNL     1      -9.194  10.830  65.621  1.00  0.00    -0.184 OA 
HETATM   17  H   UNL     1     -10.507  10.636  68.515  1.00  0.00     0.000 HD 
BRANCH  15  18
HETATM   18  C   UNL     1     -10.722   9.009  67.124  1.00  0.00    -0.136 C  
BRANCH  18  19
HETATM   19  C   UNL     1      -9.833   7.873  67.653  1.00  0.00    -0.165 C  
HETATM   20  H   UNL     1      -8.535   7.643  69.112  1.00  0.00     0.000 HD 
HETATM   21  O   UNL     1      -9.085   8.345  68.785  1.00  0.00    -0.143 OA 
BRANCH  19  22
HETATM   22  C   UNL     1     -10.662   6.635  68.034  1.00  0.00    -0.265 C  
HETATM   23  O   UNL     1     -11.497   6.208  66.959  1.00  0.00    -0.551 OA 
HETATM   24  H   UNL     1     -12.009   5.443  67.194  1.00  0.00     0.000 HD 
ENDBRANCH  19  22
ENDBRANCH  18  19
ENDBRANCH  15  18
ENDBRANCH  12  14
BRANCH  11  25
HETATM   25  C   UNL     1      -6.254  14.020  69.355  1.00  0.00    -0.108 C  
HETATM   26  O   UNL     1      -5.204  14.423  68.863  1.00  0.00    -0.084 OA 
HETATM   27  H   UNL     1      -7.268  13.342  71.042  1.00  0.00     0.000 HD 
HETATM   28  N   UNL     1      -6.359  13.634  70.681  1.00  0.00     0.019 N  
BRANCH  28  29
HETATM   29  C   UNL     1      -5.214  13.634  71.571  1.00  0.00    -0.190 C  
BRANCH  29  30
HETATM   30  C   UNL     1      -5.263  14.835  72.504  1.00  0.00    -0.085 C  
HETATM   31  O   UNL     1      -5.514  14.391  73.839  1.00  0.00    -0.479 OA 
HETATM   32  H   UNL     1      -5.545  15.141  74.421  1.00  0.00     0.000 HD 
ENDBRANCH  29  30
ENDBRANCH  28  29
ENDBRANCH  11  25
ENDBRANCH   3   5
BRANCH   3  33
HETATM   33  C   UNL     1     -11.365  16.431  68.243  1.00  0.00    -0.241 C  
BRANCH  33  34
HETATM   34  C   UNL     1     -11.402  15.649  69.585  1.00  0.00    -0.329 C  
HETATM   35  O   UNL     1     -11.442  16.521  70.724  1.00  0.00    -0.562 OA 
HETATM   36  H   UNL     1     -11.465  16.043  71.545  1.00  0.00     0.000 HD 
BRANCH  34  37
HETATM   37  C   UNL     1     -12.610  14.699  69.679  1.00  0.00    -0.068 C  
HETATM   38  H   UNL     1     -12.947  12.796  70.112  1.00  0.00     0.000 HD 
HETATM   39  O   UNL     1     -12.202  13.382  70.054  1.00  0.00    -0.327 OA 
ENDBRANCH  34  37
ENDBRANCH  33  34
ENDBRANCH   3  33
TORSDOF 11
ENDMDL
MODEL       75
REMARK 921   NORMALIZED FREE ENERGY PREDICTED BY IDOCK:   -4.12 KCAL/MOL
REMARK 922        TOTAL FREE ENERGY PREDICTED BY IDOCK:   -7.39 KCAL/MOL
REMARK 923 INTER-LIGAND FREE ENERGY PREDICTED BY IDOCK:   -6.70 KCAL/MOL
REMARK 924 INTRA-LIGAND FREE ENERGY PREDICTED BY IDOCK:   -0.68 KCAL/MOL
REMARK 927      BINDING AFFINITY PREDICTED BY RF-SCORE:    0.00 PKD
ROOT
HETATM    1  C   UNL     1     -12.612  14.336  64.841  1.00  0.00    -0.339 C  
HETATM    2  C   UNL     1     -11.264  14.076  65.453  1.00  0.00    -0.319 C  
HETATM    3  N   UNL     1     -11.179  14.039  66.848  1.00  0.00    -0.304 N  
HETATM    4  O   UNL     1     -10.293  13.869  64.721  1.00  0.00    -0.418 OA 
ENDROOT
BRANCH   3   5
HETATM    5  C   UNL     1      -9.866  13.815  67.377  1.00  0.00    -0.238 A  
HETATM    6  I   UNL     1      -5.129  12.973  68.612  1.00  0.00    -0.078 I  
HETATM    7  C   UNL     1      -7.237  13.401  68.295  1.00  0.00    -0.111 A  
HETATM    8  C   UNL     1      -9.507  12.577  67.976  1.00  0.00    -0.209 A  
HETATM    9  I   UNL     1     -11.054  11.092  68.278  1.00  0.00    -0.399 I  
HETATM   10  C   UNL     1      -8.932  14.885  67.352  1.00  0.00    -0.189 A  
HETATM   11  C   UNL     1      -7.608  14.684  67.800  1.00  0.00    -0.173 A  
HETATM   12  C   UNL     1      -8.186  12.356  68.439  1.00  0.00    -0.144 A  
HETATM   13  I   UNL     1      -9.624  16.837  66.667  1.00  0.00    -0.331 I  
BRANCH  12  14
HETATM   14  C   UNL     1      -7.804  11.009  68.974  1.00  0.00    -0.126 C  
HETATM   15  N   UNL     1      -7.503  10.018  68.060  1.00  0.00    -0.087 N  
HETATM   16  O   UNL     1      -7.780  10.815  70.185  1.00  0.00     0.052 OA 
HETATM   17  H   UNL     1      -7.548  10.231  67.063  1.00  0.00     0.000 HD 
BRANCH  15  18
HETATM   18  C   UNL     1      -7.122   8.673  68.485  1.00  0.00    -0.073 C  
BRANCH  18  19
HETATM   19  C   UNL     1      -7.312   7.635  67.369  1.00  0.00    -0.092 C  
HETATM   20  H   UNL     1      -8.808   6.976  66.277  1.00  0.00     0.000 HD 
HETATM   21  O   UNL     1      -8.690   7.618  66.967  1.00  0.00    -0.122 OA 
BRANCH  19  22
HETATM   22  C   UNL     1      -6.402   7.928  66.162  1.00  0.00    -0.046 C  
HETATM   23  O   UNL     1      -6.871   9.042  65.406  1.00  0.00    -0.071 OA 
HETATM   24  H   UNL     1      -6.310   9.223  64.661  1.00  0.00     0.000 HD 
ENDBRANCH  19  22
ENDBRANCH  18  19
ENDBRANCH  15  18
ENDBRANCH  12  14
BRANCH  11  25
HETATM   25  C   UNL     1      -6.635  15.809  67.848  1.00  0.00    -0.148 C  
HETATM   26  O   UNL     1      -5.987  16.091  66.844  1.00  0.00    -0.323 OA 
HETATM   27  H   UNL     1      -7.085  16.228  69.836  1.00  0.00     0.000 HD 
HETATM   28  N   UNL     1      -6.492  16.486  69.047  1.00  0.00    -0.170 N  
BRANCH  28  29
HETATM   29  C   UNL     1      -5.521  17.551  69.213  1.00  0.00    -0.188 C  
BRANCH  29  30
HETATM   30  C   UNL     1      -6.216  18.851  69.590  1.00  0.00    -0.257 C  
HETATM   31  O   UNL     1      -7.478  18.926  68.923  1.00  0.00    -0.316 OA 
HETATM   32  H   UNL     1      -7.912  19.737  69.158  1.00  0.00     0.000 HD 
ENDBRANCH  29  30
ENDBRANCH  28  29
ENDBRANCH  11  25
ENDBRANCH   3   5
BRANCH   3  33
HETATM   33  C   UNL     1     -12.274  14.403  67.793  1.00  0.00    -0.155 C  
BRANCH  33  34
HETATM   34  C   UNL     1     -11.862  15.098  69.119  1.00  0.00    -0.313 C  
HETATM   35  O   UNL     1     -12.412  16.419  69.238  1.00  0.00    -0.269 OA 
HETATM   36  H   UNL     1     -12.161  16.844  70.049  1.00  0.00     0.000 HD 
BRANCH  34  37
HETATM   37  C   UNL     1     -12.293  14.298  70.361  1.00  0.00    -0.352 C  
HETATM   38  H   UNL     1     -13.580  14.492  71.856  1.00  0.00     0.000 HD 
HETATM   39  O   UNL     1     -13.314  14.986  71.089  1.00  0.00    -0.396 OA 
ENDBRANCH  34  37
ENDBRANCH  33  34
ENDBRANCH   3  33
TORSDOF 11
ENDMDL
MODEL       76
REMARK 921   NORMALIZED FREE ENERGY PREDICTED BY IDOCK:   -4.05 KCAL/MOL
REMARK 922        TOTAL FREE ENERGY PREDICTED BY IDOCK:   -7.26 KCAL/MOL
REMARK 923 INTER-LIGAND FREE ENERGY PREDICTED BY IDOCK:   -6.06 KCAL/MOL
REMARK 924 INTRA-LIGAND FREE ENERGY PREDICTED BY IDOCK:   -1.20 KCAL/MOL
REMARK 927      BINDING AFFINITY PREDICTED BY RF-SCORE:    0.00 PKD
ROOT
HETATM    1  C   UNL     1      -7.092  10.523  70.002  1.00  0.00    -0.133 C  
HETATM    2  C   UNL     1      -7.394   9.106  69.601  1.00  0.00    -0.065 C  
HETATM    3  N   UNL     1      -8.679   8.619  69.853  1.00  0.00    -0.130 N  
HETATM    4  O   UNL     1      -6.526   8.436  69.038  1.00  0.00    -0.046 OA 
ENDROOT
BRANCH   3   5
HETATM    5  C   UNL     1      -8.902   7.254  69.475  1.00  0.00    -0.137 A  
HETATM    6  I   UNL     1      -9.050   2.469  68.151  1.00  0.00    -0.240 I  
HETATM    7  C   UNL     1      -9.216   4.547  68.769  1.00  0.00    -0.131 A  
HETATM    8  C   UNL     1      -9.304   6.903  68.158  1.00  0.00    -0.124 A  
HETATM    9  I   UNL     1      -9.789   8.494  66.771  1.00  0.00    -0.346 I  
HETATM   10  C   UNL     1      -8.778   6.246  70.468  1.00  0.00    -0.143 A  
HETATM   11  C   UNL     1      -8.923   4.884  70.121  1.00  0.00    -0.146 A  
HETATM   12  C   UNL     1      -9.461   5.544  67.789  1.00  0.00    -0.125 A  
HETATM   13  I   UNL     1      -8.425   6.870  72.528  1.00  0.00    -0.134 I  
BRANCH  12  14
HETATM   14  C   UNL     1      -9.786   5.194  66.368  1.00  0.00    -0.173 C  
HETATM   15  N   UNL     1      -8.731   5.040  65.490  1.00  0.00    -0.138 N  
HETATM   16  O   UNL     1     -10.955   5.067  66.020  1.00  0.00    -0.243 OA 
HETATM   17  H   UNL     1      -7.778   5.167  65.830  1.00  0.00     0.000 HD 
BRANCH  15  18
HETATM   18  C   UNL     1      -8.947   4.701  64.085  1.00  0.00    -0.126 C  
BRANCH  18  19
HETATM   19  C   UNL     1      -8.559   3.248  63.772  1.00  0.00    -0.089 C  
HETATM   20  H   UNL     1      -7.300   1.922  64.496  1.00  0.00     0.000 HD 
HETATM   21  O   UNL     1      -7.540   2.821  64.689  1.00  0.00    -0.073 OA 
BRANCH  19  22
HETATM   22  C   UNL     1      -9.776   2.309  63.843  1.00  0.00    -0.137 C  
HETATM   23  O   UNL     1     -10.997   3.035  63.968  1.00  0.00    -0.508 OA 
HETATM   24  H   UNL     1     -11.748   2.456  64.011  1.00  0.00     0.000 HD 
ENDBRANCH  19  22
ENDBRANCH  18  19
ENDBRANCH  15  18
ENDBRANCH  12  14
BRANCH  11  25
HETATM   25  C   UNL     1      -8.865   3.818  71.157  1.00  0.00    -0.085 C  
HETATM   26  O   UNL     1      -7.780   3.347  71.482  1.00  0.00    -0.054 OA 
HETATM   27  H   UNL     1     -10.930   3.844  71.421  1.00  0.00     0.000 HD 
HETATM   28  N   UNL     1     -10.062   3.388  71.705  1.00  0.00    -0.122 N  
BRANCH  28  29
HETATM   29  C   UNL     1     -10.117   2.308  72.672  1.00  0.00    -0.144 C  
BRANCH  29  30
HETATM   30  C   UNL     1     -11.107   2.635  73.781  1.00  0.00    -0.212 C  
HETATM   31  O   UNL     1     -11.011   4.022  74.110  1.00  0.00    -0.205 OA 
HETATM   32  H   UNL     1     -11.628   4.226  74.802  1.00  0.00     0.000 HD 
ENDBRANCH  29  30
ENDBRANCH  28  29
ENDBRANCH  11  25
ENDBRANCH   3   5
BRANCH   3  33
HETATM   33  C   UNL     1      -9.734   9.321  70.638  1.00  0.00    -0.272 C  
BRANCH  33  34
HETATM   34  C   UNL     1     -11.138   9.447  69.984  1.00  0.00    -0.221 C  
HETATM   35  O   UNL     1     -12.109   8.591  70.603  1.00  0.00    -0.485 OA 
HETATM   36  H   UNL     1     -12.967   8.668  70.203  1.00  0.00     0.000 HD 
BRANCH  34  37
HETATM   37  C   UNL     1     -11.682  10.886  70.034  1.00  0.00    -0.345 C  
HETATM   38  H   UNL     1     -12.537  12.174  68.795  1.00  0.00     0.000 HD 
HETATM   39  O   UNL     1     -12.201  11.286  68.764  1.00  0.00    -0.532 OA 
ENDBRANCH  34  37
ENDBRANCH  33  34
ENDBRANCH   3  33
TORSDOF 11
ENDMDL
MODEL       77
REMARK 921   NORMALIZED FREE ENERGY PREDICTED BY IDOCK:   -4.05 KCAL/MOL
REMARK 922        TOTAL FREE ENERGY PREDICTED BY IDOCK:   -7.26 KCAL/MOL
REMARK 923 INTER-LIGAND FREE ENERGY PREDICTED BY IDOCK:   -7.50 KCAL/MOL
REMARK 924 INTRA-LIGAND FREE ENERGY PREDICTED BY IDOCK:    0.24 KCAL/MOL
REMARK 927      BINDING AFFINITY PREDICTED BY RF-SCORE:    0.00 PKD
ROOT
HETATM    1  C   UNL     1     -12.521  12.712  64.918  1.00  0.00    -0.564 C  
HETATM    2  C   UNL     1     -11.154  12.658  65.543  1.00  0.00    -0.294 C  
HETATM    3  N   UNL     1     -11.009  13.171  66.835  1.00  0.00    -0.272 N  
HETATM    4  O   UNL     1     -10.223  12.140  64.923  1.00  0.00    -0.270 OA 
ENDROOT
BRANCH   3   5
HETATM    5  C   UNL     1      -9.679  13.119  67.369  1.00  0.00    -0.220 A  
HETATM    6  I   UNL     1      -5.343  12.966  69.786  1.00  0.00    -0.115 I  
HETATM    7  C   UNL     1      -7.120  12.982  68.534  1.00  0.00    -0.105 A  
HETATM    8  C   UNL     1      -8.827  14.256  67.352  1.00  0.00    -0.205 A  
HETATM    9  I   UNL     1      -9.493  16.029  66.300  1.00  0.00    -0.395 I  
HETATM   10  C   UNL     1      -9.195  11.880  67.864  1.00  0.00    -0.187 A  
HETATM   11  C   UNL     1      -7.917  11.803  68.461  1.00  0.00    -0.145 A  
HETATM   12  C   UNL     1      -7.538  14.201  67.938  1.00  0.00    -0.162 A  
HETATM   13  I   UNL     1     -10.450  10.113  67.617  1.00  0.00    -0.343 I  
BRANCH  12  14
HETATM   14  C   UNL     1      -6.697  15.439  67.999  1.00  0.00    -0.144 C  
HETATM   15  N   UNL     1      -6.982  16.360  68.988  1.00  0.00    -0.187 N  
HETATM   16  O   UNL     1      -5.801  15.613  67.179  1.00  0.00    -0.329 OA 
HETATM   17  H   UNL     1      -7.745  16.170  69.639  1.00  0.00     0.000 HD 
BRANCH  15  18
HETATM   18  C   UNL     1      -6.219  17.598  69.127  1.00  0.00    -0.226 C  
BRANCH  18  19
HETATM   19  C   UNL     1      -7.023  18.829  68.684  1.00  0.00    -0.283 C  
HETATM   20  H   UNL     1      -7.508  20.569  69.462  1.00  0.00     0.000 HD 
HETATM   21  O   UNL     1      -7.010  19.808  69.736  1.00  0.00    -0.317 OA 
BRANCH  19  22
HETATM   22  C   UNL     1      -6.467  19.431  67.382  1.00  0.00    -0.195 C  
HETATM   23  O   UNL     1      -5.945  18.424  66.516  1.00  0.00    -0.147 OA 
HETATM   24  H   UNL     1      -5.602  18.795  65.712  1.00  0.00     0.000 HD 
ENDBRANCH  19  22
ENDBRANCH  18  19
ENDBRANCH  15  18
ENDBRANCH  12  14
BRANCH  11  25
HETATM   25  C   UNL     1      -7.362  10.502  68.923  1.00  0.00    -0.098 C  
HETATM   26  O   UNL     1      -6.606   9.872  68.190  1.00  0.00    -0.056 OA 
HETATM   27  H   UNL     1      -8.348  10.633  70.751  1.00  0.00     0.000 HD 
HETATM   28  N   UNL     1      -7.746  10.047  70.174  1.00  0.00    -0.173 N  
BRANCH  28  29
HETATM   29  C   UNL     1      -7.314   8.760  70.685  1.00  0.00    -0.072 C  
BRANCH  29  30
HETATM   30  C   UNL     1      -8.340   7.685  70.356  1.00  0.00    -0.124 C  
HETATM   31  O   UNL     1      -8.097   7.183  69.040  1.00  0.00    -0.118 OA 
HETATM   32  H   UNL     1      -8.737   6.512  68.834  1.00  0.00     0.000 HD 
ENDBRANCH  29  30
ENDBRANCH  28  29
ENDBRANCH  11  25
ENDBRANCH   3   5
BRANCH   3  33
HETATM   33  C   UNL     1     -12.051  13.923  67.592  1.00  0.00    -0.307 C  
BRANCH  33  34
HETATM   34  C   UNL     1     -12.036  13.788  69.139  1.00  0.00    -0.333 C  
HETATM   35  O   UNL     1     -11.320  12.625  69.580  1.00  0.00    -0.439 OA 
HETATM   36  H   UNL     1     -11.311  12.543  70.526  1.00  0.00     0.000 HD 
BRANCH  34  37
HETATM   37  C   UNL     1     -11.409  15.013  69.830  1.00  0.00    -0.283 C  
HETATM   38  H   UNL     1     -11.968  16.422  71.106  1.00  0.00     0.000 HD 
HETATM   39  O   UNL     1     -12.355  15.666  70.680  1.00  0.00    -0.391 OA 
ENDBRANCH  34  37
ENDBRANCH  33  34
ENDBRANCH   3  33
TORSDOF 11
ENDMDL
MODEL       78
REMARK 921   NORMALIZED FREE ENERGY PREDICTED BY IDOCK:   -4.04 KCAL/MOL
REMARK 922        TOTAL FREE ENERGY PREDICTED BY IDOCK:   -7.24 KCAL/MOL
REMARK 923 INTER-LIGAND FREE ENERGY PREDICTED BY IDOCK:   -6.29 KCAL/MOL
REMARK 924 INTRA-LIGAND FREE ENERGY PREDICTED BY IDOCK:   -0.95 KCAL/MOL
REMARK 927      BINDING AFFINITY PREDICTED BY RF-SCORE:    0.00 PKD
ROOT
HETATM    1  C   UNL     1      -6.859   6.440  65.473  1.00  0.00    -0.048 C  
HETATM    2  C   UNL     1      -7.988   7.155  66.161  1.00  0.00    -0.112 C  
HETATM    3  N   UNL     1      -7.691   7.880  67.318  1.00  0.00    -0.103 N  
HETATM    4  O   UNL     1      -9.121   7.113  65.674  1.00  0.00    -0.027 OA 
ENDROOT
BRANCH   3   5
HETATM    5  C   UNL     1      -8.811   8.517  67.947  1.00  0.00    -0.137 A  
HETATM    6  I   UNL     1     -12.268  11.098  70.408  1.00  0.00    -0.407 I  
HETATM    7  C   UNL     1     -10.931   9.873  69.210  1.00  0.00    -0.211 A  
HETATM    8  C   UNL     1      -9.500   7.909  69.031  1.00  0.00    -0.151 A  
HETATM    9  I   UNL     1      -8.966   5.885  69.586  1.00  0.00    -0.153 I  
HETATM   10  C   UNL     1      -9.270   9.755  67.423  1.00  0.00    -0.134 A  
HETATM   11  C   UNL     1     -10.325  10.448  68.056  1.00  0.00    -0.212 A  
HETATM   12  C   UNL     1     -10.566   8.583  69.677  1.00  0.00    -0.221 A  
HETATM   13  I   UNL     1      -8.343  10.504  65.595  1.00  0.00    -0.121 I  
BRANCH  12  14
HETATM   14  C   UNL     1     -11.211   7.967  70.881  1.00  0.00    -0.270 C  
HETATM   15  N   UNL     1     -10.579   8.126  72.099  1.00  0.00    -0.266 N  
HETATM   16  O   UNL     1     -12.257   7.337  70.761  1.00  0.00    -0.296 OA 
HETATM   17  H   UNL     1      -9.706   8.652  72.140  1.00  0.00     0.000 HD 
BRANCH  15  18
HETATM   18  C   UNL     1     -11.130   7.561  73.329  1.00  0.00    -0.241 C  
BRANCH  18  19
HETATM   19  C   UNL     1     -10.316   6.359  73.832  1.00  0.00    -0.322 C  
HETATM   20  H   UNL     1     -10.215   4.438  73.427  1.00  0.00     0.000 HD 
HETATM   21  O   UNL     1     -10.718   5.181  73.116  1.00  0.00    -0.218 OA 
BRANCH  19  22
HETATM   22  C   UNL     1      -8.803   6.594  73.676  1.00  0.00    -0.127 C  
HETATM   23  O   UNL     1      -8.415   7.876  74.167  1.00  0.00    -0.237 OA 
HETATM   24  H   UNL     1      -7.481   8.021  74.071  1.00  0.00     0.000 HD 
ENDBRANCH  19  22
ENDBRANCH  18  19
ENDBRANCH  15  18
ENDBRANCH  12  14
BRANCH  11  25
HETATM   25  C   UNL     1     -10.867  11.710  67.483  1.00  0.00    -0.237 C  
HETATM   26  O   UNL     1     -11.799  11.661  66.686  1.00  0.00    -0.533 OA 
HETATM   27  H   UNL     1      -9.526  12.878  68.564  1.00  0.00     0.000 HD 
HETATM   28  N   UNL     1     -10.274  12.899  67.871  1.00  0.00    -0.227 N  
BRANCH  28  29
HETATM   29  C   UNL     1     -10.685  14.175  67.317  1.00  0.00    -0.279 C  
BRANCH  29  30
HETATM   30  C   UNL     1      -9.775  14.574  66.164  1.00  0.00    -0.316 C  
HETATM   31  O   UNL     1     -10.270  14.007  64.949  1.00  0.00    -0.477 OA 
HETATM   32  H   UNL     1      -9.701  14.256  64.230  1.00  0.00     0.000 HD 
ENDBRANCH  29  30
ENDBRANCH  28  29
ENDBRANCH  11  25
ENDBRANCH   3   5
BRANCH   3  33
HETATM   33  C   UNL     1      -6.382   7.874  68.033  1.00  0.00    -0.051 C  
BRANCH  33  34
HETATM   34  C   UNL     1      -5.401   9.037  67.721  1.00  0.00    -0.035 C  
HETATM   35  O   UNL     1      -5.338   9.338  66.320  1.00  0.00    -0.039 OA 
HETATM   36  H   UNL     1      -4.738  10.049  66.129  1.00  0.00     0.000 HD 
BRANCH  34  37
HETATM   37  C   UNL     1      -5.772  10.333  68.463  1.00  0.00    -0.037 C  
HETATM   38  H   UNL     1      -6.500  10.854  70.230  1.00  0.00     0.000 HD 
HETATM   39  O   UNL     1      -6.271  10.053  69.773  1.00  0.00    -0.045 OA 
ENDBRANCH  34  37
ENDBRANCH  33  34
ENDBRANCH   3  33
TORSDOF 11
ENDMDL
MODEL       79
REMARK 921   NORMALIZED FREE ENERGY PREDICTED BY IDOCK:   -4.02 KCAL/MOL
REMARK 922        TOTAL FREE ENERGY PREDICTED BY IDOCK:   -7.22 KCAL/MOL
REMARK 923 INTER-LIGAND FREE ENERGY PREDICTED BY IDOCK:   -6.73 KCAL/MOL
REMARK 924 INTRA-LIGAND FREE ENERGY PREDICTED BY IDOCK:   -0.48 KCAL/MOL
REMARK 927      BINDING AFFINITY PREDICTED BY RF-SCORE:    0.00 PKD
ROOT
HETATM    1  C   UNL     1      -5.323   8.946  66.643  1.00  0.00    -0.039 C  
HETATM    2  C   UNL     1      -5.998  10.289  66.629  1.00  0.00    -0.062 C  
HETATM    3  N   UNL     1      -7.025  10.511  67.550  1.00  0.00    -0.079 N  
HETATM    4  O   UNL     1      -5.610  11.156  65.842  1.00  0.00    -0.144 OA 
ENDROOT
BRANCH   3   5
HETATM    5  C   UNL     1      -7.651  11.799  67.472  1.00  0.00    -0.135 A  
HETATM    6  I   UNL     1      -9.549  16.313  66.639  1.00  0.00    -0.338 I  
HETATM    7  C   UNL     1      -8.861  14.325  67.188  1.00  0.00    -0.229 A  
HETATM    8  C   UNL     1      -7.149  12.915  68.195  1.00  0.00    -0.108 A  
HETATM    9  I   UNL     1      -5.534  12.590  69.601  1.00  0.00    -0.117 I  
HETATM   10  C   UNL     1      -8.837  11.931  66.703  1.00  0.00    -0.191 A  
HETATM   11  C   UNL     1      -9.446  13.196  66.545  1.00  0.00    -0.246 A  
HETATM   12  C   UNL     1      -7.747  14.192  68.058  1.00  0.00    -0.147 A  
HETATM   13  I   UNL     1      -9.709  10.127  65.838  1.00  0.00    -0.332 I  
BRANCH  12  14
HETATM   14  C   UNL     1      -7.138  15.374  68.749  1.00  0.00    -0.125 C  
HETATM   15  N   UNL     1      -6.240  16.141  68.035  1.00  0.00    -0.119 N  
HETATM   16  O   UNL     1      -7.434  15.622  69.913  1.00  0.00    -0.115 OA 
HETATM   17  H   UNL     1      -6.022  15.884  67.072  1.00  0.00     0.000 HD 
BRANCH  15  18
HETATM   18  C   UNL     1      -5.593  17.312  68.624  1.00  0.00    -0.147 C  
BRANCH  18  19
HETATM   19  C   UNL     1      -5.558  18.505  67.656  1.00  0.00    -0.158 C  
HETATM   20  H   UNL     1      -5.989  18.816  65.762  1.00  0.00     0.000 HD 
HETATM   21  O   UNL     1      -6.011  18.078  66.361  1.00  0.00    -0.146 OA 
BRANCH  19  22
HETATM   22  C   UNL     1      -6.415  19.675  68.168  1.00  0.00    -0.245 C  
HETATM   23  O   UNL     1      -6.681  20.625  67.138  1.00  0.00    -0.247 OA 
HETATM   24  H   UNL     1      -7.210  21.348  67.454  1.00  0.00     0.000 HD 
ENDBRANCH  19  22
ENDBRANCH  18  19
ENDBRANCH  15  18
ENDBRANCH  12  14
BRANCH  11  25
HETATM   25  C   UNL     1     -10.726  13.345  65.801  1.00  0.00    -0.274 C  
HETATM   26  O   UNL     1     -11.769  13.525  66.422  1.00  0.00    -0.335 OA 
HETATM   27  H   UNL     1      -9.779  13.141  63.959  1.00  0.00     0.000 HD 
HETATM   28  N   UNL     1     -10.682  13.255  64.420  1.00  0.00    -0.403 N  
BRANCH  28  29
HETATM   29  C   UNL     1     -11.884  13.319  63.611  1.00  0.00    -0.458 C  
BRANCH  29  30
HETATM   30  C   UNL     1     -12.652  12.007  63.693  1.00  0.00    -0.490 C  
HETATM   31  O   UNL     1     -12.477  11.278  62.477  1.00  0.00    -0.551 OA 
HETATM   32  H   UNL     1     -12.956  10.459  62.528  1.00  0.00     0.000 HD 
ENDBRANCH  29  30
ENDBRANCH  28  29
ENDBRANCH  11  25
ENDBRANCH   3   5
BRANCH   3  33
HETATM   33  C   UNL     1      -7.631   9.479  68.439  1.00  0.00    -0.081 C  
BRANCH  33  34
HETATM   34  C   UNL     1      -8.193   9.962  69.804  1.00  0.00    -0.180 C  
HETATM   35  O   UNL     1      -9.622  10.089  69.793  1.00  0.00    -0.222 OA 
HETATM   36  H   UNL     1      -9.966  10.384  70.627  1.00  0.00     0.000 HD 
BRANCH  34  37
HETATM   37  C   UNL     1      -7.816   9.019  70.962  1.00  0.00    -0.142 C  
HETATM   38  H   UNL     1      -6.259   8.699  72.143  1.00  0.00     0.000 HD 
HETATM   39  O   UNL     1      -6.491   9.281  71.429  1.00  0.00    -0.126 OA 
ENDBRANCH  34  37
ENDBRANCH  33  34
ENDBRANCH   3  33
TORSDOF 11
ENDMDL
MODEL       80
REMARK 921   NORMALIZED FREE ENERGY PREDICTED BY IDOCK:   -4.00 KCAL/MOL
REMARK 922        TOTAL FREE ENERGY PREDICTED BY IDOCK:   -7.19 KCAL/MOL
REMARK 923 INTER-LIGAND FREE ENERGY PREDICTED BY IDOCK:   -6.36 KCAL/MOL
REMARK 924 INTRA-LIGAND FREE ENERGY PREDICTED BY IDOCK:   -0.83 KCAL/MOL
REMARK 927      BINDING AFFINITY PREDICTED BY RF-SCORE:    0.00 PKD
ROOT
HETATM    1  C   UNL     1      -7.659   4.019  65.395  1.00  0.00    -0.082 C  
HETATM    2  C   UNL     1      -8.516   5.094  66.003  1.00  0.00    -0.118 C  
HETATM    3  N   UNL     1      -7.897   6.018  66.849  1.00  0.00    -0.101 N  
HETATM    4  O   UNL     1      -9.714   5.153  65.715  1.00  0.00    -0.159 OA 
ENDROOT
BRANCH   3   5
HETATM    5  C   UNL     1      -8.766   7.004  67.422  1.00  0.00    -0.120 A  
HETATM    6  I   UNL     1     -11.261  10.676  69.650  1.00  0.00    -0.407 I  
HETATM    7  C   UNL     1     -10.369   9.018  68.564  1.00  0.00    -0.203 A  
HETATM    8  C   UNL     1      -9.566   6.717  68.561  1.00  0.00    -0.130 A  
HETATM    9  I   UNL     1      -9.617   4.682  69.300  1.00  0.00    -0.228 I  
HETATM   10  C   UNL     1      -8.868   8.270  66.787  1.00  0.00    -0.140 A  
HETATM   11  C   UNL     1      -9.661   9.290  67.358  1.00  0.00    -0.190 A  
HETATM   12  C   UNL     1     -10.374   7.723  69.147  1.00  0.00    -0.219 A  
HETATM   13  I   UNL     1      -7.825   8.557  64.893  1.00  0.00    -0.138 I  
BRANCH  12  14
HETATM   14  C   UNL     1     -11.129   7.427  70.407  1.00  0.00    -0.265 C  
HETATM   15  N   UNL     1     -10.490   7.664  71.608  1.00  0.00    -0.197 N  
HETATM   16  O   UNL     1     -12.269   6.979  70.347  1.00  0.00    -0.239 OA 
HETATM   17  H   UNL     1      -9.537   8.029  71.601  1.00  0.00     0.000 HD 
BRANCH  15  18
HETATM   18  C   UNL     1     -11.144   7.405  72.889  1.00  0.00    -0.349 C  
BRANCH  18  19
HETATM   19  C   UNL     1     -10.717   6.061  73.499  1.00  0.00    -0.250 C  
HETATM   20  H   UNL     1     -11.362   4.204  73.447  1.00  0.00     0.000 HD 
HETATM   21  O   UNL     1     -11.626   5.035  73.070  1.00  0.00    -0.312 OA 
BRANCH  19  22
HETATM   22  C   UNL     1      -9.273   5.697  73.112  1.00  0.00    -0.132 C  
HETATM   23  O   UNL     1      -8.392   5.772  74.232  1.00  0.00    -0.109 OA 
HETATM   24  H   UNL     1      -7.501   5.547  73.994  1.00  0.00     0.000 HD 
ENDBRANCH  19  22
ENDBRANCH  18  19
ENDBRANCH  15  18
ENDBRANCH  12  14
BRANCH  11  25
HETATM   25  C   UNL     1      -9.837  10.599  66.673  1.00  0.00    -0.201 C  
HETATM   26  O   UNL     1      -9.059  11.518  66.913  1.00  0.00    -0.169 OA 
HETATM   27  H   UNL     1     -11.489   9.918  65.608  1.00  0.00     0.000 HD 
HETATM   28  N   UNL     1     -10.899  10.728  65.793  1.00  0.00    -0.079 N  
BRANCH  28  29
HETATM   29  C   UNL     1     -11.194  11.983  65.129  1.00  0.00    -0.315 C  
BRANCH  29  30
HETATM   30  C   UNL     1     -10.952  11.864  63.631  1.00  0.00    -0.440 C  
HETATM   31  O   UNL     1     -12.156  11.442  62.987  1.00  0.00    -0.934 OA 
HETATM   32  H   UNL     1     -12.005  11.368  62.053  1.00  0.00     0.000 HD 
ENDBRANCH  29  30
ENDBRANCH  28  29
ENDBRANCH  11  25
ENDBRANCH   3   5
BRANCH   3  33
HETATM   33  C   UNL     1      -6.492   5.938  67.341  1.00  0.00    -0.047 C  
BRANCH  33  34
HETATM   34  C   UNL     1      -6.217   5.000  68.549  1.00  0.00    -0.031 C  
HETATM   35  O   UNL     1      -5.238   3.994  68.249  1.00  0.00    -0.010 OA 
HETATM   36  H   UNL     1      -5.070   3.421  68.987  1.00  0.00     0.000 HD 
BRANCH  34  37
HETATM   37  C   UNL     1      -5.733   5.768  69.791  1.00  0.00    -0.019 C  
HETATM   38  H   UNL     1      -5.811   7.620  70.492  1.00  0.00     0.000 HD 
HETATM   39  O   UNL     1      -6.110   7.145  69.725  1.00  0.00    -0.026 OA 
ENDBRANCH  34  37
ENDBRANCH  33  34
ENDBRANCH   3  33
TORSDOF 11
ENDMDL
MODEL       81
REMARK 921   NORMALIZED FREE ENERGY PREDICTED BY IDOCK:   -3.95 KCAL/MOL
REMARK 922        TOTAL FREE ENERGY PREDICTED BY IDOCK:   -7.09 KCAL/MOL
REMARK 923 INTER-LIGAND FREE ENERGY PREDICTED BY IDOCK:   -6.61 KCAL/MOL
REMARK 924 INTRA-LIGAND FREE ENERGY PREDICTED BY IDOCK:   -0.48 KCAL/MOL
REMARK 927      BINDING AFFINITY PREDICTED BY RF-SCORE:    0.00 PKD
ROOT
HETATM    1  C   UNL     1      -8.078   4.256  65.998  1.00  0.00    -0.102 C  
HETATM    2  C   UNL     1      -8.826   5.443  66.538  1.00  0.00    -0.118 C  
HETATM    3  N   UNL     1      -8.103   6.392  67.266  1.00  0.00    -0.112 N  
HETATM    4  O   UNL     1     -10.030   5.563  66.298  1.00  0.00    -0.163 OA 
ENDROOT
BRANCH   3   5
HETATM    5  C   UNL     1      -8.873   7.486  67.781  1.00  0.00    -0.132 A  
HETATM    6  I   UNL     1     -12.035  11.004  69.295  1.00  0.00    -0.132 I  
HETATM    7  C   UNL     1     -10.493   9.564  68.774  1.00  0.00    -0.219 A  
HETATM    8  C   UNL     1      -8.834   8.772  67.175  1.00  0.00    -0.127 A  
HETATM    9  I   UNL     1      -7.414   9.115  65.577  1.00  0.00    -0.094 I  
HETATM   10  C   UNL     1      -9.636   7.284  68.960  1.00  0.00    -0.147 A  
HETATM   11  C   UNL     1     -10.461   8.316  69.460  1.00  0.00    -0.228 A  
HETATM   12  C   UNL     1      -9.647   9.824  67.664  1.00  0.00    -0.169 A  
HETATM   13  I   UNL     1      -9.444   5.372  69.994  1.00  0.00    -0.269 I  
BRANCH  12  14
HETATM   14  C   UNL     1      -9.665  11.141  66.948  1.00  0.00    -0.191 C  
HETATM   15  N   UNL     1      -8.915  12.171  67.481  1.00  0.00    -0.170 N  
HETATM   16  O   UNL     1     -10.341  11.277  65.933  1.00  0.00    -0.239 OA 
HETATM   17  H   UNL     1      -8.378  12.006  68.332  1.00  0.00     0.000 HD 
BRANCH  15  18
HETATM   18  C   UNL     1      -8.871  13.490  66.855  1.00  0.00    -0.182 C  
BRANCH  18  19
HETATM   19  C   UNL     1      -9.983  14.416  67.370  1.00  0.00    -0.242 C  
HETATM   20  H   UNL     1     -10.235  15.625  68.900  1.00  0.00     0.000 HD 
HETATM   21  O   UNL     1      -9.547  15.052  68.581  1.00  0.00    -0.204 OA 
BRANCH  19  22
HETATM   22  C   UNL     1     -10.377  15.468  66.319  1.00  0.00    -0.302 C  
HETATM   23  O   UNL     1      -9.232  16.105  65.755  1.00  0.00    -0.400 OA 
HETATM   24  H   UNL     1      -9.475  16.754  65.106  1.00  0.00     0.000 HD 
ENDBRANCH  19  22
ENDBRANCH  18  19
ENDBRANCH  15  18
ENDBRANCH  12  14
BRANCH  11  25
HETATM   25  C   UNL     1     -11.215   8.149  70.732  1.00  0.00    -0.261 C  
HETATM   26  O   UNL     1     -10.762   8.620  71.771  1.00  0.00    -0.269 OA 
HETATM   27  H   UNL     1     -12.748   7.105  69.787  1.00  0.00     0.000 HD 
HETATM   28  N   UNL     1     -12.405   7.442  70.687  1.00  0.00    -0.119 N  
BRANCH  28  29
HETATM   29  C   UNL     1     -13.177   7.167  71.883  1.00  0.00    -0.221 C  
BRANCH  29  30
HETATM   30  C   UNL     1     -14.306   8.178  72.033  1.00  0.00    -0.430 C  
HETATM   31  O   UNL     1     -14.152   8.881  73.268  1.00  0.00    -1.211 OA 
HETATM   32  H   UNL     1     -14.857   9.512  73.361  1.00  0.00     0.000 HD 
ENDBRANCH  29  30
ENDBRANCH  28  29
ENDBRANCH  11  25
ENDBRANCH   3   5
BRANCH   3  33
HETATM   33  C   UNL     1      -6.684   6.253  67.702  1.00  0.00    -0.061 C  
BRANCH  33  34
HETATM   34  C   UNL     1      -6.292   6.907  69.056  1.00  0.00    -0.028 C  
HETATM   35  O   UNL     1      -5.753   5.957  69.986  1.00  0.00    -0.015 OA 
HETATM   36  H   UNL     1      -5.514   6.356  70.814  1.00  0.00     0.000 HD 
BRANCH  34  37
HETATM   37  C   UNL     1      -5.258   8.034  68.886  1.00  0.00    -0.023 C  
HETATM   38  H   UNL     1      -4.996   9.892  69.523  1.00  0.00     0.000 HD 
HETATM   39  O   UNL     1      -5.634   9.196  69.628  1.00  0.00    -0.033 OA 
ENDBRANCH  34  37
ENDBRANCH  33  34
ENDBRANCH   3  33
TORSDOF 11
ENDMDL
MODEL       82
REMARK 921   NORMALIZED FREE ENERGY PREDICTED BY IDOCK:   -3.93 KCAL/MOL
REMARK 922        TOTAL FREE ENERGY PREDICTED BY IDOCK:   -7.07 KCAL/MOL
REMARK 923 INTER-LIGAND FREE ENERGY PREDICTED BY IDOCK:   -5.67 KCAL/MOL
REMARK 924 INTRA-LIGAND FREE ENERGY PREDICTED BY IDOCK:   -1.40 KCAL/MOL
REMARK 927      BINDING AFFINITY PREDICTED BY RF-SCORE:    0.00 PKD
ROOT
HETATM    1  C   UNL     1      -9.131   6.553  73.381  1.00  0.00    -0.140 C  
HETATM    2  C   UNL     1      -8.684   6.471  71.949  1.00  0.00    -0.130 C  
HETATM    3  N   UNL     1      -9.670   6.378  70.963  1.00  0.00    -0.175 N  
HETATM    4  O   UNL     1      -7.480   6.522  71.684  1.00  0.00    -0.086 OA 
ENDROOT
BRANCH   3   5
HETATM    5  C   UNL     1      -9.185   6.274  69.618  1.00  0.00    -0.141 A  
HETATM    6  I   UNL     1      -8.095   6.027  64.778  1.00  0.00    -0.039 I  
HETATM    7  C   UNL     1      -8.341   6.133  66.936  1.00  0.00    -0.106 A  
HETATM    8  C   UNL     1      -8.890   5.015  69.029  1.00  0.00    -0.092 A  
HETATM    9  I   UNL     1      -8.980   3.248  70.278  1.00  0.00    -0.215 I  
HETATM   10  C   UNL     1      -8.937   7.469  68.892  1.00  0.00    -0.134 A  
HETATM   11  C   UNL     1      -8.524   7.409  67.542  1.00  0.00    -0.116 A  
HETATM   12  C   UNL     1      -8.468   4.930  67.679  1.00  0.00    -0.104 A  
HETATM   13  I   UNL     1      -9.150   9.372  69.938  1.00  0.00    -0.281 I  
BRANCH  12  14
HETATM   14  C   UNL     1      -8.262   3.586  67.049  1.00  0.00    -0.091 C  
HETATM   15  N   UNL     1      -9.353   2.983  66.455  1.00  0.00    -0.331 N  
HETATM   16  O   UNL     1      -7.157   3.056  67.086  1.00  0.00    -0.052 OA 
HETATM   17  H   UNL     1     -10.252   3.465  66.461  1.00  0.00     0.000 HD 
BRANCH  15  18
HETATM   18  C   UNL     1      -9.251   1.672  65.816  1.00  0.00     0.010 C  
BRANCH  18  19
HETATM   19  C   UNL     1      -9.524   1.739  64.306  1.00  0.00    -0.134 C  
HETATM   20  H   UNL     1     -10.430   2.976  63.075  1.00  0.00     0.000 HD 
HETATM   21  O   UNL     1     -10.262   2.935  64.010  1.00  0.00    -0.160 OA 
BRANCH  19  22
HETATM   22  C   UNL     1      -8.218   1.695  63.493  1.00  0.00    -0.065 C  
HETATM   23  O   UNL     1      -7.094   2.088  64.277  1.00  0.00    -0.048 OA 
HETATM   24  H   UNL     1      -6.288   2.061  63.775  1.00  0.00     0.000 HD 
ENDBRANCH  19  22
ENDBRANCH  18  19
ENDBRANCH  15  18
ENDBRANCH  12  14
BRANCH  11  25
HETATM   25  C   UNL     1      -8.192   8.646  66.785  1.00  0.00    -0.108 C  
HETATM   26  O   UNL     1      -7.036   9.060  66.779  1.00  0.00    -0.080 OA 
HETATM   27  H   UNL     1     -10.155   8.879  66.136  1.00  0.00     0.000 HD 
HETATM   28  N   UNL     1      -9.223   9.292  66.124  1.00  0.00    -0.180 N  
BRANCH  28  29
HETATM   29  C   UNL     1      -9.013  10.541  65.416  1.00  0.00    -0.186 C  
BRANCH  29  30
HETATM   30  C   UNL     1      -9.084  11.718  66.378  1.00  0.00    -0.213 C  
HETATM   31  O   UNL     1      -7.760  12.161  66.685  1.00  0.00    -0.368 OA 
HETATM   32  H   UNL     1      -7.805  12.896  67.286  1.00  0.00     0.000 HD 
ENDBRANCH  29  30
ENDBRANCH  28  29
ENDBRANCH  11  25
ENDBRANCH   3   5
BRANCH   3  33
HETATM   33  C   UNL     1     -11.127   6.184  71.210  1.00  0.00    -0.291 C  
BRANCH  33  34
HETATM   34  C   UNL     1     -12.040   7.434  71.079  1.00  0.00    -0.298 C  
HETATM   35  O   UNL     1     -13.383   7.093  70.705  1.00  0.00    -0.558 OA 
HETATM   36  H   UNL     1     -13.942   7.857  70.625  1.00  0.00     0.000 HD 
BRANCH  34  37
HETATM   37  C   UNL     1     -12.110   8.251  72.382  1.00  0.00    -0.369 C  
HETATM   38  H   UNL     1     -12.863   9.979  72.989  1.00  0.00     0.000 HD 
HETATM   39  O   UNL     1     -12.821   9.475  72.185  1.00  0.00    -0.388 OA 
ENDBRANCH  34  37
ENDBRANCH  33  34
ENDBRANCH   3  33
TORSDOF 11
ENDMDL
MODEL       83
REMARK 921   NORMALIZED FREE ENERGY PREDICTED BY IDOCK:   -3.93 KCAL/MOL
REMARK 922        TOTAL FREE ENERGY PREDICTED BY IDOCK:   -7.06 KCAL/MOL
REMARK 923 INTER-LIGAND FREE ENERGY PREDICTED BY IDOCK:   -7.01 KCAL/MOL
REMARK 924 INTRA-LIGAND FREE ENERGY PREDICTED BY IDOCK:   -0.05 KCAL/MOL
REMARK 927      BINDING AFFINITY PREDICTED BY RF-SCORE:    0.00 PKD
ROOT
HETATM    1  C   UNL     1      -9.555   4.772  69.586  1.00  0.00    -0.253 C  
HETATM    2  C   UNL     1     -10.106   6.096  69.136  1.00  0.00    -0.170 C  
HETATM    3  N   UNL     1      -9.427   7.252  69.530  1.00  0.00    -0.155 N  
HETATM    4  O   UNL     1     -11.105   6.124  68.413  1.00  0.00    -0.330 OA 
ENDROOT
BRANCH   3   5
HETATM    5  C   UNL     1     -10.013   8.486  69.095  1.00  0.00    -0.192 A  
HETATM    6  I   UNL     1     -11.524  13.039  67.808  1.00  0.00    -0.411 I  
HETATM    7  C   UNL     1     -11.043  10.965  68.248  1.00  0.00    -0.266 A  
HETATM    8  C   UNL     1     -11.059   9.110  69.827  1.00  0.00    -0.125 A  
HETATM    9  I   UNL     1     -11.915   8.049  71.510  1.00  0.00    -0.387 I  
HETATM   10  C   UNL     1      -9.572   9.052  67.870  1.00  0.00    -0.147 A  
HETATM   11  C   UNL     1     -10.074  10.301  67.442  1.00  0.00    -0.246 A  
HETATM   12  C   UNL     1     -11.584  10.359  69.412  1.00  0.00    -0.272 A  
HETATM   13  I   UNL     1      -8.159   7.912  66.660  1.00  0.00    -0.116 I  
BRANCH  12  14
HETATM   14  C   UNL     1     -12.615  11.047  70.255  1.00  0.00    -0.243 C  
HETATM   15  N   UNL     1     -12.206  12.123  71.017  1.00  0.00    -0.364 N  
HETATM   16  O   UNL     1     -13.772  10.641  70.260  1.00  0.00     0.460 OA 
HETATM   17  H   UNL     1     -11.228  12.413  70.983  1.00  0.00     0.000 HD 
BRANCH  15  18
HETATM   18  C   UNL     1     -13.137  12.856  71.871  1.00  0.00    -0.373 C  
BRANCH  18  19
HETATM   19  C   UNL     1     -13.358  14.298  71.388  1.00  0.00    -0.340 C  
HETATM   20  H   UNL     1     -14.400  15.856  71.981  1.00  0.00     0.000 HD 
HETATM   21  O   UNL     1     -14.263  14.964  72.281  1.00  0.00    -0.464 OA 
BRANCH  19  22
HETATM   22  C   UNL     1     -12.031  15.071  71.288  1.00  0.00    -0.335 C  
HETATM   23  O   UNL     1     -11.204  14.849  72.428  1.00  0.00    -0.368 OA 
HETATM   24  H   UNL     1     -10.385  15.326  72.367  1.00  0.00     0.000 HD 
ENDBRANCH  19  22
ENDBRANCH  18  19
ENDBRANCH  15  18
ENDBRANCH  12  14
BRANCH  11  25
HETATM   25  C   UNL     1      -9.678  10.878  66.129  1.00  0.00    -0.210 C  
HETATM   26  O   UNL     1      -8.981  11.888  66.098  1.00  0.00    -0.195 OA 
HETATM   27  H   UNL     1     -10.681   9.391  65.074  1.00  0.00     0.000 HD 
HETATM   28  N   UNL     1     -10.135  10.248  64.984  1.00  0.00    -0.323 N  
BRANCH  28  29
HETATM   29  C   UNL     1      -9.860  10.773  63.660  1.00  0.00    -0.350 C  
BRANCH  29  30
HETATM   30  C   UNL     1      -8.565  10.188  63.114  1.00  0.00    -0.193 C  
HETATM   31  O   UNL     1      -7.452  10.829  63.743  1.00  0.00    -0.351 OA 
HETATM   32  H   UNL     1      -6.644  10.464  63.402  1.00  0.00     0.000 HD 
ENDBRANCH  29  30
ENDBRANCH  28  29
ENDBRANCH  11  25
ENDBRANCH   3   5
BRANCH   3  33
HETATM   33  C   UNL     1      -8.296   7.304  70.500  1.00  0.00    -0.133 C  
BRANCH  33  34
HETATM   34  C   UNL     1      -6.890   6.911  69.970  1.00  0.00    -0.057 C  
HETATM   35  O   UNL     1      -6.121   8.051  69.560  1.00  0.00    -0.032 OA 
HETATM   36  H   UNL     1      -5.261   7.811  69.236  1.00  0.00     0.000 HD 
BRANCH  34  37
HETATM   37  C   UNL     1      -6.062   6.140  71.014  1.00  0.00    -0.035 C  
HETATM   38  H   UNL     1      -6.190   4.436  72.018  1.00  0.00     0.000 HD 
HETATM   39  O   UNL     1      -6.700   4.912  71.373  1.00  0.00    -0.036 OA 
ENDBRANCH  34  37
ENDBRANCH  33  34
ENDBRANCH   3  33
TORSDOF 11
ENDMDL
MODEL       84
REMARK 921   NORMALIZED FREE ENERGY PREDICTED BY IDOCK:   -3.92 KCAL/MOL
REMARK 922        TOTAL FREE ENERGY PREDICTED BY IDOCK:   -7.05 KCAL/MOL
REMARK 923 INTER-LIGAND FREE ENERGY PREDICTED BY IDOCK:   -6.95 KCAL/MOL
REMARK 924 INTRA-LIGAND FREE ENERGY PREDICTED BY IDOCK:   -0.09 KCAL/MOL
REMARK 927      BINDING AFFINITY PREDICTED BY RF-SCORE:    0.00 PKD
ROOT
HETATM    1  C   UNL     1      -5.318   9.415  66.368  1.00  0.00    -0.044 C  
HETATM    2  C   UNL     1      -6.467  10.332  66.681  1.00  0.00    -0.076 C  
HETATM    3  N   UNL     1      -6.535  10.875  67.967  1.00  0.00    -0.058 N  
HETATM    4  O   UNL     1      -7.284  10.606  65.799  1.00  0.00    -0.144 OA 
ENDROOT
BRANCH   3   5
HETATM    5  C   UNL     1      -7.666  11.720  68.218  1.00  0.00    -0.130 A  
HETATM    6  I   UNL     1     -11.742  14.546  68.487  1.00  0.00    -0.283 I  
HETATM    7  C   UNL     1      -9.944  13.329  68.602  1.00  0.00    -0.122 A  
HETATM    8  C   UNL     1      -7.535  13.133  68.295  1.00  0.00    -0.129 A  
HETATM    9  I   UNL     1      -5.546  13.988  68.242  1.00  0.00    -0.118 I  
HETATM   10  C   UNL     1      -8.927  11.113  68.457  1.00  0.00    -0.168 A  
HETATM   11  C   UNL     1     -10.078  11.911  68.639  1.00  0.00    -0.186 A  
HETATM   12  C   UNL     1      -8.674  13.954  68.484  1.00  0.00    -0.134 A  
HETATM   13  I   UNL     1      -9.011   8.937  68.593  1.00  0.00    -0.136 I  
BRANCH  12  14
HETATM   14  C   UNL     1      -8.526  15.445  68.460  1.00  0.00    -0.163 C  
HETATM   15  N   UNL     1      -8.721  16.088  67.253  1.00  0.00    -0.179 N  
HETATM   16  O   UNL     1      -8.230  16.048  69.486  1.00  0.00    -0.198 OA 
HETATM   17  H   UNL     1      -8.957  15.537  66.428  1.00  0.00     0.000 HD 
BRANCH  15  18
HETATM   18  C   UNL     1      -8.597  17.539  67.129  1.00  0.00    -0.225 C  
BRANCH  18  19
HETATM   19  C   UNL     1      -9.930  18.260  67.382  1.00  0.00    -0.334 C  
HETATM   20  H   UNL     1     -10.661  19.463  68.755  1.00  0.00     0.000 HD 
HETATM   21  O   UNL     1      -9.836  19.017  68.599  1.00  0.00    -0.371 OA 
BRANCH  19  22
HETATM   22  C   UNL     1     -10.312  19.174  66.205  1.00  0.00    -0.474 C  
HETATM   23  O   UNL     1      -9.412  20.273  66.077  1.00  0.00    -0.609 OA 
HETATM   24  H   UNL     1      -9.648  20.838  65.351  1.00  0.00     0.000 HD 
ENDBRANCH  19  22
ENDBRANCH  18  19
ENDBRANCH  15  18
ENDBRANCH  12  14
BRANCH  11  25
HETATM   25  C   UNL     1     -11.395  11.298  68.960  1.00  0.00    -0.278 C  
HETATM   26  O   UNL     1     -12.128  10.927  68.048  1.00  0.00    -0.563 OA 
HETATM   27  H   UNL     1     -11.078  11.479  71.009  1.00  0.00     0.000 HD 
HETATM   28  N   UNL     1     -11.745  11.186  70.295  1.00  0.00    -0.333 N  
BRANCH  28  29
HETATM   29  C   UNL     1     -13.035  10.665  70.706  1.00  0.00    -0.311 C  
BRANCH  29  30
HETATM   30  C   UNL     1     -12.873   9.702  71.873  1.00  0.00    -0.425 C  
HETATM   31  O   UNL     1     -11.617   9.028  71.762  1.00  0.00    -0.329 OA 
HETATM   32  H   UNL     1     -11.516   8.427  72.491  1.00  0.00     0.000 HD 
ENDBRANCH  29  30
ENDBRANCH  28  29
ENDBRANCH  11  25
ENDBRANCH   3   5
BRANCH   3  33
HETATM   33  C   UNL     1      -5.663  10.494  69.116  1.00  0.00    -0.040 C  
BRANCH  33  34
HETATM   34  C   UNL     1      -6.041   9.205  69.895  1.00  0.00    -0.038 C  
HETATM   35  O   UNL     1      -5.232   8.081  69.517  1.00  0.00    -0.025 OA 
HETATM   36  H   UNL     1      -5.463   7.292  69.993  1.00  0.00     0.000 HD 
BRANCH  34  37
HETATM   37  C   UNL     1      -5.915   9.380  71.419  1.00  0.00    -0.069 C  
HETATM   38  H   UNL     1      -5.803  10.872  72.718  1.00  0.00     0.000 HD 
HETATM   39  O   UNL     1      -5.881  10.764  71.777  1.00  0.00    -0.262 OA 
ENDBRANCH  34  37
ENDBRANCH  33  34
ENDBRANCH   3  33
TORSDOF 11
ENDMDL
MODEL       85
REMARK 921   NORMALIZED FREE ENERGY PREDICTED BY IDOCK:   -3.88 KCAL/MOL
REMARK 922        TOTAL FREE ENERGY PREDICTED BY IDOCK:   -6.98 KCAL/MOL
REMARK 923 INTER-LIGAND FREE ENERGY PREDICTED BY IDOCK:   -6.93 KCAL/MOL
REMARK 924 INTRA-LIGAND FREE ENERGY PREDICTED BY IDOCK:   -0.05 KCAL/MOL
REMARK 927      BINDING AFFINITY PREDICTED BY RF-SCORE:    0.00 PKD
ROOT
HETATM    1  C   UNL     1      -9.000   7.694  73.418  1.00  0.00    -0.281 C  
HETATM    2  C   UNL     1      -8.999   8.248  72.020  1.00  0.00    -0.196 C  
HETATM    3  N   UNL     1      -9.837   7.643  71.080  1.00  0.00    -0.175 N  
HETATM    4  O   UNL     1      -8.297   9.227  71.755  1.00  0.00    -0.284 OA 
ENDROOT
BRANCH   3   5
HETATM    5  C   UNL     1      -9.775   8.194  69.758  1.00  0.00    -0.173 A  
HETATM    6  I   UNL     1      -8.982  10.305  65.332  1.00  0.00    -0.276 I  
HETATM    7  C   UNL     1      -9.520   9.283  67.175  1.00  0.00    -0.149 A  
HETATM    8  C   UNL     1     -10.467   9.387  69.416  1.00  0.00    -0.220 A  
HETATM    9  I   UNL     1     -11.810  10.254  70.878  1.00  0.00    -0.433 I  
HETATM   10  C   UNL     1      -9.052   7.486  68.761  1.00  0.00    -0.135 A  
HETATM   11  C   UNL     1      -8.909   8.030  67.465  1.00  0.00    -0.129 A  
HETATM   12  C   UNL     1     -10.344   9.947  68.120  1.00  0.00    -0.232 A  
HETATM   13  I   UNL     1      -8.238   5.529  69.277  1.00  0.00    -0.094 I  
BRANCH  12  14
HETATM   14  C   UNL     1     -11.002  11.259  67.814  1.00  0.00    -0.252 C  
HETATM   15  N   UNL     1     -10.423  12.401  68.330  1.00  0.00    -0.230 N  
HETATM   16  O   UNL     1     -12.024  11.288  67.137  1.00  0.00    -0.470 OA 
HETATM   17  H   UNL     1      -9.577  12.319  68.895  1.00  0.00     0.000 HD 
BRANCH  15  18
HETATM   18  C   UNL     1     -10.991  13.726  68.087  1.00  0.00    -0.246 C  
BRANCH  18  19
HETATM   19  C   UNL     1      -9.912  14.770  67.764  1.00  0.00    -0.223 C  
HETATM   20  H   UNL     1      -9.863  16.569  66.970  1.00  0.00     0.000 HD 
HETATM   21  O   UNL     1     -10.530  15.922  67.170  1.00  0.00    -0.302 OA 
BRANCH  19  22
HETATM   22  C   UNL     1      -9.117  15.171  69.019  1.00  0.00    -0.218 C  
HETATM   23  O   UNL     1      -8.226  14.137  69.432  1.00  0.00    -0.346 OA 
HETATM   24  H   UNL     1      -7.735  14.385  70.207  1.00  0.00     0.000 HD 
ENDBRANCH  19  22
ENDBRANCH  18  19
ENDBRANCH  15  18
ENDBRANCH  12  14
BRANCH  11  25
HETATM   25  C   UNL     1      -8.217   7.273  66.388  1.00  0.00    -0.120 C  
HETATM   26  O   UNL     1      -8.859   6.503  65.679  1.00  0.00    -0.133 OA 
HETATM   27  H   UNL     1      -6.381   8.144  66.837  1.00  0.00     0.000 HD 
HETATM   28  N   UNL     1      -6.853   7.463  66.242  1.00  0.00    -0.060 N  
BRANCH  28  29
HETATM   29  C   UNL     1      -6.077   6.721  65.266  1.00  0.00    -0.035 C  
BRANCH  29  30
HETATM   30  C   UNL     1      -5.495   5.462  65.894  1.00  0.00    -0.013 C  
HETATM   31  O   UNL     1      -6.524   4.478  66.025  1.00  0.00    -0.038 OA 
HETATM   32  H   UNL     1      -6.161   3.693  66.417  1.00  0.00     0.000 HD 
ENDBRANCH  29  30
ENDBRANCH  28  29
ENDBRANCH  11  25
ENDBRANCH   3   5
BRANCH   3  33
HETATM   33  C   UNL     1     -10.613   6.387  71.291  1.00  0.00    -0.230 C  
BRANCH  33  34
HETATM   34  C   UNL     1     -12.011   6.522  71.954  1.00  0.00    -0.341 C  
HETATM   35  O   UNL     1     -11.997   7.405  73.085  1.00  0.00    -0.445 OA 
HETATM   36  H   UNL     1     -12.852   7.488  73.490  1.00  0.00     0.000 HD 
BRANCH  34  37
HETATM   37  C   UNL     1     -13.080   7.035  70.972  1.00  0.00    -0.092 C  
HETATM   38  H   UNL     1     -15.042   7.307  70.952  1.00  0.00     0.000 HD 
HETATM   39  O   UNL     1     -14.383   6.990  71.558  1.00  0.00    -0.362 OA 
ENDBRANCH  34  37
ENDBRANCH  33  34
ENDBRANCH   3  33
TORSDOF 11
ENDMDL
MODEL       86
REMARK 921   NORMALIZED FREE ENERGY PREDICTED BY IDOCK:   -3.87 KCAL/MOL
REMARK 922        TOTAL FREE ENERGY PREDICTED BY IDOCK:   -6.96 KCAL/MOL
REMARK 923 INTER-LIGAND FREE ENERGY PREDICTED BY IDOCK:   -6.19 KCAL/MOL
REMARK 924 INTRA-LIGAND FREE ENERGY PREDICTED BY IDOCK:   -0.77 KCAL/MOL
REMARK 927      BINDING AFFINITY PREDICTED BY RF-SCORE:    0.00 PKD
ROOT
HETATM    1  C   UNL     1      -5.396   6.150  67.180  1.00  0.00    -0.005 C  
HETATM    2  C   UNL     1      -6.505   6.990  67.750  1.00  0.00    -0.051 C  
HETATM    3  N   UNL     1      -7.771   6.879  67.169  1.00  0.00    -0.106 N  
HETATM    4  O   UNL     1      -6.280   7.714  68.723  1.00  0.00    -0.034 OA 
ENDROOT
BRANCH   3   5
HETATM    5  C   UNL     1      -8.782   7.722  67.735  1.00  0.00    -0.123 A  
HETATM    6  I   UNL     1     -11.814  10.973  69.951  1.00  0.00    -0.487 I  
HETATM    7  C   UNL     1     -10.675   9.471  68.867  1.00  0.00    -0.195 A  
HETATM    8  C   UNL     1      -9.548   7.312  68.860  1.00  0.00    -0.143 A  
HETATM    9  I   UNL     1      -9.313   5.284  69.582  1.00  0.00    -0.230 I  
HETATM   10  C   UNL     1      -9.057   8.966  67.108  1.00  0.00    -0.138 A  
HETATM   11  C   UNL     1      -9.998   9.856  67.674  1.00  0.00    -0.212 A  
HETATM   12  C   UNL     1     -10.501   8.185  69.441  1.00  0.00    -0.223 A  
HETATM   13  I   UNL     1      -8.040   9.420  65.233  1.00  0.00    -0.158 I  
BRANCH  12  14
HETATM   14  C   UNL     1     -11.224   7.770  70.686  1.00  0.00    -0.268 C  
HETATM   15  N   UNL     1     -10.625   8.052  71.899  1.00  0.00    -0.231 N  
HETATM   16  O   UNL     1     -12.302   7.191  70.605  1.00  0.00    -0.272 OA 
HETATM   17  H   UNL     1      -9.722   8.527  71.908  1.00  0.00     0.000 HD 
BRANCH  15  18
HETATM   18  C   UNL     1     -11.251   7.686  73.167  1.00  0.00    -0.256 C  
BRANCH  18  19
HETATM   19  C   UNL     1     -10.368   6.746  74.001  1.00  0.00    -0.347 C  
HETATM   20  H   UNL     1     -10.092   4.804  74.144  1.00  0.00     0.000 HD 
HETATM   21  O   UNL     1     -10.638   5.385  73.628  1.00  0.00    -0.237 OA 
BRANCH  19  22
HETATM   22  C   UNL     1      -8.873   7.067  73.824  1.00  0.00    -0.167 C  
HETATM   23  O   UNL     1      -8.125   5.910  73.456  1.00  0.00    -0.111 OA 
HETATM   24  H   UNL     1      -7.203   6.108  73.346  1.00  0.00     0.000 HD 
ENDBRANCH  19  22
ENDBRANCH  18  19
ENDBRANCH  15  18
ENDBRANCH  12  14
BRANCH  11  25
HETATM   25  C   UNL     1     -10.352  11.132  66.996  1.00  0.00    -0.224 C  
HETATM   26  O   UNL     1     -11.282  11.154  66.196  1.00  0.00    -0.161 OA 
HETATM   27  H   UNL     1      -8.854  12.177  67.994  1.00  0.00     0.000 HD 
HETATM   28  N   UNL     1      -9.592  12.250  67.293  1.00  0.00    -0.184 N  
BRANCH  28  29
HETATM   29  C   UNL     1      -9.815  13.523  66.634  1.00  0.00    -0.279 C  
BRANCH  29  30
HETATM   30  C   UNL     1     -10.688  14.424  67.497  1.00  0.00    -0.271 C  
HETATM   31  O   UNL     1     -10.011  15.661  67.728  1.00  0.00    -0.221 OA 
HETATM   32  H   UNL     1     -10.556  16.223  68.266  1.00  0.00     0.000 HD 
ENDBRANCH  29  30
ENDBRANCH  28  29
ENDBRANCH  11  25
ENDBRANCH   3   5
BRANCH   3  33
HETATM   33  C   UNL     1      -8.088   6.127  65.921  1.00  0.00    -0.121 C  
BRANCH  33  34
HETATM   34  C   UNL     1      -9.097   4.951  66.041  1.00  0.00    -0.139 C  
HETATM   35  O   UNL     1     -10.378   5.271  65.477  1.00  0.00    -0.413 OA 
HETATM   36  H   UNL     1     -10.994   4.552  65.549  1.00  0.00     0.000 HD 
BRANCH  34  37
HETATM   37  C   UNL     1      -8.590   3.670  65.356  1.00  0.00    -0.112 C  
HETATM   38  H   UNL     1      -6.884   2.677  65.182  1.00  0.00     0.000 HD 
HETATM   39  O   UNL     1      -7.197   3.468  65.605  1.00  0.00    -0.068 OA 
ENDBRANCH  34  37
ENDBRANCH  33  34
ENDBRANCH   3  33
TORSDOF 11
ENDMDL
MODEL       87
REMARK 921   NORMALIZED FREE ENERGY PREDICTED BY IDOCK:   -3.84 KCAL/MOL
REMARK 922        TOTAL FREE ENERGY PREDICTED BY IDOCK:   -6.91 KCAL/MOL
REMARK 923 INTER-LIGAND FREE ENERGY PREDICTED BY IDOCK:   -6.37 KCAL/MOL
REMARK 924 INTRA-LIGAND FREE ENERGY PREDICTED BY IDOCK:   -0.54 KCAL/MOL
REMARK 927      BINDING AFFINITY PREDICTED BY RF-SCORE:    0.00 PKD
ROOT
HETATM    1  C   UNL     1      -6.665  12.008  67.184  1.00  0.00    -0.136 C  
HETATM    2  C   UNL     1      -6.709  10.521  67.397  1.00  0.00    -0.071 C  
HETATM    3  N   UNL     1      -7.962   9.901  67.403  1.00  0.00    -0.106 N  
HETATM    4  O   UNL     1      -5.655   9.892  67.522  1.00  0.00    -0.039 OA 
ENDROOT
BRANCH   3   5
HETATM    5  C   UNL     1      -7.946   8.487  67.638  1.00  0.00    -0.107 A  
HETATM    6  I   UNL     1      -8.509   3.603  68.343  1.00  0.00    -0.142 I  
HETATM    7  C   UNL     1      -8.032   5.702  68.038  1.00  0.00    -0.097 A  
HETATM    8  C   UNL     1      -7.849   7.953  68.951  1.00  0.00    -0.117 A  
HETATM    9  I   UNL     1      -7.504   9.318  70.596  1.00  0.00    -0.083 I  
HETATM   10  C   UNL     1      -7.963   7.613  66.519  1.00  0.00    -0.106 A  
HETATM   11  C   UNL     1      -8.018   6.214  66.709  1.00  0.00    -0.105 A  
HETATM   12  C   UNL     1      -7.895   6.553  69.166  1.00  0.00    -0.110 A  
HETATM   13  I   UNL     1      -7.840   8.492  64.526  1.00  0.00    -0.149 I  
BRANCH  12  14
HETATM   14  C   UNL     1      -7.893   6.017  70.565  1.00  0.00    -0.102 C  
HETATM   15  N   UNL     1      -9.101   5.967  71.234  1.00  0.00    -0.143 N  
HETATM   16  O   UNL     1      -6.842   5.654  71.081  1.00  0.00    -0.057 OA 
HETATM   17  H   UNL     1      -9.945   6.291  70.760  1.00  0.00     0.000 HD 
BRANCH  15  18
HETATM   18  C   UNL     1      -9.201   5.462  72.601  1.00  0.00    -0.137 C  
BRANCH  18  19
HETATM   19  C   UNL     1     -10.514   5.878  73.280  1.00  0.00    -0.235 C  
HETATM   20  H   UNL     1     -11.044   7.084  74.740  1.00  0.00     0.000 HD 
HETATM   21  O   UNL     1     -10.231   6.827  74.320  1.00  0.00    -0.357 OA 
BRANCH  19  22
HETATM   22  C   UNL     1     -11.513   6.467  72.269  1.00  0.00    -0.298 C  
HETATM   23  O   UNL     1     -12.173   7.620  72.788  1.00  0.00    -0.573 OA 
HETATM   24  H   UNL     1     -12.789   7.983  72.164  1.00  0.00     0.000 HD 
ENDBRANCH  19  22
ENDBRANCH  18  19
ENDBRANCH  15  18
ENDBRANCH  12  14
BRANCH  11  25
HETATM   25  C   UNL     1      -7.966   5.280  65.553  1.00  0.00    -0.107 C  
HETATM   26  O   UNL     1      -6.886   4.822  65.192  1.00  0.00    -0.054 OA 
HETATM   27  H   UNL     1     -10.028   5.362  65.284  1.00  0.00     0.000 HD 
HETATM   28  N   UNL     1      -9.158   4.978  64.915  1.00  0.00    -0.122 N  
BRANCH  28  29
HETATM   29  C   UNL     1      -9.203   4.132  63.738  1.00  0.00    -0.141 C  
BRANCH  29  30
HETATM   30  C   UNL     1     -10.629   3.678  63.462  1.00  0.00    -0.260 C  
HETATM   31  O   UNL     1     -11.493   4.174  64.488  1.00  0.00    -0.784 OA 
HETATM   32  H   UNL     1     -12.383   3.891  64.316  1.00  0.00     0.000 HD 
ENDBRANCH  29  30
ENDBRANCH  28  29
ENDBRANCH  11  25
ENDBRANCH   3   5
BRANCH   3  33
HETATM   33  C   UNL     1      -9.277  10.605  67.386  1.00  0.00    -0.143 C  
BRANCH  33  34
HETATM   34  C   UNL     1      -9.789  11.182  68.734  1.00  0.00    -0.192 C  
HETATM   35  O   UNL     1      -9.655  12.609  68.803  1.00  0.00    -0.403 OA 
HETATM   36  H   UNL     1      -9.968  12.962  69.628  1.00  0.00     0.000 HD 
BRANCH  34  37
HETATM   37  C   UNL     1     -11.265  10.836  68.998  1.00  0.00    -0.262 C  
HETATM   38  H   UNL     1     -13.009  11.062  68.086  1.00  0.00     0.000 HD 
HETATM   39  O   UNL     1     -12.098  11.275  67.923  1.00  0.00    -0.634 OA 
ENDBRANCH  34  37
ENDBRANCH  33  34
ENDBRANCH   3  33
TORSDOF 11
ENDMDL
MODEL       88
REMARK 921   NORMALIZED FREE ENERGY PREDICTED BY IDOCK:   -3.83 KCAL/MOL
REMARK 922        TOTAL FREE ENERGY PREDICTED BY IDOCK:   -6.90 KCAL/MOL
REMARK 923 INTER-LIGAND FREE ENERGY PREDICTED BY IDOCK:   -6.10 KCAL/MOL
REMARK 924 INTRA-LIGAND FREE ENERGY PREDICTED BY IDOCK:   -0.80 KCAL/MOL
REMARK 927      BINDING AFFINITY PREDICTED BY RF-SCORE:    0.00 PKD
ROOT
HETATM    1  C   UNL     1      -5.928   4.992  64.724  1.00  0.00    -0.021 C  
HETATM    2  C   UNL     1      -6.385   5.644  65.999  1.00  0.00    -0.039 C  
HETATM    3  N   UNL     1      -7.759   5.823  66.183  1.00  0.00    -0.094 N  
HETATM    4  O   UNL     1      -5.552   5.965  66.850  1.00  0.00    -0.012 OA 
ENDROOT
BRANCH   3   5
HETATM    5  C   UNL     1      -8.134   6.475  67.403  1.00  0.00    -0.121 A  
HETATM    6  I   UNL     1     -10.023   8.552  71.501  1.00  0.00    -0.396 I  
HETATM    7  C   UNL     1      -8.985   7.686  69.798  1.00  0.00    -0.140 A  
HETATM    8  C   UNL     1      -8.232   7.890  67.490  1.00  0.00    -0.124 A  
HETATM    9  I   UNL     1      -7.589   9.074  65.794  1.00  0.00    -0.094 I  
HETATM   10  C   UNL     1      -8.348   5.680  68.559  1.00  0.00    -0.106 A  
HETATM   11  C   UNL     1      -8.785   6.276  69.763  1.00  0.00    -0.137 A  
HETATM   12  C   UNL     1      -8.662   8.511  68.689  1.00  0.00    -0.139 A  
HETATM   13  I   UNL     1      -7.920   3.544  68.432  1.00  0.00    -0.083 I  
BRANCH  12  14
HETATM   14  C   UNL     1      -8.856   9.997  68.726  1.00  0.00    -0.137 C  
HETATM   15  N   UNL     1     -10.039  10.502  68.223  1.00  0.00    -0.156 N  
HETATM   16  O   UNL     1      -7.974  10.718  69.181  1.00  0.00    -0.143 OA 
HETATM   17  H   UNL     1     -10.735   9.857  67.848  1.00  0.00     0.000 HD 
BRANCH  15  18
HETATM   18  C   UNL     1     -10.319  11.936  68.215  1.00  0.00    -0.201 C  
BRANCH  18  19
HETATM   19  C   UNL     1      -9.886  12.605  66.901  1.00  0.00    -0.234 C  
HETATM   20  H   UNL     1     -10.767  13.194  65.245  1.00  0.00     0.000 HD 
HETATM   21  O   UNL     1     -11.035  12.780  66.057  1.00  0.00    -0.271 OA 
BRANCH  19  22
HETATM   22  C   UNL     1      -9.192  13.955  67.155  1.00  0.00    -0.239 C  
HETATM   23  O   UNL     1     -10.085  14.908  67.727  1.00  0.00    -0.232 OA 
HETATM   24  H   UNL     1      -9.657  15.741  67.884  1.00  0.00     0.000 HD 
ENDBRANCH  19  22
ENDBRANCH  18  19
ENDBRANCH  15  18
ENDBRANCH  12  14
BRANCH  11  25
HETATM   25  C   UNL     1      -8.947   5.472  71.004  1.00  0.00    -0.140 C  
HETATM   26  O   UNL     1      -8.009   5.374  71.789  1.00  0.00    -0.109 OA 
HETATM   27  H   UNL     1     -10.919   4.994  70.540  1.00  0.00     0.000 HD 
HETATM   28  N   UNL     1     -10.165   4.846  71.211  1.00  0.00    -0.196 N  
BRANCH  28  29
HETATM   29  C   UNL     1     -10.399   3.985  72.355  1.00  0.00    -0.137 C  
BRANCH  29  30
HETATM   30  C   UNL     1     -11.163   4.734  73.438  1.00  0.00    -0.343 C  
HETATM   31  O   UNL     1     -12.119   5.605  72.829  1.00  0.00    -0.532 OA 
HETATM   32  H   UNL     1     -12.595   6.072  73.505  1.00  0.00     0.000 HD 
ENDBRANCH  29  30
ENDBRANCH  28  29
ENDBRANCH  11  25
ENDBRANCH   3   5
BRANCH   3  33
HETATM   33  C   UNL     1      -8.810   5.579  65.154  1.00  0.00    -0.079 C  
BRANCH  33  34
HETATM   34  C   UNL     1      -9.751   4.364  65.379  1.00  0.00    -0.197 C  
HETATM   35  O   UNL     1     -11.092   4.763  65.698  1.00  0.00    -0.831 OA 
HETATM   36  H   UNL     1     -11.668   4.020  65.835  1.00  0.00     0.000 HD 
BRANCH  34  37
HETATM   37  C   UNL     1      -9.818   3.437  64.152  1.00  0.00    -0.172 C  
HETATM   38  H   UNL     1     -11.162   2.878  62.808  1.00  0.00     0.000 HD 
HETATM   39  O   UNL     1     -11.121   3.450  63.566  1.00  0.00    -0.252 OA 
ENDBRANCH  34  37
ENDBRANCH  33  34
ENDBRANCH   3  33
TORSDOF 11
ENDMDL
MODEL       89
REMARK 921   NORMALIZED FREE ENERGY PREDICTED BY IDOCK:   -3.78 KCAL/MOL
REMARK 922        TOTAL FREE ENERGY PREDICTED BY IDOCK:   -6.81 KCAL/MOL
REMARK 923 INTER-LIGAND FREE ENERGY PREDICTED BY IDOCK:   -6.99 KCAL/MOL
REMARK 924 INTRA-LIGAND FREE ENERGY PREDICTED BY IDOCK:    0.18 KCAL/MOL
REMARK 927      BINDING AFFINITY PREDICTED BY RF-SCORE:    0.00 PKD
ROOT
HETATM    1  C   UNL     1      -6.223  10.602  70.292  1.00  0.00    -0.139 C  
HETATM    2  C   UNL     1      -6.605  10.315  68.867  1.00  0.00    -0.052 C  
HETATM    3  N   UNL     1      -7.966  10.207  68.567  1.00  0.00    -0.101 N  
HETATM    4  O   UNL     1      -5.725  10.219  68.009  1.00  0.00    -0.041 OA 
ENDROOT
BRANCH   3   5
HETATM    5  C   UNL     1      -8.271   9.905  67.200  1.00  0.00    -0.121 A  
HETATM    6  I   UNL     1      -8.715   8.936  62.348  1.00  0.00     0.095 I  
HETATM    7  C   UNL     1      -8.741   9.286  64.494  1.00  0.00    -0.187 A  
HETATM    8  C   UNL     1      -8.894  10.858  66.349  1.00  0.00    -0.171 A  
HETATM    9  I   UNL     1      -9.580  12.720  67.215  1.00  0.00    -0.230 I  
HETATM   10  C   UNL     1      -7.998   8.598  66.717  1.00  0.00    -0.094 A  
HETATM   11  C   UNL     1      -8.220   8.281  65.358  1.00  0.00    -0.146 A  
HETATM   12  C   UNL     1      -9.133  10.560  64.984  1.00  0.00    -0.231 A  
HETATM   13  I   UNL     1      -7.294   7.102  68.140  1.00  0.00    -0.102 I  
BRANCH  12  14
HETATM   14  C   UNL     1      -9.696  11.615  64.082  1.00  0.00    -0.184 C  
HETATM   15  N   UNL     1     -11.066  11.790  64.079  1.00  0.00    -0.364 N  
HETATM   16  O   UNL     1      -8.948  12.278  63.372  1.00  0.00     0.313 OA 
HETATM   17  H   UNL     1     -11.644  11.205  64.683  1.00  0.00     0.000 HD 
BRANCH  15  18
HETATM   18  C   UNL     1     -11.709  12.793  63.233  1.00  0.00    -0.375 C  
BRANCH  18  19
HETATM   19  C   UNL     1     -12.426  13.875  64.055  1.00  0.00    -0.211 C  
HETATM   20  H   UNL     1     -13.573  13.925  65.651  1.00  0.00     0.000 HD 
HETATM   21  O   UNL     1     -13.130  13.255  65.142  1.00  0.00    -0.705 OA 
BRANCH  19  22
HETATM   22  C   UNL     1     -11.439  14.930  64.584  1.00  0.00    -0.379 C  
HETATM   23  O   UNL     1     -11.497  16.136  63.824  1.00  0.00    -1.323 OA 
HETATM   24  H   UNL     1     -10.888  16.787  64.151  1.00  0.00     0.000 HD 
ENDBRANCH  19  22
ENDBRANCH  18  19
ENDBRANCH  15  18
ENDBRANCH  12  14
BRANCH  11  25
HETATM   25  C   UNL     1      -8.006   6.900  64.847  1.00  0.00    -0.124 C  
HETATM   26  O   UNL     1      -6.934   6.606  64.327  1.00  0.00    -0.047 OA 
HETATM   27  H   UNL     1      -9.904   6.292  65.446  1.00  0.00     0.000 HD 
HETATM   28  N   UNL     1      -9.051   5.999  64.971  1.00  0.00     0.207 N  
BRANCH  28  29
HETATM   29  C   UNL     1      -8.964   4.651  64.443  1.00  0.00    -0.142 C  
BRANCH  29  30
HETATM   30  C   UNL     1     -10.339   3.997  64.423  1.00  0.00    -0.201 C  
HETATM   31  O   UNL     1     -11.184   4.640  65.380  1.00  0.00    -0.927 OA 
HETATM   32  H   UNL     1     -12.042   4.232  65.367  1.00  0.00     0.000 HD 
ENDBRANCH  29  30
ENDBRANCH  28  29
ENDBRANCH  11  25
ENDBRANCH   3   5
BRANCH   3  33
HETATM   33  C   UNL     1      -9.075  10.185  69.565  1.00  0.00    -0.195 C  
BRANCH  33  34
HETATM   34  C   UNL     1      -9.459   8.805  70.165  1.00  0.00    -0.169 C  
HETATM   35  O   UNL     1      -9.114   8.697  71.554  1.00  0.00    -0.195 OA 
HETATM   36  H   UNL     1      -9.349   7.853  71.921  1.00  0.00     0.000 HD 
BRANCH  34  37
HETATM   37  C   UNL     1     -10.963   8.504  70.032  1.00  0.00    -0.196 C  
HETATM   38  H   UNL     1     -12.460   7.965  71.212  1.00  0.00     0.000 HD 
HETATM   39  O   UNL     1     -11.532   8.151  71.294  1.00  0.00    -0.256 OA 
ENDBRANCH  34  37
ENDBRANCH  33  34
ENDBRANCH   3  33
TORSDOF 11
ENDMDL
MODEL       90
REMARK 921   NORMALIZED FREE ENERGY PREDICTED BY IDOCK:   -3.76 KCAL/MOL
REMARK 922        TOTAL FREE ENERGY PREDICTED BY IDOCK:   -6.79 KCAL/MOL
REMARK 923 INTER-LIGAND FREE ENERGY PREDICTED BY IDOCK:   -6.54 KCAL/MOL
REMARK 924 INTRA-LIGAND FREE ENERGY PREDICTED BY IDOCK:   -0.26 KCAL/MOL
REMARK 927      BINDING AFFINITY PREDICTED BY RF-SCORE:    0.00 PKD
ROOT
HETATM    1  C   UNL     1      -9.150   3.866  65.336  1.00  0.00    -0.143 C  
HETATM    2  C   UNL     1      -9.643   5.050  66.120  1.00  0.00    -0.168 C  
HETATM    3  N   UNL     1      -8.697   5.817  66.805  1.00  0.00    -0.115 N  
HETATM    4  O   UNL     1     -10.844   5.330  66.107  1.00  0.00    -0.257 OA 
ENDROOT
BRANCH   3   5
HETATM    5  C   UNL     1      -9.226   6.917  67.557  1.00  0.00    -0.123 A  
HETATM    6  I   UNL     1     -11.629  10.519  69.991  1.00  0.00    -0.422 I  
HETATM    7  C   UNL     1     -10.384   9.015  69.035  1.00  0.00    -0.219 A  
HETATM    8  C   UNL     1      -9.192   8.246  67.055  1.00  0.00    -0.152 A  
HETATM    9  I   UNL     1      -8.121   8.623  65.210  1.00  0.00    -0.170 I  
HETATM   10  C   UNL     1      -9.736   6.666  68.858  1.00  0.00    -0.135 A  
HETATM   11  C   UNL     1     -10.328   7.710  69.604  1.00  0.00    -0.213 A  
HETATM   12  C   UNL     1      -9.774   9.310  67.788  1.00  0.00    -0.182 A  
HETATM   13  I   UNL     1      -9.515   4.657  69.680  1.00  0.00    -0.276 I  
BRANCH  12  14
HETATM   14  C   UNL     1      -9.816  10.685  67.193  1.00  0.00    -0.175 C  
HETATM   15  N   UNL     1     -10.808  10.954  66.271  1.00  0.00    -0.179 N  
HETATM   16  O   UNL     1      -8.979  11.519  67.520  1.00  0.00    -0.154 OA 
HETATM   17  H   UNL     1     -11.474  10.219  66.028  1.00  0.00     0.000 HD 
BRANCH  15  18
HETATM   18  C   UNL     1     -10.930  12.264  65.635  1.00  0.00    -0.299 C  
BRANCH  18  19
HETATM   19  C   UNL     1     -10.582  13.411  66.596  1.00  0.00    -0.282 C  
HETATM   20  H   UNL     1      -9.819  15.216  66.442  1.00  0.00     0.000 HD 
HETATM   21  O   UNL     1     -10.034  14.507  65.848  1.00  0.00    -0.299 OA 
BRANCH  19  22
HETATM   22  C   UNL     1     -11.810  13.867  67.402  1.00  0.00    -0.402 C  
HETATM   23  O   UNL     1     -11.535  13.919  68.801  1.00  0.00    -0.252 OA 
HETATM   24  H   UNL     1     -12.293  14.201  69.298  1.00  0.00     0.000 HD 
ENDBRANCH  19  22
ENDBRANCH  18  19
ENDBRANCH  15  18
ENDBRANCH  12  14
BRANCH  11  25
HETATM   25  C   UNL     1     -10.804   7.485  70.995  1.00  0.00    -0.235 C  
HETATM   26  O   UNL     1     -11.959   7.116  71.188  1.00  0.00    -0.309 OA 
HETATM   27  H   UNL     1      -8.954   7.991  71.802  1.00  0.00     0.000 HD 
HETATM   28  N   UNL     1      -9.912   7.721  72.027  1.00  0.00    -0.172 N  
BRANCH  28  29
HETATM   29  C   UNL     1     -10.301   7.596  73.419  1.00  0.00    -0.314 C  
BRANCH  29  30
HETATM   30  C   UNL     1     -10.114   6.163  73.898  1.00  0.00    -0.257 C  
HETATM   31  O   UNL     1     -11.277   5.398  73.572  1.00  0.00    -0.438 OA 
HETATM   32  H   UNL     1     -11.160   4.504  73.871  1.00  0.00     0.000 HD 
ENDBRANCH  29  30
ENDBRANCH  28  29
ENDBRANCH  11  25
ENDBRANCH   3   5
BRANCH   3  33
HETATM   33  C   UNL     1      -7.256   5.471  66.970  1.00  0.00    -0.078 C  
BRANCH  33  34
HETATM   34  C   UNL     1      -6.490   6.165  68.130  1.00  0.00    -0.049 C  
HETATM   35  O   UNL     1      -5.926   5.221  69.053  1.00  0.00    -0.019 OA 
HETATM   36  H   UNL     1      -5.457   5.645  69.762  1.00  0.00     0.000 HD 
BRANCH  34  37
HETATM   37  C   UNL     1      -5.348   7.066  67.625  1.00  0.00    -0.016 C  
HETATM   38  H   UNL     1      -4.773   8.951  67.820  1.00  0.00     0.000 HD 
HETATM   39  O   UNL     1      -5.478   8.395  68.132  1.00  0.00    -0.033 OA 
ENDBRANCH  34  37
ENDBRANCH  33  34
ENDBRANCH   3  33
TORSDOF 11
ENDMDL
MODEL       91
REMARK 921   NORMALIZED FREE ENERGY PREDICTED BY IDOCK:   -3.76 KCAL/MOL
REMARK 922        TOTAL FREE ENERGY PREDICTED BY IDOCK:   -6.79 KCAL/MOL
REMARK 923 INTER-LIGAND FREE ENERGY PREDICTED BY IDOCK:   -6.50 KCAL/MOL
REMARK 924 INTRA-LIGAND FREE ENERGY PREDICTED BY IDOCK:   -0.29 KCAL/MOL
REMARK 927      BINDING AFFINITY PREDICTED BY RF-SCORE:    0.00 PKD
ROOT
HETATM    1  C   UNL     1     -11.813  14.537  65.568  1.00  0.00    -0.330 C  
HETATM    2  C   UNL     1     -11.713  13.172  66.189  1.00  0.00    -0.381 C  
HETATM    3  N   UNL     1     -10.740  12.974  67.172  1.00  0.00    -0.253 N  
HETATM    4  O   UNL     1     -12.503  12.289  65.847  1.00  0.00    -0.535 OA 
ENDROOT
BRANCH   3   5
HETATM    5  C   UNL     1     -10.671  11.647  67.710  1.00  0.00    -0.204 A  
HETATM    6  I   UNL     1      -9.948   7.254  69.912  1.00  0.00    -0.202 I  
HETATM    7  C   UNL     1     -10.465   9.088  68.865  1.00  0.00    -0.210 A  
HETATM    8  C   UNL     1     -10.126  10.569  66.961  1.00  0.00    -0.213 A  
HETATM    9  I   UNL     1      -9.591  10.919  64.892  1.00  0.00    -0.354 I  
HETATM   10  C   UNL     1     -11.224  11.407  68.996  1.00  0.00    -0.256 A  
HETATM   11  C   UNL     1     -11.115  10.129  69.589  1.00  0.00    -0.308 A  
HETATM   12  C   UNL     1     -10.014   9.278  67.533  1.00  0.00    -0.254 A  
HETATM   13  I   UNL     1     -12.286  13.038  69.980  1.00  0.00    -0.028 I  
BRANCH  12  14
HETATM   14  C   UNL     1      -9.343   8.182  66.762  1.00  0.00    -0.183 C  
HETATM   15  N   UNL     1     -10.143   7.188  66.233  1.00  0.00    -0.451 N  
HETATM   16  O   UNL     1      -8.123   8.183  66.631  1.00  0.00    -0.100 OA 
HETATM   17  H   UNL     1     -11.151   7.231  66.380  1.00  0.00     0.000 HD 
BRANCH  15  18
HETATM   18  C   UNL     1      -9.581   6.077  65.468  1.00  0.00     0.380 C  
BRANCH  18  19
HETATM   19  C   UNL     1      -9.917   4.713  66.090  1.00  0.00    -0.247 C  
HETATM   20  H   UNL     1     -10.099   2.862  65.452  1.00  0.00     0.000 HD 
HETATM   21  O   UNL     1      -9.891   3.706  65.067  1.00  0.00    -0.175 OA 
BRANCH  19  22
HETATM   22  C   UNL     1      -8.944   4.354  67.226  1.00  0.00    -0.120 C  
HETATM   23  O   UNL     1      -7.737   5.109  67.147  1.00  0.00    -0.091 OA 
HETATM   24  H   UNL     1      -7.137   4.887  67.848  1.00  0.00     0.000 HD 
ENDBRANCH  19  22
ENDBRANCH  18  19
ENDBRANCH  15  18
ENDBRANCH  12  14
BRANCH  11  25
HETATM   25  C   UNL     1     -11.747   9.837  70.904  1.00  0.00    -0.347 C  
HETATM   26  O   UNL     1     -11.045   9.748  71.906  1.00  0.00    -0.068 OA 
HETATM   27  H   UNL     1     -13.654   9.783  70.073  1.00  0.00     0.000 HD 
HETATM   28  N   UNL     1     -13.120   9.660  70.933  1.00  0.00    -0.228 N  
BRANCH  28  29
HETATM   29  C   UNL     1     -13.820   9.306  72.153  1.00  0.00    -0.413 C  
BRANCH  29  30
HETATM   30  C   UNL     1     -13.463   7.888  72.579  1.00  0.00     0.228 C  
HETATM   31  O   UNL     1     -14.067   6.956  71.679  1.00  0.00    -0.297 OA 
HETATM   32  H   UNL     1     -13.844   6.071  71.945  1.00  0.00     0.000 HD 
ENDBRANCH  29  30
ENDBRANCH  28  29
ENDBRANCH  11  25
ENDBRANCH   3   5
BRANCH   3  33
HETATM   33  C   UNL     1      -9.675  13.949  67.546  1.00  0.00    -0.232 C  
BRANCH  33  34
HETATM   34  C   UNL     1      -8.294  13.788  66.853  1.00  0.00    -0.007 C  
HETATM   35  O   UNL     1      -7.760  15.040  66.399  1.00  0.00    -0.150 OA 
HETATM   36  H   UNL     1      -6.916  14.942  65.976  1.00  0.00     0.000 HD 
BRANCH  34  37
HETATM   37  C   UNL     1      -7.246  13.140  67.776  1.00  0.00    -0.147 C  
HETATM   38  H   UNL     1      -5.272  13.060  67.922  1.00  0.00     0.000 HD 
HETATM   39  O   UNL     1      -5.918  13.460  67.353  1.00  0.00    -0.331 OA 
ENDBRANCH  34  37
ENDBRANCH  33  34
ENDBRANCH   3  33
TORSDOF 11
ENDMDL
MODEL       92
REMARK 921   NORMALIZED FREE ENERGY PREDICTED BY IDOCK:   -3.68 KCAL/MOL
REMARK 922        TOTAL FREE ENERGY PREDICTED BY IDOCK:   -6.66 KCAL/MOL
REMARK 923 INTER-LIGAND FREE ENERGY PREDICTED BY IDOCK:   -6.41 KCAL/MOL
REMARK 924 INTRA-LIGAND FREE ENERGY PREDICTED BY IDOCK:   -0.25 KCAL/MOL
REMARK 927      BINDING AFFINITY PREDICTED BY RF-SCORE:    0.00 PKD
ROOT
HETATM    1  C   UNL     1      -6.354  17.749  68.069  1.00  0.00    -0.176 C  
HETATM    2  C   UNL     1      -6.545  16.291  67.758  1.00  0.00    -0.142 C  
HETATM    3  N   UNL     1      -7.635  15.638  68.342  1.00  0.00    -0.118 N  
HETATM    4  O   UNL     1      -5.770  15.728  66.982  1.00  0.00    -0.317 OA 
ENDROOT
BRANCH   3   5
HETATM    5  C   UNL     1      -7.751  14.243  68.033  1.00  0.00    -0.141 A  
HETATM    6  I   UNL     1      -7.605   9.470  66.667  1.00  0.00    -0.098 I  
HETATM    7  C   UNL     1      -7.851  11.502  67.401  1.00  0.00    -0.143 A  
HETATM    8  C   UNL     1      -8.629  13.778  67.017  1.00  0.00    -0.166 A  
HETATM    9  I   UNL     1      -9.964  15.201  66.076  1.00  0.00    -0.407 I  
HETATM   10  C   UNL     1      -7.015  13.312  68.812  1.00  0.00    -0.103 A  
HETATM   11  C   UNL     1      -7.050  11.935  68.496  1.00  0.00    -0.089 A  
HETATM   12  C   UNL     1      -8.686  12.401  66.687  1.00  0.00    -0.119 A  
HETATM   13  I   UNL     1      -5.897  14.063  70.528  1.00  0.00    -0.131 I  
BRANCH  12  14
HETATM   14  C   UNL     1      -9.542  11.947  65.544  1.00  0.00    -0.182 C  
HETATM   15  N   UNL     1     -10.869  11.667  65.809  1.00  0.00    -0.284 N  
HETATM   16  O   UNL     1      -9.055  11.823  64.425  1.00  0.00     0.152 OA 
HETATM   17  H   UNL     1     -11.220  11.779  66.760  1.00  0.00     0.000 HD 
BRANCH  15  18
HETATM   18  C   UNL     1     -11.782  11.217  64.761  1.00  0.00     0.340 C  
BRANCH  18  19
HETATM   19  C   UNL     1     -12.713  12.340  64.279  1.00  0.00    -0.315 C  
HETATM   20  H   UNL     1     -13.685  13.837  65.106  1.00  0.00     0.000 HD 
HETATM   21  O   UNL     1     -13.109  13.142  65.403  1.00  0.00    -0.618 OA 
BRANCH  19  22
HETATM   22  C   UNL     1     -12.040  13.212  63.205  1.00  0.00    -0.207 C  
HETATM   23  O   UNL     1     -12.399  14.586  63.339  1.00  0.00    -1.064 OA 
HETATM   24  H   UNL     1     -11.984  15.124  62.676  1.00  0.00     0.000 HD 
ENDBRANCH  19  22
ENDBRANCH  18  19
ENDBRANCH  15  18
ENDBRANCH  12  14
BRANCH  11  25
HETATM   25  C   UNL     1      -6.342  10.936  69.341  1.00  0.00    -0.070 C  
HETATM   26  O   UNL     1      -5.136  10.766  69.196  1.00  0.00    -0.042 OA 
HETATM   27  H   UNL     1      -8.088  10.431  70.356  1.00  0.00     0.000 HD 
HETATM   28  N   UNL     1      -7.095  10.219  70.256  1.00  0.00    -0.149 N  
BRANCH  28  29
HETATM   29  C   UNL     1      -6.510   9.176  71.077  1.00  0.00    -0.081 C  
BRANCH  29  30
HETATM   30  C   UNL     1      -7.595   8.265  71.634  1.00  0.00    -0.096 C  
HETATM   31  O   UNL     1      -8.010   8.749  72.914  1.00  0.00    -0.391 OA 
HETATM   32  H   UNL     1      -8.687   8.181  73.262  1.00  0.00     0.000 HD 
ENDBRANCH  29  30
ENDBRANCH  28  29
ENDBRANCH  11  25
ENDBRANCH   3   5
BRANCH   3  33
HETATM   33  C   UNL     1      -8.534  16.214  69.382  1.00  0.00    -0.091 C  
BRANCH  33  34
HETATM   34  C   UNL     1      -9.737  17.064  68.886  1.00  0.00    -0.259 C  
HETATM   35  O   UNL     1     -10.950  16.756  69.589  1.00  0.00    -0.349 OA 
HETATM   36  H   UNL     1     -11.685  17.275  69.286  1.00  0.00     0.000 HD 
BRANCH  34  37
HETATM   37  C   UNL     1      -9.486  18.576  69.026  1.00  0.00    -0.165 C  
HETATM   38  H   UNL     1     -10.134  20.252  68.193  1.00  0.00     0.000 HD 
HETATM   39  O   UNL     1     -10.290  19.319  68.107  1.00  0.00    -0.396 OA 
ENDBRANCH  34  37
ENDBRANCH  33  34
ENDBRANCH   3  33
TORSDOF 11
ENDMDL
MODEL       93
REMARK 921   NORMALIZED FREE ENERGY PREDICTED BY IDOCK:   -3.68 KCAL/MOL
REMARK 922        TOTAL FREE ENERGY PREDICTED BY IDOCK:   -6.66 KCAL/MOL
REMARK 923 INTER-LIGAND FREE ENERGY PREDICTED BY IDOCK:   -7.12 KCAL/MOL
REMARK 924 INTRA-LIGAND FREE ENERGY PREDICTED BY IDOCK:    0.47 KCAL/MOL
REMARK 927      BINDING AFFINITY PREDICTED BY RF-SCORE:    0.00 PKD
ROOT
HETATM    1  C   UNL     1      -7.152   3.184  69.772  1.00  0.00    -0.041 C  
HETATM    2  C   UNL     1      -7.354   4.647  69.491  1.00  0.00    -0.052 C  
HETATM    3  N   UNL     1      -8.530   5.029  68.840  1.00  0.00    -0.086 N  
HETATM    4  O   UNL     1      -6.508   5.462  69.870  1.00  0.00    -0.029 OA 
ENDROOT
BRANCH   3   5
HETATM    5  C   UNL     1      -8.657   6.432  68.575  1.00  0.00    -0.122 A  
HETATM    6  I   UNL     1      -8.563  11.362  67.978  1.00  0.00    -0.163 I  
HETATM    7  C   UNL     1      -8.778   9.201  68.082  1.00  0.00    -0.129 A  
HETATM    8  C   UNL     1      -9.587   7.241  69.282  1.00  0.00    -0.156 A  
HETATM    9  I   UNL     1     -10.977   6.274  70.632  1.00  0.00    -0.394 I  
HETATM   10  C   UNL     1      -7.876   6.999  67.533  1.00  0.00    -0.112 A  
HETATM   11  C   UNL     1      -7.921   8.389  67.285  1.00  0.00    -0.105 A  
HETATM   12  C   UNL     1      -9.655   8.637  69.046  1.00  0.00    -0.163 A  
HETATM   13  I   UNL     1      -6.670   5.657  66.306  1.00  0.00    -0.061 I  
BRANCH  12  14
HETATM   14  C   UNL     1     -10.570   9.486  69.875  1.00  0.00    -0.241 C  
HETATM   15  N   UNL     1     -11.783   9.849  69.323  1.00  0.00    -0.460 N  
HETATM   16  O   UNL     1     -10.225   9.843  70.996  1.00  0.00    -0.168 OA 
HETATM   17  H   UNL     1     -12.015   9.531  68.382  1.00  0.00     0.000 HD 
BRANCH  15  18
HETATM   18  C   UNL     1     -12.741  10.675  70.054  1.00  0.00    -0.092 C  
BRANCH  18  19
HETATM   19  C   UNL     1     -12.892  10.234  71.517  1.00  0.00    -0.452 C  
HETATM   20  H   UNL     1     -13.450  11.071  73.207  1.00  0.00     0.000 HD 
HETATM   21  O   UNL     1     -13.357  11.344  72.302  1.00  0.00    -0.410 OA 
BRANCH  19  22
HETATM   22  C   UNL     1     -13.851   9.039  71.652  1.00  0.00    -0.368 C  
HETATM   23  O   UNL     1     -14.363   8.920  72.978  1.00  0.00    -1.115 OA 
HETATM   24  H   UNL     1     -14.956   8.182  73.062  1.00  0.00     0.000 HD 
ENDBRANCH  19  22
ENDBRANCH  18  19
ENDBRANCH  15  18
ENDBRANCH  12  14
BRANCH  11  25
HETATM   25  C   UNL     1      -7.164   8.992  66.156  1.00  0.00    -0.090 C  
HETATM   26  O   UNL     1      -5.999   9.338  66.324  1.00  0.00    -0.057 OA 
HETATM   27  H   UNL     1      -8.783   8.812  64.861  1.00  0.00     0.000 HD 
HETATM   28  N   UNL     1      -7.826   9.153  64.950  1.00  0.00    -0.113 N  
BRANCH  28  29
HETATM   29  C   UNL     1      -7.196   9.792  63.811  1.00  0.00    -0.120 C  
BRANCH  29  30
HETATM   30  C   UNL     1      -8.231  10.118  62.743  1.00  0.00    -0.153 C  
HETATM   31  O   UNL     1      -8.232  11.526  62.496  1.00  0.00    -0.599 OA 
HETATM   32  H   UNL     1      -8.878  11.729  61.830  1.00  0.00     0.000 HD 
ENDBRANCH  29  30
ENDBRANCH  28  29
ENDBRANCH  11  25
ENDBRANCH   3   5
BRANCH   3  33
HETATM   33  C   UNL     1      -9.532   4.099  68.244  1.00  0.00    -0.154 C  
BRANCH  33  34
HETATM   34  C   UNL     1      -9.337   3.709  66.753  1.00  0.00    -0.190 C  
HETATM   35  O   UNL     1      -9.454   2.295  66.538  1.00  0.00    -0.365 OA 
HETATM   36  H   UNL     1      -9.335   2.057  65.626  1.00  0.00     0.000 HD 
BRANCH  34  37
HETATM   37  C   UNL     1     -10.347   4.409  65.826  1.00  0.00    -0.217 C  
HETATM   38  H   UNL     1     -11.729   5.822  65.965  1.00  0.00     0.000 HD 
HETATM   39  O   UNL     1     -11.105   5.391  66.537  1.00  0.00    -0.148 OA 
ENDBRANCH  34  37
ENDBRANCH  33  34
ENDBRANCH   3  33
TORSDOF 11
ENDMDL
MODEL       94
REMARK 921   NORMALIZED FREE ENERGY PREDICTED BY IDOCK:   -3.62 KCAL/MOL
REMARK 922        TOTAL FREE ENERGY PREDICTED BY IDOCK:   -6.56 KCAL/MOL
REMARK 923 INTER-LIGAND FREE ENERGY PREDICTED BY IDOCK:   -6.68 KCAL/MOL
REMARK 924 INTRA-LIGAND FREE ENERGY PREDICTED BY IDOCK:    0.11 KCAL/MOL
REMARK 927      BINDING AFFINITY PREDICTED BY RF-SCORE:    0.00 PKD
ROOT
HETATM    1  C   UNL     1      -6.578   6.570  64.256  1.00  0.00    -0.037 C  
HETATM    2  C   UNL     1      -7.653   7.365  64.942  1.00  0.00    -0.105 C  
HETATM    3  N   UNL     1      -7.263   8.487  65.680  1.00  0.00    -0.078 N  
HETATM    4  O   UNL     1      -8.834   7.034  64.809  1.00  0.00     0.248 OA 
ENDROOT
BRANCH   3   5
HETATM    5  C   UNL     1      -8.326   9.190  66.335  1.00  0.00    -0.122 A  
HETATM    6  I   UNL     1     -11.613  12.112  68.644  1.00  0.00    -0.380 I  
HETATM    7  C   UNL     1     -10.352  10.685  67.596  1.00  0.00    -0.209 A  
HETATM    8  C   UNL     1      -8.665   8.930  67.691  1.00  0.00    -0.124 A  
HETATM    9  I   UNL     1      -7.683   7.284  68.700  1.00  0.00    -0.125 I  
HETATM   10  C   UNL     1      -9.092  10.119  65.582  1.00  0.00    -0.179 A  
HETATM   11  C   UNL     1     -10.103  10.882  66.207  1.00  0.00    -0.284 A  
HETATM   12  C   UNL     1      -9.680   9.678  68.338  1.00  0.00    -0.163 A  
HETATM   13  I   UNL     1      -8.700  10.277  63.441  1.00  0.00    -0.270 I  
BRANCH  12  14
HETATM   14  C   UNL     1      -9.949   9.456  69.795  1.00  0.00    -0.200 C  
HETATM   15  N   UNL     1     -11.187   8.955  70.149  1.00  0.00    -0.380 N  
HETATM   16  O   UNL     1      -9.090   9.731  70.626  1.00  0.00    -0.146 OA 
HETATM   17  H   UNL     1     -11.869   8.753  69.417  1.00  0.00     0.000 HD 
BRANCH  15  18
HETATM   18  C   UNL     1     -11.543   8.707  71.544  1.00  0.00    -0.302 C  
BRANCH  18  19
HETATM   19  C   UNL     1     -12.169   7.318  71.746  1.00  0.00    -0.334 C  
HETATM   20  H   UNL     1     -13.954   6.518  71.547  1.00  0.00     0.000 HD 
HETATM   21  O   UNL     1     -13.567   7.377  71.423  1.00  0.00    -0.379 OA 
BRANCH  19  22
HETATM   22  C   UNL     1     -11.463   6.250  70.894  1.00  0.00    -0.312 C  
HETATM   23  O   UNL     1     -11.843   6.332  69.522  1.00  0.00    -0.486 OA 
HETATM   24  H   UNL     1     -11.407   5.672  68.996  1.00  0.00     0.000 HD 
ENDBRANCH  19  22
ENDBRANCH  18  19
ENDBRANCH  15  18
ENDBRANCH  12  14
BRANCH  11  25
HETATM   25  C   UNL     1     -10.962  11.808  65.423  1.00  0.00    -0.297 C  
HETATM   26  O   UNL     1     -12.078  11.443  65.065  1.00  0.00     0.107 OA 
HETATM   27  H   UNL     1      -9.528  13.316  65.470  1.00  0.00     0.000 HD 
HETATM   28  N   UNL     1     -10.448  13.056  65.113  1.00  0.00    -0.310 N  
BRANCH  28  29
HETATM   29  C   UNL     1     -11.181  14.004  64.295  1.00  0.00    -0.220 C  
BRANCH  29  30
HETATM   30  C   UNL     1     -12.194  14.764  65.139  1.00  0.00    -0.202 C  
HETATM   31  O   UNL     1     -13.388  13.987  65.262  1.00  0.00    -0.741 OA 
HETATM   32  H   UNL     1     -14.020  14.461  65.788  1.00  0.00     0.000 HD 
ENDBRANCH  29  30
ENDBRANCH  28  29
ENDBRANCH  11  25
ENDBRANCH   3   5
BRANCH   3  33
HETATM   33  C   UNL     1      -5.857   8.874  65.989  1.00  0.00    -0.051 C  
BRANCH  33  34
HETATM   34  C   UNL     1      -5.405  10.298  65.563  1.00  0.00    -0.079 C  
HETATM   35  O   UNL     1      -5.917  10.671  64.275  1.00  0.00    -0.337 OA 
HETATM   36  H   UNL     1      -5.641  11.542  64.014  1.00  0.00     0.000 HD 
BRANCH  34  37
HETATM   37  C   UNL     1      -5.840  11.379  66.570  1.00  0.00    -0.138 C  
HETATM   38  H   UNL     1      -5.960  11.585  68.536  1.00  0.00     0.000 HD 
HETATM   39  O   UNL     1      -5.692  10.919  67.915  1.00  0.00    -0.042 OA 
ENDBRANCH  34  37
ENDBRANCH  33  34
ENDBRANCH   3  33
TORSDOF 11
ENDMDL
MODEL       95
REMARK 921   NORMALIZED FREE ENERGY PREDICTED BY IDOCK:   -3.62 KCAL/MOL
REMARK 922        TOTAL FREE ENERGY PREDICTED BY IDOCK:   -6.56 KCAL/MOL
REMARK 923 INTER-LIGAND FREE ENERGY PREDICTED BY IDOCK:   -6.80 KCAL/MOL
REMARK 924 INTRA-LIGAND FREE ENERGY PREDICTED BY IDOCK:    0.24 KCAL/MOL
REMARK 927      BINDING AFFINITY PREDICTED BY RF-SCORE:    0.00 PKD
ROOT
HETATM    1  C   UNL     1      -8.209   8.842  71.424  1.00  0.00    -0.203 C  
HETATM    2  C   UNL     1      -8.169   8.999  69.930  1.00  0.00    -0.124 C  
HETATM    3  N   UNL     1      -9.294   8.601  69.202  1.00  0.00    -0.152 N  
HETATM    4  O   UNL     1      -7.175   9.499  69.398  1.00  0.00    -0.058 OA 
ENDROOT
BRANCH   3   5
HETATM    5  C   UNL     1      -9.189   8.748  67.780  1.00  0.00    -0.134 A  
HETATM    6  I   UNL     1      -8.252   9.492  62.959  1.00  0.00    -0.210 I  
HETATM    7  C   UNL     1      -8.851   9.046  65.001  1.00  0.00    -0.170 A  
HETATM    8  C   UNL     1      -9.861   9.792  67.089  1.00  0.00    -0.188 A  
HETATM    9  I   UNL     1     -11.237  11.044  68.198  1.00  0.00    -0.370 I  
HETATM   10  C   UNL     1      -8.445   7.783  67.052  1.00  0.00    -0.124 A  
HETATM   11  C   UNL     1      -8.260   7.929  65.659  1.00  0.00    -0.137 A  
HETATM   12  C   UNL     1      -9.696   9.954  65.691  1.00  0.00    -0.346 A  
HETATM   13  I   UNL     1      -7.663   6.057  68.133  1.00  0.00    -0.104 I  
BRANCH  12  14
HETATM   14  C   UNL     1     -10.333  11.122  65.000  1.00  0.00    -0.301 C  
HETATM   15  N   UNL     1      -9.711  12.350  65.112  1.00  0.00    -0.451 N  
HETATM   16  O   UNL     1     -11.376  10.969  64.374  1.00  0.00    -0.050 OA 
HETATM   17  H   UNL     1      -8.849  12.423  65.653  1.00  0.00     0.000 HD 
BRANCH  15  18
HETATM   18  C   UNL     1     -10.256  13.547  64.475  1.00  0.00    -0.269 C  
BRANCH  18  19
HETATM   19  C   UNL     1     -10.807  14.550  65.499  1.00  0.00    -0.336 C  
HETATM   20  H   UNL     1     -10.989  16.504  65.623  1.00  0.00     0.000 HD 
HETATM   21  O   UNL     1     -10.648  15.883  64.990  1.00  0.00    -0.497 OA 
BRANCH  19  22
HETATM   22  C   UNL     1     -12.284  14.271  65.828  1.00  0.00    -0.403 C  
HETATM   23  O   UNL     1     -12.513  14.226  67.235  1.00  0.00    -0.589 OA 
HETATM   24  H   UNL     1     -13.424  14.053  67.438  1.00  0.00     0.000 HD 
ENDBRANCH  19  22
ENDBRANCH  18  19
ENDBRANCH  15  18
ENDBRANCH  12  14
BRANCH  11  25
HETATM   25  C   UNL     1      -7.543   6.893  64.867  1.00  0.00    -0.106 C  
HETATM   26  O   UNL     1      -6.320   6.935  64.782  1.00  0.00    -0.035 OA 
HETATM   27  H   UNL     1      -9.316   5.920  64.374  1.00  0.00     0.000 HD 
HETATM   28  N   UNL     1      -8.305   5.924  64.237  1.00  0.00    -0.082 N  
BRANCH  28  29
HETATM   29  C   UNL     1      -7.706   4.913  63.387  1.00  0.00    -0.072 C  
BRANCH  29  30
HETATM   30  C   UNL     1      -8.749   3.891  62.957  1.00  0.00    -0.100 C  
HETATM   31  O   UNL     1      -9.409   3.371  64.113  1.00  0.00    -0.120 OA 
HETATM   32  H   UNL     1     -10.060   2.733  63.845  1.00  0.00     0.000 HD 
ENDBRANCH  29  30
ENDBRANCH  28  29
ENDBRANCH  11  25
ENDBRANCH   3   5
BRANCH   3  33
HETATM   33  C   UNL     1     -10.473   7.877  69.757  1.00  0.00    -0.233 C  
BRANCH  33  34
HETATM   34  C   UNL     1     -10.186   6.677  70.702  1.00  0.00    -0.189 C  
HETATM   35  O   UNL     1     -10.855   6.805  71.966  1.00  0.00    -0.219 OA 
HETATM   36  H   UNL     1     -10.679   6.071  72.543  1.00  0.00     0.000 HD 
BRANCH  34  37
HETATM   37  C   UNL     1     -10.604   5.330  70.085  1.00  0.00    -0.227 C  
HETATM   38  H   UNL     1     -10.188   3.410  70.340  1.00  0.00     0.000 HD 
HETATM   39  O   UNL     1      -9.931   4.241  70.721  1.00  0.00    -0.200 OA 
ENDBRANCH  34  37
ENDBRANCH  33  34
ENDBRANCH   3  33
TORSDOF 11
ENDMDL
MODEL       96
REMARK 921   NORMALIZED FREE ENERGY PREDICTED BY IDOCK:   -3.58 KCAL/MOL
REMARK 922        TOTAL FREE ENERGY PREDICTED BY IDOCK:   -6.50 KCAL/MOL
REMARK 923 INTER-LIGAND FREE ENERGY PREDICTED BY IDOCK:   -6.13 KCAL/MOL
REMARK 924 INTRA-LIGAND FREE ENERGY PREDICTED BY IDOCK:   -0.37 KCAL/MOL
REMARK 927      BINDING AFFINITY PREDICTED BY RF-SCORE:    0.00 PKD
ROOT
HETATM    1  C   UNL     1      -5.125   4.246  66.335  1.00  0.00    -0.008 C  
HETATM    2  C   UNL     1      -6.115   5.267  66.824  1.00  0.00    -0.030 C  
HETATM    3  N   UNL     1      -7.354   5.333  66.181  1.00  0.00    -0.080 N  
HETATM    4  O   UNL     1      -5.825   5.982  67.787  1.00  0.00    -0.015 OA 
ENDROOT
BRANCH   3   5
HETATM    5  C   UNL     1      -8.246   6.342  66.671  1.00  0.00    -0.111 A  
HETATM    6  I   UNL     1     -10.840  10.080  68.665  1.00  0.00    -0.197 I  
HETATM    7  C   UNL     1      -9.893   8.399  67.661  1.00  0.00    -0.173 A  
HETATM    8  C   UNL     1      -9.167   6.075  67.720  1.00  0.00    -0.107 A  
HETATM    9  I   UNL     1      -9.355   4.038  68.432  1.00  0.00    -0.166 I  
HETATM   10  C   UNL     1      -8.244   7.614  66.040  1.00  0.00    -0.128 A  
HETATM   11  C   UNL     1      -9.058   8.656  66.535  1.00  0.00    -0.206 A  
HETATM   12  C   UNL     1      -9.998   7.103  68.229  1.00  0.00    -0.171 A  
HETATM   13  I   UNL     1      -7.004   7.878  64.264  1.00  0.00    -0.078 I  
BRANCH  12  14
HETATM   14  C   UNL     1     -10.887   6.824  69.403  1.00  0.00    -0.271 C  
HETATM   15  N   UNL     1     -10.403   7.128  70.660  1.00  0.00    -0.203 N  
HETATM   16  O   UNL     1     -11.997   6.331  69.228  1.00  0.00     0.123 OA 
HETATM   17  H   UNL     1      -9.469   7.528  70.750  1.00  0.00     0.000 HD 
BRANCH  15  18
HETATM   18  C   UNL     1     -11.195   6.891  71.865  1.00  0.00    -0.254 C  
BRANCH  18  19
HETATM   19  C   UNL     1     -11.518   8.193  72.614  1.00  0.00    -0.387 C  
HETATM   20  H   UNL     1     -10.695   9.969  72.803  1.00  0.00     0.000 HD 
HETATM   21  O   UNL     1     -10.495   9.164  72.340  1.00  0.00    -0.038 OA 
BRANCH  19  22
HETATM   22  C   UNL     1     -12.901   8.742  72.223  1.00  0.00    -0.405 C  
HETATM   23  O   UNL     1     -13.806   8.725  73.325  1.00  0.00    -1.115 OA 
HETATM   24  H   UNL     1     -14.660   9.064  73.084  1.00  0.00     0.000 HD 
ENDBRANCH  19  22
ENDBRANCH  18  19
ENDBRANCH  15  18
ENDBRANCH  12  14
BRANCH  11  25
HETATM   25  C   UNL     1      -9.123   9.974  65.848  1.00  0.00    -0.159 C  
HETATM   26  O   UNL     1      -8.301  10.842  66.124  1.00  0.00    -0.162 OA 
HETATM   27  H   UNL     1     -10.766   9.396  64.709  1.00  0.00     0.000 HD 
HETATM   28  N   UNL     1     -10.135  10.168  64.923  1.00  0.00    -0.295 N  
BRANCH  28  29
HETATM   29  C   UNL     1     -10.323  11.440  64.250  1.00  0.00    -0.328 C  
BRANCH  29  30
HETATM   30  C   UNL     1     -11.787  11.852  64.290  1.00  0.00    -0.279 C  
HETATM   31  O   UNL     1     -12.136  12.236  65.622  1.00  0.00    -0.557 OA 
HETATM   32  H   UNL     1     -13.050  12.494  65.647  1.00  0.00     0.000 HD 
ENDBRANCH  29  30
ENDBRANCH  28  29
ENDBRANCH  11  25
ENDBRANCH   3   5
BRANCH   3  33
HETATM   33  C   UNL     1      -7.726   4.595  64.940  1.00  0.00    -0.078 C  
BRANCH  33  34
HETATM   34  C   UNL     1      -7.587   3.048  64.967  1.00  0.00    -0.076 C  
HETATM   35  O   UNL     1      -8.832   2.392  65.252  1.00  0.00    -0.113 OA 
HETATM   36  H   UNL     1      -8.747   1.447  65.268  1.00  0.00     0.000 HD 
BRANCH  34  37
HETATM   37  C   UNL     1      -7.053   2.483  63.639  1.00  0.00    -0.041 C  
HETATM   38  H   UNL     1      -6.118   3.159  62.029  1.00  0.00     0.000 HD 
HETATM   39  O   UNL     1      -6.447   3.508  62.849  1.00  0.00    -0.021 OA 
ENDBRANCH  34  37
ENDBRANCH  33  34
ENDBRANCH   3  33
TORSDOF 11
ENDMDL
MODEL       97
REMARK 921   NORMALIZED FREE ENERGY PREDICTED BY IDOCK:   -3.55 KCAL/MOL
REMARK 922        TOTAL FREE ENERGY PREDICTED BY IDOCK:   -6.44 KCAL/MOL
REMARK 923 INTER-LIGAND FREE ENERGY PREDICTED BY IDOCK:   -6.99 KCAL/MOL
REMARK 924 INTRA-LIGAND FREE ENERGY PREDICTED BY IDOCK:    0.55 KCAL/MOL
REMARK 927      BINDING AFFINITY PREDICTED BY RF-SCORE:    0.00 PKD
ROOT
HETATM    1  C   UNL     1     -11.859  12.599  63.439  1.00  0.00    -0.594 C  
HETATM    2  C   UNL     1     -10.635  12.863  64.273  1.00  0.00    -0.408 C  
HETATM    3  N   UNL     1     -10.823  13.357  65.566  1.00  0.00    -0.285 N  
HETATM    4  O   UNL     1      -9.520  12.605  63.813  1.00  0.00     0.022 OA 
ENDROOT
BRANCH   3   5
HETATM    5  C   UNL     1      -9.621  13.616  66.304  1.00  0.00    -0.239 A  
HETATM    6  I   UNL     1      -5.175  14.568  68.304  1.00  0.00    -0.093 I  
HETATM    7  C   UNL     1      -7.209  14.176  67.644  1.00  0.00    -0.180 A  
HETATM    8  C   UNL     1      -8.901  12.569  66.942  1.00  0.00    -0.203 A  
HETATM    9  I   UNL     1      -9.770  10.586  66.965  1.00  0.00    -0.243 I  
HETATM   10  C   UNL     1      -9.189  14.960  66.447  1.00  0.00    -0.284 A  
HETATM   11  C   UNL     1      -7.975  15.251  67.108  1.00  0.00    -0.251 A  
HETATM   12  C   UNL     1      -7.684  12.838  67.616  1.00  0.00    -0.162 A  
HETATM   13  I   UNL     1     -10.479  16.543  65.678  1.00  0.00    -0.045 I  
BRANCH  12  14
HETATM   14  C   UNL     1      -6.890  11.705  68.193  1.00  0.00    -0.068 C  
HETATM   15  N   UNL     1      -7.119  11.368  69.512  1.00  0.00    -0.302 N  
HETATM   16  O   UNL     1      -6.063  11.122  67.500  1.00  0.00    -0.047 OA 
HETATM   17  H   UNL     1      -7.813  11.893  70.046  1.00  0.00     0.000 HD 
BRANCH  15  18
HETATM   18  C   UNL     1      -6.394  10.280  70.163  1.00  0.00    -0.117 C  
BRANCH  18  19
HETATM   19  C   UNL     1      -7.338   9.211  70.733  1.00  0.00    -0.114 C  
HETATM   20  H   UNL     1      -9.273   8.862  70.710  1.00  0.00     0.000 HD 
HETATM   21  O   UNL     1      -8.689   9.523  70.358  1.00  0.00    -0.217 OA 
BRANCH  19  22
HETATM   22  C   UNL     1      -6.956   7.801  70.248  1.00  0.00    -0.050 C  
HETATM   23  O   UNL     1      -8.034   7.170  69.559  1.00  0.00    -0.122 OA 
HETATM   24  H   UNL     1      -7.798   6.300  69.260  1.00  0.00     0.000 HD 
ENDBRANCH  19  22
ENDBRANCH  18  19
ENDBRANCH  15  18
ENDBRANCH  12  14
BRANCH  11  25
HETATM   25  C   UNL     1      -7.538  16.656  67.330  1.00  0.00    -0.169 C  
HETATM   26  O   UNL     1      -7.872  17.239  68.357  1.00  0.00    -0.233 OA 
HETATM   27  H   UNL     1      -6.500  16.709  65.527  1.00  0.00     0.000 HD 
HETATM   28  N   UNL     1      -6.776  17.257  66.342  1.00  0.00    -0.243 N  
BRANCH  28  29
HETATM   29  C   UNL     1      -6.360  18.643  66.434  1.00  0.00    -0.191 C  
BRANCH  29  30
HETATM   30  C   UNL     1      -7.279  19.531  65.607  1.00  0.00    -0.262 C  
HETATM   31  O   UNL     1      -7.748  20.613  66.415  1.00  0.00    -0.506 OA 
HETATM   32  H   UNL     1      -8.321  21.167  65.899  1.00  0.00     0.000 HD 
ENDBRANCH  29  30
ENDBRANCH  28  29
ENDBRANCH  11  25
ENDBRANCH   3   5
BRANCH   3  33
HETATM   33  C   UNL     1     -12.122  13.809  66.142  1.00  0.00    -0.441 C  
BRANCH  33  34
HETATM   34  C   UNL     1     -12.485  13.292  67.561  1.00  0.00     0.257 C  
HETATM   35  O   UNL     1     -12.244  11.886  67.709  1.00  0.00    -0.508 OA 
HETATM   36  H   UNL     1     -12.465  11.570  68.577  1.00  0.00     0.000 HD 
BRANCH  34  37
HETATM   37  C   UNL     1     -11.704  14.021  68.669  1.00  0.00    -0.354 C  
HETATM   38  H   UNL     1     -11.861  14.314  70.622  1.00  0.00     0.000 HD 
HETATM   39  O   UNL     1     -12.343  13.864  69.938  1.00  0.00    -0.332 OA 
ENDBRANCH  34  37
ENDBRANCH  33  34
ENDBRANCH   3  33
TORSDOF 11
ENDMDL
MODEL       98
REMARK 921   NORMALIZED FREE ENERGY PREDICTED BY IDOCK:   -3.53 KCAL/MOL
REMARK 922        TOTAL FREE ENERGY PREDICTED BY IDOCK:   -6.41 KCAL/MOL
REMARK 923 INTER-LIGAND FREE ENERGY PREDICTED BY IDOCK:   -5.84 KCAL/MOL
REMARK 924 INTRA-LIGAND FREE ENERGY PREDICTED BY IDOCK:   -0.58 KCAL/MOL
REMARK 927      BINDING AFFINITY PREDICTED BY RF-SCORE:    0.00 PKD
ROOT
HETATM    1  C   UNL     1     -12.745  12.832  65.409  1.00  0.00    -0.234 C  
HETATM    2  C   UNL     1     -11.596  12.556  66.337  1.00  0.00    -0.391 C  
HETATM    3  N   UNL     1     -10.332  12.367  65.771  1.00  0.00    -0.257 N  
HETATM    4  O   UNL     1     -11.788  12.540  67.556  1.00  0.00    -0.374 OA 
ENDROOT
BRANCH   3   5
HETATM    5  C   UNL     1      -9.279  12.080  66.700  1.00  0.00    -0.211 A  
HETATM    6  I   UNL     1      -5.245  11.099  69.427  1.00  0.00    -0.047 I  
HETATM    7  C   UNL     1      -7.125  11.558  68.436  1.00  0.00    -0.081 A  
HETATM    8  C   UNL     1      -9.094  10.776  67.234  1.00  0.00    -0.144 A  
HETATM    9  I   UNL     1     -10.573   9.259  66.785  1.00  0.00     0.180 I  
HETATM   10  C   UNL     1      -8.451  13.147  67.138  1.00  0.00    -0.169 A  
HETATM   11  C   UNL     1      -7.361  12.894  68.000  1.00  0.00    -0.120 A  
HETATM   12  C   UNL     1      -8.012  10.500  68.106  1.00  0.00    -0.111 A  
HETATM   13  I   UNL     1      -8.953  15.170  66.494  1.00  0.00    -0.167 I  
BRANCH  12  14
HETATM   14  C   UNL     1      -7.776   9.096  68.575  1.00  0.00    -0.093 C  
HETATM   15  N   UNL     1      -8.230   8.757  69.834  1.00  0.00    -0.113 N  
HETATM   16  O   UNL     1      -7.188   8.299  67.852  1.00  0.00    -0.090 OA 
HETATM   17  H   UNL     1      -8.705   9.462  70.398  1.00  0.00     0.000 HD 
BRANCH  15  18
HETATM   18  C   UNL     1      -8.046   7.414  70.379  1.00  0.00    -0.108 C  
BRANCH  18  19
HETATM   19  C   UNL     1      -8.035   7.406  71.916  1.00  0.00    -0.090 C  
HETATM   20  H   UNL     1      -8.219   8.741  73.348  1.00  0.00     0.000 HD 
HETATM   21  O   UNL     1      -8.227   8.746  72.398  1.00  0.00    -0.377 OA 
BRANCH  19  22
HETATM   22  C   UNL     1      -9.113   6.468  72.486  1.00  0.00    -0.135 C  
HETATM   23  O   UNL     1      -8.867   6.151  73.854  1.00  0.00    -0.123 OA 
HETATM   24  H   UNL     1      -9.532   5.572  74.206  1.00  0.00     0.000 HD 
ENDBRANCH  19  22
ENDBRANCH  18  19
ENDBRANCH  15  18
ENDBRANCH  12  14
BRANCH  11  25
HETATM   25  C   UNL     1      -6.524  14.006  68.526  1.00  0.00    -0.093 C  
HETATM   26  O   UNL     1      -5.600  14.442  67.846  1.00  0.00    -0.161 OA 
HETATM   27  H   UNL     1      -7.624  14.116  70.289  1.00  0.00     0.000 HD 
HETATM   28  N   UNL     1      -6.821  14.495  69.787  1.00  0.00    -0.149 N  
BRANCH  28  29
HETATM   29  C   UNL     1      -6.022  15.530  70.414  1.00  0.00    -0.065 C  
BRANCH  29  30
HETATM   30  C   UNL     1      -5.313  14.984  71.645  1.00  0.00    -0.016 C  
HETATM   31  O   UNL     1      -5.966  13.788  72.078  1.00  0.00    -0.546 OA 
HETATM   32  H   UNL     1      -5.524  13.447  72.846  1.00  0.00     0.000 HD 
ENDBRANCH  29  30
ENDBRANCH  28  29
ENDBRANCH  11  25
ENDBRANCH   3   5
BRANCH   3  33
HETATM   33  C   UNL     1     -10.046  12.246  64.312  1.00  0.00    -0.284 C  
BRANCH  33  34
HETATM   34  C   UNL     1      -9.772  10.820  63.761  1.00  0.00    -0.321 C  
HETATM   35  O   UNL     1     -10.401  10.595  62.491  1.00  0.00    -0.751 OA 
HETATM   36  H   UNL     1     -10.233   9.724  62.153  1.00  0.00     0.000 HD 
BRANCH  34  37
HETATM   37  C   UNL     1      -8.268  10.533  63.595  1.00  0.00    -0.076 C  
HETATM   38  H   UNL     1      -6.989   9.099  64.077  1.00  0.00     0.000 HD 
HETATM   39  O   UNL     1      -7.917   9.276  64.179  1.00  0.00    -0.122 OA 
ENDBRANCH  34  37
ENDBRANCH  33  34
ENDBRANCH   3  33
TORSDOF 11
ENDMDL
MODEL       99
REMARK 921   NORMALIZED FREE ENERGY PREDICTED BY IDOCK:   -3.53 KCAL/MOL
REMARK 922        TOTAL FREE ENERGY PREDICTED BY IDOCK:   -6.41 KCAL/MOL
REMARK 923 INTER-LIGAND FREE ENERGY PREDICTED BY IDOCK:   -8.37 KCAL/MOL
REMARK 924 INTRA-LIGAND FREE ENERGY PREDICTED BY IDOCK:    1.96 KCAL/MOL
REMARK 927      BINDING AFFINITY PREDICTED BY RF-SCORE:    0.00 PKD
ROOT
HETATM    1  C   UNL     1      -7.435  10.715  65.044  1.00  0.00     0.071 C  
HETATM    2  C   UNL     1      -8.150  10.962  66.343  1.00  0.00    -0.164 C  
HETATM    3  N   UNL     1      -9.541  10.824  66.357  1.00  0.00    -0.184 N  
HETATM    4  O   UNL     1      -7.498  11.240  67.352  1.00  0.00    -0.104 OA 
ENDROOT
BRANCH   3   5
HETATM    5  C   UNL     1     -10.171  11.099  67.615  1.00  0.00    -0.181 A  
HETATM    6  I   UNL     1     -12.883  11.827  71.712  1.00  0.00     0.151 I  
HETATM    7  C   UNL     1     -11.508  11.557  70.050  1.00  0.00    -0.220 A  
HETATM    8  C   UNL     1     -10.523  12.422  67.997  1.00  0.00    -0.217 A  
HETATM    9  I   UNL     1      -9.890  14.062  66.732  1.00  0.00    -0.307 I  
HETATM   10  C   UNL     1     -10.385  10.023  68.516  1.00  0.00    -0.193 A  
HETATM   11  C   UNL     1     -11.065  10.240  69.736  1.00  0.00    -0.340 A  
HETATM   12  C   UNL     1     -11.199  12.665  69.218  1.00  0.00    -0.255 A  
HETATM   13  I   UNL     1      -9.582   8.064  67.989  1.00  0.00    -0.206 I  
BRANCH  12  14
HETATM   14  C   UNL     1     -11.650  14.054  69.552  1.00  0.00    -0.295 C  
HETATM   15  N   UNL     1     -12.906  14.205  70.106  1.00  0.00    -0.396 N  
HETATM   16  O   UNL     1     -10.916  15.009  69.320  1.00  0.00    -0.241 OA 
HETATM   17  H   UNL     1     -13.480  13.376  70.270  1.00  0.00     0.000 HD 
BRANCH  15  18
HETATM   18  C   UNL     1     -13.434  15.519  70.465  1.00  0.00     0.094 C  
BRANCH  18  19
HETATM   19  C   UNL     1     -13.584  15.691  71.984  1.00  0.00    -0.441 C  
HETATM   20  H   UNL     1     -14.341  14.646  73.468  1.00  0.00     0.000 HD 
HETATM   21  O   UNL     1     -14.248  14.540  72.528  1.00  0.00    -0.497 OA 
BRANCH  19  22
HETATM   22  C   UNL     1     -12.221  15.901  72.667  1.00  0.00    -0.502 C  
HETATM   23  O   UNL     1     -11.258  14.944  72.230  1.00  0.00    -0.422 OA 
HETATM   24  H   UNL     1     -10.418  15.073  72.652  1.00  0.00     0.000 HD 
ENDBRANCH  19  22
ENDBRANCH  18  19
ENDBRANCH  15  18
ENDBRANCH  12  14
BRANCH  11  25
HETATM   25  C   UNL     1     -11.238   9.142  70.724  1.00  0.00    -0.277 C  
HETATM   26  O   UNL     1     -10.527   9.111  71.725  1.00  0.00    -0.352 OA 
HETATM   27  H   UNL     1     -12.782   8.280  69.627  1.00  0.00     0.000 HD 
HETATM   28  N   UNL     1     -12.198   8.180  70.457  1.00  0.00     0.111 N  
BRANCH  28  29
HETATM   29  C   UNL     1     -12.395   7.035  71.325  1.00  0.00    -0.383 C  
BRANCH  29  30
HETATM   30  C   UNL     1     -11.236   6.057  71.188  1.00  0.00    -0.261 C  
HETATM   31  O   UNL     1     -10.359   6.200  72.308  1.00  0.00    -0.188 OA 
HETATM   32  H   UNL     1      -9.636   5.590  72.222  1.00  0.00     0.000 HD 
ENDBRANCH  29  30
ENDBRANCH  28  29
ENDBRANCH  11  25
ENDBRANCH   3   5
BRANCH   3  33
HETATM   33  C   UNL     1     -10.404  10.616  65.159  1.00  0.00    -0.261 C  
BRANCH  33  34
HETATM   34  C   UNL     1     -10.684  11.856  64.266  1.00  0.00    -0.338 C  
HETATM   35  O   UNL     1     -10.185  11.691  62.930  1.00  0.00    -0.628 OA 
HETATM   36  H   UNL     1     -10.357  12.449  62.384  1.00  0.00     0.000 HD 
BRANCH  34  37
HETATM   37  C   UNL     1     -12.185  12.182  64.168  1.00  0.00    -0.413 C  
HETATM   38  H   UNL     1     -13.670  12.631  65.400  1.00  0.00     0.000 HD 
HETATM   39  O   UNL     1     -12.744  12.430  65.460  1.00  0.00    -0.530 OA 
ENDBRANCH  34  37
ENDBRANCH  33  34
ENDBRANCH   3  33
TORSDOF 11
ENDMDL
MODEL      100
REMARK 921   NORMALIZED FREE ENERGY PREDICTED BY IDOCK:   -3.51 KCAL/MOL
REMARK 922        TOTAL FREE ENERGY PREDICTED BY IDOCK:   -6.38 KCAL/MOL
REMARK 923 INTER-LIGAND FREE ENERGY PREDICTED BY IDOCK:   -5.81 KCAL/MOL
REMARK 924 INTRA-LIGAND FREE ENERGY PREDICTED BY IDOCK:   -0.57 KCAL/MOL
REMARK 927      BINDING AFFINITY PREDICTED BY RF-SCORE:    0.00 PKD
ROOT
HETATM    1  C   UNL     1      -9.520   3.398  64.685  1.00  0.00    -0.154 C  
HETATM    2  C   UNL     1      -9.722   4.453  65.736  1.00  0.00    -0.209 C  
HETATM    3  N   UNL     1      -8.584   5.033  66.304  1.00  0.00    -0.112 N  
HETATM    4  O   UNL     1     -10.867   4.799  66.038  1.00  0.00    -0.287 OA 
ENDROOT
BRANCH   3   5
HETATM    5  C   UNL     1      -8.837   6.012  67.321  1.00  0.00    -0.107 A  
HETATM    6  I   UNL     1     -10.321   9.310  70.725  1.00  0.00    -0.373 I  
HETATM    7  C   UNL     1      -9.457   7.889  69.325  1.00  0.00    -0.152 A  
HETATM    8  C   UNL     1      -8.659   7.400  67.075  1.00  0.00    -0.119 A  
HETATM    9  I   UNL     1      -7.785   8.010  65.190  1.00  0.00    -0.124 I  
HETATM   10  C   UNL     1      -9.210   5.565  68.616  1.00  0.00    -0.122 A  
HETATM   11  C   UNL     1      -9.533   6.499  69.625  1.00  0.00    -0.149 A  
HETATM   12  C   UNL     1      -8.971   8.355  68.075  1.00  0.00    -0.138 A  
HETATM   13  I   UNL     1      -9.203   3.418  69.005  1.00  0.00    -0.168 I  
BRANCH  12  14
HETATM   14  C   UNL     1      -8.874   9.817  67.760  1.00  0.00    -0.129 C  
HETATM   15  N   UNL     1      -9.977  10.426  67.195  1.00  0.00    -0.187 N  
HETATM   16  O   UNL     1      -7.835  10.426  67.992  1.00  0.00    -0.102 OA 
HETATM   17  H   UNL     1     -10.813   9.870  67.013  1.00  0.00     0.000 HD 
BRANCH  15  18
HETATM   18  C   UNL     1      -9.978  11.846  66.851  1.00  0.00    -0.200 C  
BRANCH  18  19
HETATM   19  C   UNL     1     -10.075  12.745  68.093  1.00  0.00    -0.239 C  
HETATM   20  H   UNL     1      -9.770  14.643  68.506  1.00  0.00     0.000 HD 
HETATM   21  O   UNL     1      -9.709  14.087  67.738  1.00  0.00    -0.218 OA 
BRANCH  19  22
HETATM   22  C   UNL     1     -11.487  12.714  68.705  1.00  0.00    -0.308 C  
HETATM   23  O   UNL     1     -12.277  11.661  68.158  1.00  0.00    -0.537 OA 
HETATM   24  H   UNL     1     -13.148  11.642  68.535  1.00  0.00     0.000 HD 
ENDBRANCH  19  22
ENDBRANCH  18  19
ENDBRANCH  15  18
ENDBRANCH  12  14
BRANCH  11  25
HETATM   25  C   UNL     1      -9.859   6.054  71.007  1.00  0.00    -0.183 C  
HETATM   26  O   UNL     1     -11.008   5.721  71.281  1.00  0.00    -0.266 OA 
HETATM   27  H   UNL     1      -7.893   6.305  71.643  1.00  0.00     0.000 HD 
HETATM   28  N   UNL     1      -8.836   6.052  71.940  1.00  0.00    -0.138 N  
BRANCH  28  29
HETATM   29  C   UNL     1      -9.067   5.700  73.328  1.00  0.00    -0.129 C  
BRANCH  29  30
HETATM   30  C   UNL     1      -9.380   6.945  74.148  1.00  0.00    -0.235 C  
HETATM   31  O   UNL     1     -10.773   7.245  74.043  1.00  0.00    -0.545 OA 
HETATM   32  H   UNL     1     -10.968   8.021  74.555  1.00  0.00     0.000 HD 
ENDBRANCH  29  30
ENDBRANCH  28  29
ENDBRANCH  11  25
ENDBRANCH   3   5
BRANCH   3  33
HETATM   33  C   UNL     1      -7.180   4.581  66.085  1.00  0.00    -0.076 C  
BRANCH  33  34
HETATM   34  C   UNL     1      -6.696   3.352  66.901  1.00  0.00    -0.049 C  
HETATM   35  O   UNL     1      -6.451   2.207  66.071  1.00  0.00    -0.023 OA 
HETATM   36  H   UNL     1      -6.155   1.455  66.570  1.00  0.00     0.000 HD 
BRANCH  34  37
HETATM   37  C   UNL     1      -5.406   3.641  67.691  1.00  0.00    -0.016 C  
HETATM   38  H   UNL     1      -4.724   5.035  68.921  1.00  0.00     0.000 HD 
HETATM   39  O   UNL     1      -5.520   4.857  68.434  1.00  0.00    -0.013 OA 
ENDBRANCH  34  37
ENDBRANCH  33  34
ENDBRANCH   3  33
TORSDOF 11
ENDMDL
MODEL      101
REMARK 921   NORMALIZED FREE ENERGY PREDICTED BY IDOCK:   -3.47 KCAL/MOL
REMARK 922        TOTAL FREE ENERGY PREDICTED BY IDOCK:   -6.30 KCAL/MOL
REMARK 923 INTER-LIGAND FREE ENERGY PREDICTED BY IDOCK:   -5.03 KCAL/MOL
REMARK 924 INTRA-LIGAND FREE ENERGY PREDICTED BY IDOCK:   -1.27 KCAL/MOL
REMARK 927      BINDING AFFINITY PREDICTED BY RF-SCORE:    0.00 PKD
ROOT
HETATM    1  C   UNL     1      -8.524   8.029  72.674  1.00  0.00    -0.231 C  
HETATM    2  C   UNL     1      -8.092   7.811  71.251  1.00  0.00    -0.095 C  
HETATM    3  N   UNL     1      -9.084   7.774  70.268  1.00  0.00    -0.152 N  
HETATM    4  O   UNL     1      -6.891   7.707  70.990  1.00  0.00    -0.048 OA 
ENDROOT
BRANCH   3   5
HETATM    5  C   UNL     1      -8.617   7.535  68.934  1.00  0.00    -0.129 A  
HETATM    6  I   UNL     1      -7.573   6.881  64.122  1.00  0.00    -0.097 I  
HETATM    7  C   UNL     1      -7.801   7.138  66.269  1.00  0.00    -0.107 A  
HETATM    8  C   UNL     1      -8.481   6.217  68.419  1.00  0.00    -0.115 A  
HETATM    9  I   UNL     1      -8.786   4.548  69.765  1.00  0.00    -0.173 I  
HETATM   10  C   UNL     1      -8.225   8.647  68.143  1.00  0.00    -0.115 A  
HETATM   11  C   UNL     1      -7.824   8.460  66.801  1.00  0.00    -0.094 A  
HETATM   12  C   UNL     1      -8.075   6.005  67.078  1.00  0.00    -0.106 A  
HETATM   13  I   UNL     1      -8.200  10.617  69.078  1.00  0.00    -0.064 I  
BRANCH  12  14
HETATM   14  C   UNL     1      -8.037   4.612  66.527  1.00  0.00    -0.103 C  
HETATM   15  N   UNL     1      -9.219   4.078  66.052  1.00  0.00    -0.144 N  
HETATM   16  O   UNL     1      -6.983   3.984  66.521  1.00  0.00    -0.057 OA 
HETATM   17  H   UNL     1     -10.069   4.641  66.090  1.00  0.00     0.000 HD 
BRANCH  15  18
HETATM   18  C   UNL     1      -9.282   2.728  65.497  1.00  0.00    -0.113 C  
BRANCH  18  19
HETATM   19  C   UNL     1      -9.676   2.727  64.013  1.00  0.00    -0.148 C  
HETATM   20  H   UNL     1     -10.690   3.905  62.808  1.00  0.00     0.000 HD 
HETATM   21  O   UNL     1     -10.447   3.905  63.726  1.00  0.00    -0.228 OA 
BRANCH  19  22
HETATM   22  C   UNL     1      -8.440   2.656  63.099  1.00  0.00    -0.085 C  
HETATM   23  O   UNL     1      -7.264   2.312  63.827  1.00  0.00    -0.049 OA 
HETATM   24  H   UNL     1      -6.501   2.267  63.263  1.00  0.00     0.000 HD 
ENDBRANCH  19  22
ENDBRANCH  18  19
ENDBRANCH  15  18
ENDBRANCH  12  14
BRANCH  11  25
HETATM   25  C   UNL     1      -7.343   9.601  65.977  1.00  0.00    -0.099 C  
HETATM   26  O   UNL     1      -8.157  10.315  65.398  1.00  0.00    -0.138 OA 
HETATM   27  H   UNL     1      -5.351   9.193  66.420  1.00  0.00     0.000 HD 
HETATM   28  N   UNL     1      -5.976   9.798  65.887  1.00  0.00    -0.065 N  
BRANCH  28  29
HETATM   29  C   UNL     1      -5.406  10.841  65.054  1.00  0.00    -0.121 C  
BRANCH  29  30
HETATM   30  C   UNL     1      -5.304  10.373  63.609  1.00  0.00    -0.156 C  
HETATM   31  O   UNL     1      -6.476  10.773  62.896  1.00  0.00    -0.330 OA 
HETATM   32  H   UNL     1      -6.412  10.481  61.994  1.00  0.00     0.000 HD 
ENDBRANCH  29  30
ENDBRANCH  28  29
ENDBRANCH  11  25
ENDBRANCH   3   5
BRANCH   3  33
HETATM   33  C   UNL     1     -10.554   7.765  70.520  1.00  0.00    -0.226 C  
BRANCH  33  34
HETATM   34  C   UNL     1     -11.236   9.137  70.778  1.00  0.00    -0.277 C  
HETATM   35  O   UNL     1     -11.886   9.652  69.607  1.00  0.00    -0.447 OA 
HETATM   36  H   UNL     1     -12.304  10.491  69.765  1.00  0.00     0.000 HD 
BRANCH  34  37
HETATM   37  C   UNL     1     -12.284   9.069  71.904  1.00  0.00    -0.381 C  
HETATM   38  H   UNL     1     -14.244   8.841  72.070  1.00  0.00     0.000 HD 
HETATM   39  O   UNL     1     -13.598   8.882  71.375  1.00  0.00    -0.337 OA 
ENDBRANCH  34  37
ENDBRANCH  33  34
ENDBRANCH   3  33
TORSDOF 11
ENDMDL
MODEL      102
REMARK 921   NORMALIZED FREE ENERGY PREDICTED BY IDOCK:   -3.44 KCAL/MOL
REMARK 922        TOTAL FREE ENERGY PREDICTED BY IDOCK:   -6.26 KCAL/MOL
REMARK 923 INTER-LIGAND FREE ENERGY PREDICTED BY IDOCK:   -5.65 KCAL/MOL
REMARK 924 INTRA-LIGAND FREE ENERGY PREDICTED BY IDOCK:   -0.60 KCAL/MOL
REMARK 927      BINDING AFFINITY PREDICTED BY RF-SCORE:    0.00 PKD
ROOT
HETATM    1  C   UNL     1     -13.075  11.785  64.100  1.00  0.00     0.225 C  
HETATM    2  C   UNL     1     -12.085  12.093  65.188  1.00  0.00    -0.218 C  
HETATM    3  N   UNL     1     -10.728  12.088  64.855  1.00  0.00    -0.289 N  
HETATM    4  O   UNL     1     -12.491  12.374  66.318  1.00  0.00    -0.462 OA 
ENDROOT
BRANCH   3   5
HETATM    5  C   UNL     1      -9.829  12.361  65.937  1.00  0.00    -0.252 A  
HETATM    6  I   UNL     1      -6.262  13.338  69.253  1.00  0.00    -0.092 I  
HETATM    7  C   UNL     1      -7.976  12.945  67.975  1.00  0.00    -0.158 A  
HETATM    8  C   UNL     1      -9.384  11.333  66.812  1.00  0.00    -0.177 A  
HETATM    9  I   UNL     1     -10.262   9.363  66.617  1.00  0.00    -0.194 I  
HETATM   10  C   UNL     1      -9.433  13.705  66.168  1.00  0.00    -0.146 A  
HETATM   11  C   UNL     1      -8.496  14.007  67.181  1.00  0.00    -0.207 A  
HETATM   12  C   UNL     1      -8.449  11.614  67.839  1.00  0.00    -0.148 A  
HETATM   13  I   UNL     1     -10.359  15.271  64.963  1.00  0.00     0.055 I  
BRANCH  12  14
HETATM   14  C   UNL     1      -7.917  10.496  68.683  1.00  0.00    -0.124 C  
HETATM   15  N   UNL     1      -6.858   9.764  68.184  1.00  0.00    -0.068 N  
HETATM   16  O   UNL     1      -8.430  10.251  69.770  1.00  0.00    -0.159 OA 
HETATM   17  H   UNL     1      -6.475  10.004  67.269  1.00  0.00     0.000 HD 
BRANCH  15  18
HETATM   18  C   UNL     1      -6.271   8.654  68.932  1.00  0.00    -0.044 C  
BRANCH  18  19
HETATM   19  C   UNL     1      -6.419   7.314  68.196  1.00  0.00    -0.045 C  
HETATM   20  H   UNL     1      -5.331   5.694  67.955  1.00  0.00     0.000 HD 
HETATM   21  O   UNL     1      -5.240   6.523  68.410  1.00  0.00    -0.007 OA 
BRANCH  19  22
HETATM   22  C   UNL     1      -7.672   6.550  68.656  1.00  0.00    -0.102 C  
HETATM   23  O   UNL     1      -8.287   7.173  69.782  1.00  0.00    -0.129 OA 
HETATM   24  H   UNL     1      -9.061   6.701  70.066  1.00  0.00     0.000 HD 
ENDBRANCH  19  22
ENDBRANCH  18  19
ENDBRANCH  15  18
ENDBRANCH  12  14
BRANCH  11  25
HETATM   25  C   UNL     1      -8.121  15.415  67.485  1.00  0.00    -0.167 C  
HETATM   26  O   UNL     1      -7.075  15.873  67.034  1.00  0.00    -0.211 OA 
HETATM   27  H   UNL     1      -9.848  15.724  68.603  1.00  0.00     0.000 HD 
HETATM   28  N   UNL     1      -8.976  16.149  68.289  1.00  0.00    -0.185 N  
BRANCH  28  29
HETATM   29  C   UNL     1      -8.665  17.506  68.697  1.00  0.00    -0.258 C  
BRANCH  29  30
HETATM   30  C   UNL     1      -9.561  18.499  67.971  1.00  0.00    -0.312 C  
HETATM   31  O   UNL     1     -10.776  18.667  68.705  1.00  0.00    -0.320 OA 
HETATM   32  H   UNL     1     -11.335  19.287  68.251  1.00  0.00     0.000 HD 
ENDBRANCH  29  30
ENDBRANCH  28  29
ENDBRANCH  11  25
ENDBRANCH   3   5
BRANCH   3  33
HETATM   33  C   UNL     1     -10.157  11.637  63.553  1.00  0.00    -0.425 C  
BRANCH  33  34
HETATM   34  C   UNL     1      -9.424  10.268  63.537  1.00  0.00    -0.298 C  
HETATM   35  O   UNL     1      -9.699   9.514  62.348  1.00  0.00    -0.547 OA 
HETATM   36  H   UNL     1      -9.251   8.677  62.338  1.00  0.00     0.000 HD 
BRANCH  34  37
HETATM   37  C   UNL     1      -7.896  10.418  63.653  1.00  0.00    -0.072 C  
HETATM   38  H   UNL     1      -6.308  10.186  62.491  1.00  0.00     0.000 HD 
HETATM   39  O   UNL     1      -7.251  10.093  62.419  1.00  0.00    -0.120 OA 
ENDBRANCH  34  37
ENDBRANCH  33  34
ENDBRANCH   3  33
TORSDOF 11
ENDMDL
MODEL      103
REMARK 921   NORMALIZED FREE ENERGY PREDICTED BY IDOCK:   -3.43 KCAL/MOL
REMARK 922        TOTAL FREE ENERGY PREDICTED BY IDOCK:   -6.24 KCAL/MOL
REMARK 923 INTER-LIGAND FREE ENERGY PREDICTED BY IDOCK:   -5.44 KCAL/MOL
REMARK 924 INTRA-LIGAND FREE ENERGY PREDICTED BY IDOCK:   -0.80 KCAL/MOL
REMARK 927      BINDING AFFINITY PREDICTED BY RF-SCORE:    0.00 PKD
ROOT
HETATM    1  C   UNL     1      -9.328   3.002  63.680  1.00  0.00    -0.098 C  
HETATM    2  C   UNL     1      -9.449   4.118  64.679  1.00  0.00    -0.168 C  
HETATM    3  N   UNL     1      -8.269   4.673  65.181  1.00  0.00    -0.114 N  
HETATM    4  O   UNL     1     -10.567   4.532  64.996  1.00  0.00    -0.167 OA 
ENDROOT
BRANCH   3   5
HETATM    5  C   UNL     1      -8.444   5.714  66.151  1.00  0.00    -0.128 A  
HETATM    6  I   UNL     1      -8.425   9.365  69.519  1.00  0.00    -0.210 I  
HETATM    7  C   UNL     1      -8.665   7.798  68.030  1.00  0.00    -0.125 A  
HETATM    8  C   UNL     1      -8.776   5.423  67.502  1.00  0.00    -0.107 A  
HETATM    9  I   UNL     1      -9.231   3.373  68.033  1.00  0.00    -0.196 I  
HETATM   10  C   UNL     1      -8.344   7.064  65.723  1.00  0.00    -0.143 A  
HETATM   11  C   UNL     1      -8.442   8.117  66.660  1.00  0.00    -0.129 A  
HETATM   12  C   UNL     1      -8.887   6.463  68.458  1.00  0.00    -0.119 A  
HETATM   13  I   UNL     1      -8.101   7.451  63.590  1.00  0.00     0.245 I  
BRANCH  12  14
HETATM   14  C   UNL     1      -9.137   6.125  69.896  1.00  0.00    -0.143 C  
HETATM   15  N   UNL     1     -10.450   6.056  70.319  1.00  0.00    -0.222 N  
HETATM   16  O   UNL     1      -8.192   5.933  70.654  1.00  0.00    -0.115 OA 
HETATM   17  H   UNL     1     -11.198   6.234  69.649  1.00  0.00     0.000 HD 
BRANCH  15  18
HETATM   18  C   UNL     1     -10.794   5.735  71.702  1.00  0.00    -0.255 C  
BRANCH  18  19
HETATM   19  C   UNL     1     -11.629   6.841  72.366  1.00  0.00    -0.245 C  
HETATM   20  H   UNL     1     -11.317   8.258  73.693  1.00  0.00     0.000 HD 
HETATM   21  O   UNL     1     -10.801   7.574  73.283  1.00  0.00    -0.386 OA 
BRANCH  19  22
HETATM   22  C   UNL     1     -12.247   7.787  71.322  1.00  0.00    -0.303 C  
HETATM   23  O   UNL     1     -13.334   7.175  70.632  1.00  0.00    -0.532 OA 
HETATM   24  H   UNL     1     -13.716   7.759  69.988  1.00  0.00     0.000 HD 
ENDBRANCH  19  22
ENDBRANCH  18  19
ENDBRANCH  15  18
ENDBRANCH  12  14
BRANCH  11  25
HETATM   25  C   UNL     1      -8.410   9.538  66.223  1.00  0.00    -0.115 C  
HETATM   26  O   UNL     1      -7.329  10.088  66.032  1.00  0.00    -0.102 OA 
HETATM   27  H   UNL     1     -10.487   9.670  66.205  1.00  0.00     0.000 HD 
HETATM   28  N   UNL     1      -9.621  10.191  66.066  1.00  0.00    -0.195 N  
BRANCH  28  29
HETATM   29  C   UNL     1      -9.692  11.596  65.709  1.00  0.00    -0.236 C  
BRANCH  29  30
HETATM   30  C   UNL     1     -10.534  11.785  64.455  1.00  0.00    -0.304 C  
HETATM   31  O   UNL     1      -9.992  12.855  63.677  1.00  0.00    -0.708 OA 
HETATM   32  H   UNL     1     -10.518  12.973  62.894  1.00  0.00     0.000 HD 
ENDBRANCH  29  30
ENDBRANCH  28  29
ENDBRANCH  11  25
ENDBRANCH   3   5
BRANCH   3  33
HETATM   33  C   UNL     1      -6.894   4.146  64.944  1.00  0.00    -0.049 C  
BRANCH  33  34
HETATM   34  C   UNL     1      -6.344   3.116  65.969  1.00  0.00    -0.028 C  
HETATM   35  O   UNL     1      -5.915   1.898  65.343  1.00  0.00    -0.017 OA 
HETATM   36  H   UNL     1      -5.578   1.269  65.969  1.00  0.00     0.000 HD 
BRANCH  34  37
HETATM   37  C   UNL     1      -5.157   3.670  66.778  1.00  0.00    -0.008 C  
HETATM   38  H   UNL     1      -4.835   4.409  68.588  1.00  0.00     0.000 HD 
HETATM   39  O   UNL     1      -5.568   4.067  68.089  1.00  0.00    -0.018 OA 
ENDBRANCH  34  37
ENDBRANCH  33  34
ENDBRANCH   3  33
TORSDOF 11
ENDMDL
MODEL      104
REMARK 921   NORMALIZED FREE ENERGY PREDICTED BY IDOCK:   -3.41 KCAL/MOL
REMARK 922        TOTAL FREE ENERGY PREDICTED BY IDOCK:   -6.21 KCAL/MOL
REMARK 923 INTER-LIGAND FREE ENERGY PREDICTED BY IDOCK:   -5.49 KCAL/MOL
REMARK 924 INTRA-LIGAND FREE ENERGY PREDICTED BY IDOCK:   -0.72 KCAL/MOL
REMARK 927      BINDING AFFINITY PREDICTED BY RF-SCORE:    0.00 PKD
ROOT
HETATM    1  C   UNL     1      -5.205   7.112  63.701  1.00  0.00    -0.029 C  
HETATM    2  C   UNL     1      -6.230   7.721  64.616  1.00  0.00    -0.045 C  
HETATM    3  N   UNL     1      -7.575   7.430  64.371  1.00  0.00    -0.107 N  
HETATM    4  O   UNL     1      -5.862   8.420  65.563  1.00  0.00    -0.043 OA 
ENDROOT
BRANCH   3   5
HETATM    5  C   UNL     1      -8.510   8.060  65.257  1.00  0.00    -0.117 A  
HETATM    6  I   UNL     1     -11.262  10.575  68.539  1.00  0.00    -0.228 I  
HETATM    7  C   UNL     1     -10.259   9.394  67.014  1.00  0.00    -0.255 A  
HETATM    8  C   UNL     1      -8.998   7.398  66.416  1.00  0.00    -0.163 A  
HETATM    9  I   UNL     1      -8.469   5.319  66.714  1.00  0.00    -0.105 I  
HETATM   10  C   UNL     1      -9.000   9.349  64.921  1.00  0.00    -0.209 A  
HETATM   11  C   UNL     1      -9.869  10.032  65.801  1.00  0.00    -0.345 A  
HETATM   12  C   UNL     1      -9.875   8.060  67.310  1.00  0.00    -0.258 A  
HETATM   13  I   UNL     1      -8.424  10.199  62.996  1.00  0.00    -0.254 I  
BRANCH  12  14
HETATM   14  C   UNL     1     -10.295   7.379  68.577  1.00  0.00    -0.198 C  
HETATM   15  N   UNL     1      -9.511   7.571  69.698  1.00  0.00    -0.157 N  
HETATM   16  O   UNL     1     -11.297   6.671  68.590  1.00  0.00    -0.201 OA 
HETATM   17  H   UNL     1      -8.683   8.163  69.629  1.00  0.00     0.000 HD 
BRANCH  15  18
HETATM   18  C   UNL     1      -9.838   6.949  70.979  1.00  0.00    -0.178 C  
BRANCH  18  19
HETATM   19  C   UNL     1      -9.341   7.778  72.172  1.00  0.00    -0.153 C  
HETATM   20  H   UNL     1      -8.358   7.429  73.839  1.00  0.00     0.000 HD 
HETATM   21  O   UNL     1      -8.666   6.915  73.101  1.00  0.00    -0.121 OA 
BRANCH  19  22
HETATM   22  C   UNL     1      -8.410   8.918  71.721  1.00  0.00    -0.003 C  
HETATM   23  O   UNL     1      -7.055   8.486  71.625  1.00  0.00    -0.081 OA 
HETATM   24  H   UNL     1      -6.481   9.189  71.346  1.00  0.00     0.000 HD 
ENDBRANCH  19  22
ENDBRANCH  18  19
ENDBRANCH  15  18
ENDBRANCH  12  14
BRANCH  11  25
HETATM   25  C   UNL     1     -10.449  11.353  65.436  1.00  0.00    -0.280 C  
HETATM   26  O   UNL     1     -11.544  11.401  64.884  1.00  0.00    -0.068 OA 
HETATM   27  H   UNL     1      -8.819  12.382  66.221  1.00  0.00     0.000 HD 
HETATM   28  N   UNL     1      -9.706  12.484  65.728  1.00  0.00    -0.227 N  
BRANCH  28  29
HETATM   29  C   UNL     1     -10.155  13.811  65.351  1.00  0.00    -0.286 C  
BRANCH  29  30
HETATM   30  C   UNL     1     -11.256  14.288  66.288  1.00  0.00    -0.337 C  
HETATM   31  O   UNL     1     -12.511  14.245  65.606  1.00  0.00    -0.445 OA 
HETATM   32  H   UNL     1     -13.198  14.542  66.191  1.00  0.00     0.000 HD 
ENDBRANCH  29  30
ENDBRANCH  28  29
ENDBRANCH  11  25
ENDBRANCH   3   5
BRANCH   3  33
HETATM   33  C   UNL     1      -8.102   6.704  63.180  1.00  0.00    -0.028 C  
BRANCH  33  34
HETATM   34  C   UNL     1      -8.322   5.173  63.326  1.00  0.00    -0.114 C  
HETATM   35  O   UNL     1      -9.676   4.786  63.052  1.00  0.00    -0.361 OA 
HETATM   36  H   UNL     1      -9.811   3.850  63.140  1.00  0.00     0.000 HD 
BRANCH  34  37
HETATM   37  C   UNL     1      -7.405   4.357  62.396  1.00  0.00    -0.039 C  
HETATM   38  H   UNL     1      -7.165   2.462  61.869  1.00  0.00     0.000 HD 
HETATM   39  O   UNL     1      -7.731   2.966  62.442  1.00  0.00    -0.052 OA 
ENDBRANCH  34  37
ENDBRANCH  33  34
ENDBRANCH   3  33
TORSDOF 11
ENDMDL
MODEL      105
REMARK 921   NORMALIZED FREE ENERGY PREDICTED BY IDOCK:   -3.40 KCAL/MOL
REMARK 922        TOTAL FREE ENERGY PREDICTED BY IDOCK:   -6.19 KCAL/MOL
REMARK 923 INTER-LIGAND FREE ENERGY PREDICTED BY IDOCK:   -6.52 KCAL/MOL
REMARK 924 INTRA-LIGAND FREE ENERGY PREDICTED BY IDOCK:    0.33 KCAL/MOL
REMARK 927      BINDING AFFINITY PREDICTED BY RF-SCORE:    0.00 PKD
ROOT
HETATM    1  C   UNL     1      -8.686  13.351  67.146  1.00  0.00    -0.220 C  
HETATM    2  C   UNL     1      -8.710  11.880  67.455  1.00  0.00    -0.163 C  
HETATM    3  N   UNL     1      -9.937  11.217  67.371  1.00  0.00    -0.177 N  
HETATM    4  O   UNL     1      -7.658  11.300  67.735  1.00  0.00    -0.098 OA 
ENDROOT
BRANCH   3   5
HETATM    5  C   UNL     1      -9.906   9.823  67.703  1.00  0.00    -0.165 A  
HETATM    6  I   UNL     1      -9.322   5.136  69.241  1.00  0.00    -0.230 I  
HETATM    7  C   UNL     1      -9.775   7.116  68.465  1.00  0.00    -0.143 A  
HETATM    8  C   UNL     1      -9.341   8.861  66.822  1.00  0.00    -0.175 A  
HETATM    9  I   UNL     1      -8.715   9.510  64.853  1.00  0.00    -0.247 I  
HETATM   10  C   UNL     1     -10.514   9.400  68.914  1.00  0.00    -0.216 A  
HETATM   11  C   UNL     1     -10.445   8.046  69.311  1.00  0.00    -0.221 A  
HETATM   12  C   UNL     1      -9.266   7.496  67.196  1.00  0.00    -0.161 A  
HETATM   13  I   UNL     1     -11.600  10.882  70.092  1.00  0.00    -0.371 I  
BRANCH  12  14
HETATM   14  C   UNL     1      -8.575   6.518  66.295  1.00  0.00    -0.141 C  
HETATM   15  N   UNL     1      -7.211   6.361  66.447  1.00  0.00    -0.071 N  
HETATM   16  O   UNL     1      -9.218   5.901  65.453  1.00  0.00    -0.021 OA 
HETATM   17  H   UNL     1      -6.724   6.907  67.157  1.00  0.00     0.000 HD 
BRANCH  15  18
HETATM   18  C   UNL     1      -6.449   5.432  65.615  1.00  0.00    -0.040 C  
BRANCH  18  19
HETATM   19  C   UNL     1      -5.680   4.399  66.452  1.00  0.00    -0.018 C  
HETATM   20  H   UNL     1      -4.791   4.364  68.206  1.00  0.00     0.000 HD 
HETATM   21  O   UNL     1      -5.267   5.003  67.688  1.00  0.00    -0.007 OA 
BRANCH  19  22
HETATM   22  C   UNL     1      -6.528   3.144  66.722  1.00  0.00    -0.036 C  
HETATM   23  O   UNL     1      -7.874   3.311  66.280  1.00  0.00    -0.077 OA 
HETATM   24  H   UNL     1      -8.398   2.536  66.447  1.00  0.00     0.000 HD 
ENDBRANCH  19  22
ENDBRANCH  18  19
ENDBRANCH  15  18
ENDBRANCH  12  14
BRANCH  11  25
HETATM   25  C   UNL     1     -11.134   7.570  70.540  1.00  0.00    -0.259 C  
HETATM   26  O   UNL     1     -12.215   6.997  70.444  1.00  0.00    -0.239 OA 
HETATM   27  H   UNL     1      -9.606   8.263  71.771  1.00  0.00     0.000 HD 
HETATM   28  N   UNL     1     -10.522   7.814  71.758  1.00  0.00    -0.211 N  
BRANCH  28  29
HETATM   29  C   UNL     1     -11.147   7.449  73.015  1.00  0.00    -0.343 C  
BRANCH  29  30
HETATM   30  C   UNL     1     -10.789   6.019  73.392  1.00  0.00    -0.231 C  
HETATM   31  O   UNL     1     -11.864   5.149  73.029  1.00  0.00    -0.466 OA 
HETATM   32  H   UNL     1     -11.641   4.256  73.264  1.00  0.00     0.000 HD 
ENDBRANCH  29  30
ENDBRANCH  28  29
ENDBRANCH  11  25
ENDBRANCH   3   5
BRANCH   3  33
HETATM   33  C   UNL     1     -11.262  11.869  67.164  1.00  0.00    -0.319 C  
BRANCH  33  34
HETATM   34  C   UNL     1     -11.741  12.050  65.697  1.00  0.00    -0.246 C  
HETATM   35  O   UNL     1     -12.583  13.201  65.535  1.00  0.00    -0.472 OA 
HETATM   36  H   UNL     1     -12.875  13.311  64.638  1.00  0.00     0.000 HD 
BRANCH  34  37
HETATM   37  C   UNL     1     -10.569  12.184  64.709  1.00  0.00    -0.296 C  
HETATM   38  H   UNL     1     -10.315  12.383  62.754  1.00  0.00     0.000 HD 
HETATM   39  O   UNL     1     -11.039  12.300  63.364  1.00  0.00    -0.443 OA 
ENDBRANCH  34  37
ENDBRANCH  33  34
ENDBRANCH   3  33
TORSDOF 11
ENDMDL
MODEL      106
REMARK 921   NORMALIZED FREE ENERGY PREDICTED BY IDOCK:   -3.40 KCAL/MOL
REMARK 922        TOTAL FREE ENERGY PREDICTED BY IDOCK:   -6.19 KCAL/MOL
REMARK 923 INTER-LIGAND FREE ENERGY PREDICTED BY IDOCK:   -6.76 KCAL/MOL
REMARK 924 INTRA-LIGAND FREE ENERGY PREDICTED BY IDOCK:    0.57 KCAL/MOL
REMARK 927      BINDING AFFINITY PREDICTED BY RF-SCORE:    0.00 PKD
ROOT
HETATM    1  C   UNL     1      -6.797   8.456  65.024  1.00  0.00    -0.067 C  
HETATM    2  C   UNL     1      -7.883   8.896  65.966  1.00  0.00    -0.102 C  
HETATM    3  N   UNL     1      -7.500   9.553  67.138  1.00  0.00    -0.091 N  
HETATM    4  O   UNL     1      -9.063   8.701  65.666  1.00  0.00    -0.198 OA 
ENDROOT
BRANCH   3   5
HETATM    5  C   UNL     1      -8.575   9.925  68.011  1.00  0.00    -0.121 A  
HETATM    6  I   UNL     1     -12.631  10.763  70.753  1.00  0.00    -0.424 I  
HETATM    7  C   UNL     1     -10.742  10.539  69.700  1.00  0.00    -0.259 A  
HETATM    8  C   UNL     1      -9.341  11.102  67.789  1.00  0.00    -0.164 A  
HETATM    9  I   UNL     1      -8.716  12.455  66.217  1.00  0.00     0.474 I  
HETATM   10  C   UNL     1      -8.826   9.125  69.157  1.00  0.00    -0.146 A  
HETATM   11  C   UNL     1      -9.918   9.418  70.004  1.00  0.00    -0.253 A  
HETATM   12  C   UNL     1     -10.436  11.420  68.629  1.00  0.00    -0.224 A  
HETATM   13  I   UNL     1      -7.449   7.489  69.591  1.00  0.00    -0.097 I  
BRANCH  12  14
HETATM   14  C   UNL     1     -11.291  12.609  68.315  1.00  0.00    -0.295 C  
HETATM   15  N   UNL     1     -11.858  12.677  67.057  1.00  0.00    -0.379 N  
HETATM   16  O   UNL     1     -11.455  13.486  69.157  1.00  0.00    -0.261 OA 
HETATM   17  H   UNL     1     -11.681  11.924  66.391  1.00  0.00     0.000 HD 
BRANCH  15  18
HETATM   18  C   UNL     1     -12.706  13.797  66.657  1.00  0.00     0.066 C  
BRANCH  18  19
HETATM   19  C   UNL     1     -12.775  13.958  65.131  1.00  0.00    -0.398 C  
HETATM   20  H   UNL     1     -11.924  15.105  63.779  1.00  0.00     0.000 HD 
HETATM   21  O   UNL     1     -11.882  15.006  64.723  1.00  0.00    -0.387 OA 
BRANCH  19  22
HETATM   22  C   UNL     1     -12.431  12.644  64.407  1.00  0.00    -0.428 C  
HETATM   23  O   UNL     1     -11.807  12.883  63.147  1.00  0.00    -0.783 OA 
HETATM   24  H   UNL     1     -11.594  12.072  62.701  1.00  0.00     0.000 HD 
ENDBRANCH  19  22
ENDBRANCH  18  19
ENDBRANCH  15  18
ENDBRANCH  12  14
BRANCH  11  25
HETATM   25  C   UNL     1     -10.158   8.635  71.246  1.00  0.00    -0.242 C  
HETATM   26  O   UNL     1      -9.713   9.043  72.315  1.00  0.00    -0.260 OA 
HETATM   27  H   UNL     1     -11.245   7.184  70.225  1.00  0.00     0.000 HD 
HETATM   28  N   UNL     1     -10.870   7.453  71.135  1.00  0.00    -0.239 N  
BRANCH  28  29
HETATM   29  C   UNL     1     -11.096   6.586  72.275  1.00  0.00    -0.263 C  
BRANCH  29  30
HETATM   30  C   UNL     1      -9.944   5.605  72.436  1.00  0.00    -0.170 C  
HETATM   31  O   UNL     1     -10.395   4.285  72.122  1.00  0.00    -0.181 OA 
HETATM   32  H   UNL     1      -9.676   3.673  72.222  1.00  0.00     0.000 HD 
ENDBRANCH  29  30
ENDBRANCH  28  29
ENDBRANCH  11  25
ENDBRANCH   3   5
BRANCH   3  33
HETATM   33  C   UNL     1      -6.100   9.711  67.626  1.00  0.00    -0.052 C  
BRANCH  33  34
HETATM   34  C   UNL     1      -5.306  10.942  67.110  1.00  0.00    -0.047 C  
HETATM   35  O   UNL     1      -5.705  11.336  65.789  1.00  0.00    -0.372 OA 
HETATM   36  H   UNL     1      -5.220  12.089  65.474  1.00  0.00     0.000 HD 
BRANCH  34  37
HETATM   37  C   UNL     1      -5.458  12.167  68.030  1.00  0.00    -0.060 C  
HETATM   38  H   UNL     1      -5.339  14.139  67.877  1.00  0.00     0.000 HD 
HETATM   39  O   UNL     1      -5.245  13.383  67.309  1.00  0.00    -0.341 OA 
ENDBRANCH  34  37
ENDBRANCH  33  34
ENDBRANCH   3  33
TORSDOF 11
ENDMDL
MODEL      107
REMARK 921   NORMALIZED FREE ENERGY PREDICTED BY IDOCK:   -3.39 KCAL/MOL
REMARK 922        TOTAL FREE ENERGY PREDICTED BY IDOCK:   -6.18 KCAL/MOL
REMARK 923 INTER-LIGAND FREE ENERGY PREDICTED BY IDOCK:   -5.15 KCAL/MOL
REMARK 924 INTRA-LIGAND FREE ENERGY PREDICTED BY IDOCK:   -1.04 KCAL/MOL
REMARK 927      BINDING AFFINITY PREDICTED BY RF-SCORE:    0.00 PKD
ROOT
HETATM    1  C   UNL     1      -6.806  11.429  68.319  1.00  0.00    -0.069 C  
HETATM    2  C   UNL     1      -6.909   9.938  68.477  1.00  0.00    -0.059 C  
HETATM    3  N   UNL     1      -8.186   9.383  68.601  1.00  0.00    -0.111 N  
HETATM    4  O   UNL     1      -5.884   9.252  68.456  1.00  0.00    -0.041 OA 
ENDROOT
BRANCH   3   5
HETATM    5  C   UNL     1      -8.222   7.961  68.776  1.00  0.00    -0.127 A  
HETATM    6  I   UNL     1      -8.961   3.072  69.250  1.00  0.00    -0.218 I  
HETATM    7  C   UNL     1      -8.408   5.165  69.054  1.00  0.00    -0.087 A  
HETATM    8  C   UNL     1      -8.198   7.370  70.069  1.00  0.00    -0.131 A  
HETATM    9  I   UNL     1      -7.885   8.656  71.783  1.00  0.00     0.041 I  
HETATM   10  C   UNL     1      -8.216   7.134  67.622  1.00  0.00    -0.114 A  
HETATM   11  C   UNL     1      -8.320   5.731  67.750  1.00  0.00    -0.104 A  
HETATM   12  C   UNL     1      -8.295   5.965  70.222  1.00  0.00    -0.122 A  
HETATM   13  I   UNL     1      -7.980   8.090  65.675  1.00  0.00    -0.135 I  
BRANCH  12  14
HETATM   14  C   UNL     1      -8.371   5.372  71.596  1.00  0.00    -0.119 C  
HETATM   15  N   UNL     1      -9.532   5.572  72.317  1.00  0.00    -0.145 N  
HETATM   16  O   UNL     1      -7.417   4.747  72.047  1.00  0.00    -0.077 OA 
HETATM   17  H   UNL     1     -10.291   6.109  71.897  1.00  0.00     0.000 HD 
BRANCH  15  18
HETATM   18  C   UNL     1      -9.699   5.035  73.666  1.00  0.00    -0.138 C  
BRANCH  18  19
HETATM   19  C   UNL     1     -10.970   4.181  73.797  1.00  0.00    -0.251 C  
HETATM   20  H   UNL     1     -12.818   4.267  73.133  1.00  0.00     0.000 HD 
HETATM   21  O   UNL     1     -12.033   4.795  73.052  1.00  0.00    -0.171 OA 
BRANCH  19  22
HETATM   22  C   UNL     1     -10.735   2.739  73.315  1.00  0.00    -0.175 C  
HETATM   23  O   UNL     1      -9.348   2.461  73.137  1.00  0.00    -0.085 OA 
HETATM   24  H   UNL     1      -9.203   1.570  72.840  1.00  0.00     0.000 HD 
ENDBRANCH  19  22
ENDBRANCH  18  19
ENDBRANCH  15  18
ENDBRANCH  12  14
BRANCH  11  25
HETATM   25  C   UNL     1      -8.246   4.844  66.558  1.00  0.00    -0.107 C  
HETATM   26  O   UNL     1      -7.161   4.388  66.209  1.00  0.00    -0.073 OA 
HETATM   27  H   UNL     1     -10.299   4.960  66.237  1.00  0.00     0.000 HD 
HETATM   28  N   UNL     1      -9.423   4.582  65.877  1.00  0.00    -0.157 N  
BRANCH  28  29
HETATM   29  C   UNL     1      -9.444   3.784  64.665  1.00  0.00    -0.165 C  
BRANCH  29  30
HETATM   30  C   UNL     1     -10.820   3.835  64.017  1.00  0.00    -0.176 C  
HETATM   31  O   UNL     1     -11.351   2.511  63.925  1.00  0.00    -0.609 OA 
HETATM   32  H   UNL     1     -12.210   2.543  63.521  1.00  0.00     0.000 HD 
ENDBRANCH  29  30
ENDBRANCH  28  29
ENDBRANCH  11  25
ENDBRANCH   3   5
BRANCH   3  33
HETATM   33  C   UNL     1      -9.453  10.152  68.761  1.00  0.00    -0.171 C  
BRANCH  33  34
HETATM   34  C   UNL     1     -10.317  10.366  67.488  1.00  0.00    -0.224 C  
HETATM   35  O   UNL     1     -11.716  10.170  67.738  1.00  0.00    -0.594 OA 
HETATM   36  H   UNL     1     -12.245  10.301  66.959  1.00  0.00     0.000 HD 
BRANCH  34  37
HETATM   37  C   UNL     1     -10.141  11.772  66.887  1.00  0.00    -0.207 C  
HETATM   38  H   UNL     1      -9.344  12.584  65.265  1.00  0.00     0.000 HD 
HETATM   39  O   UNL     1      -9.453  11.716  65.636  1.00  0.00    -0.226 OA 
ENDBRANCH  34  37
ENDBRANCH  33  34
ENDBRANCH   3  33
TORSDOF 11
ENDMDL
MODEL      108
REMARK 921   NORMALIZED FREE ENERGY PREDICTED BY IDOCK:   -3.39 KCAL/MOL
REMARK 922        TOTAL FREE ENERGY PREDICTED BY IDOCK:   -6.18 KCAL/MOL
REMARK 923 INTER-LIGAND FREE ENERGY PREDICTED BY IDOCK:   -7.60 KCAL/MOL
REMARK 924 INTRA-LIGAND FREE ENERGY PREDICTED BY IDOCK:    1.42 KCAL/MOL
REMARK 927      BINDING AFFINITY PREDICTED BY RF-SCORE:    0.00 PKD
ROOT
HETATM    1  C   UNL     1     -12.009  11.561  63.147  1.00  0.00     0.040 C  
HETATM    2  C   UNL     1     -12.107  12.081  64.554  1.00  0.00    -0.255 C  
HETATM    3  N   UNL     1     -10.917  12.282  65.258  1.00  0.00    -0.297 N  
HETATM    4  O   UNL     1     -13.215  12.345  65.028  1.00  0.00    -0.607 OA 
ENDROOT
BRANCH   3   5
HETATM    5  C   UNL     1     -11.072  12.752  66.603  1.00  0.00    -0.276 A  
HETATM    6  I   UNL     1     -12.218  14.244  71.200  1.00  0.00    -0.299 I  
HETATM    7  C   UNL     1     -11.492  13.612  69.251  1.00  0.00    -0.291 A  
HETATM    8  C   UNL     1     -11.070  14.140  66.910  1.00  0.00    -0.307 A  
HETATM    9  I   UNL     1     -10.610  15.546  65.328  1.00  0.00    -0.339 I  
HETATM   10  C   UNL     1     -11.163  11.797  67.649  1.00  0.00    -0.281 A  
HETATM   11  C   UNL     1     -11.385  12.217  68.980  1.00  0.00    -0.333 A  
HETATM   12  C   UNL     1     -11.284  14.585  68.239  1.00  0.00    -0.295 A  
HETATM   13  I   UNL     1     -10.888   9.692  67.146  1.00  0.00     0.299 I  
BRANCH  12  14
HETATM   14  C   UNL     1     -11.380  16.053  68.522  1.00  0.00    -0.382 C  
HETATM   15  N   UNL     1     -10.201  16.769  68.604  1.00  0.00    -0.278 N  
HETATM   16  O   UNL     1     -12.478  16.575  68.685  1.00  0.00     0.646 OA 
HETATM   17  H   UNL     1      -9.315  16.282  68.470  1.00  0.00     0.000 HD 
BRANCH  15  18
HETATM   18  C   UNL     1     -10.193  18.204  68.878  1.00  0.00    -0.287 C  
BRANCH  18  19
HETATM   19  C   UNL     1      -8.849  18.856  68.519  1.00  0.00    -0.352 C  
HETATM   20  H   UNL     1      -6.957  18.321  68.536  1.00  0.00     0.000 HD 
HETATM   21  O   UNL     1      -7.788  17.918  68.758  1.00  0.00    -0.294 OA 
BRANCH  19  22
HETATM   22  C   UNL     1      -8.825  19.337  67.058  1.00  0.00    -0.293 C  
HETATM   23  O   UNL     1     -10.127  19.322  66.475  1.00  0.00    -0.351 OA 
HETATM   24  H   UNL     1     -10.112  19.619  65.574  1.00  0.00     0.000 HD 
ENDBRANCH  19  22
ENDBRANCH  18  19
ENDBRANCH  15  18
ENDBRANCH  12  14
BRANCH  11  25
HETATM   25  C   UNL     1     -11.414  11.238  70.099  1.00  0.00    -0.247 C  
HETATM   26  O   UNL     1     -10.440  10.518  70.299  1.00  0.00    -0.160 OA 
HETATM   27  H   UNL     1     -13.327  11.822  70.675  1.00  0.00     0.000 HD 
HETATM   28  N   UNL     1     -12.564  11.173  70.867  1.00  0.00    -0.381 N  
BRANCH  28  29
HETATM   29  C   UNL     1     -12.716  10.205  71.937  1.00  0.00    -0.396 C  
BRANCH  29  30
HETATM   30  C   UNL     1     -13.484   8.985  71.448  1.00  0.00    -0.277 C  
HETATM   31  O   UNL     1     -14.351   9.368  70.377  1.00  0.00    -0.102 OA 
HETATM   32  H   UNL     1     -14.831   8.607  70.072  1.00  0.00     0.000 HD 
ENDBRANCH  29  30
ENDBRANCH  28  29
ENDBRANCH  11  25
ENDBRANCH   3   5
BRANCH   3  33
HETATM   33  C   UNL     1      -9.559  11.869  64.800  1.00  0.00    -0.041 C  
BRANCH  33  34
HETATM   34  C   UNL     1      -9.465  11.135  63.435  1.00  0.00    -0.305 C  
HETATM   35  O   UNL     1      -8.451  11.689  62.584  1.00  0.00    -0.636 OA 
HETATM   36  H   UNL     1      -8.393  11.239  61.750  1.00  0.00     0.000 HD 
BRANCH  34  37
HETATM   37  C   UNL     1      -9.172   9.632  63.595  1.00  0.00    -0.110 C  
HETATM   38  H   UNL     1      -7.715   8.490  64.301  1.00  0.00     0.000 HD 
HETATM   39  O   UNL     1      -7.896   9.417  64.202  1.00  0.00    -0.113 OA 
ENDBRANCH  34  37
ENDBRANCH  33  34
ENDBRANCH   3  33
TORSDOF 11
ENDMDL
MODEL      109
REMARK 921   NORMALIZED FREE ENERGY PREDICTED BY IDOCK:   -3.33 KCAL/MOL
REMARK 922        TOTAL FREE ENERGY PREDICTED BY IDOCK:   -6.08 KCAL/MOL
REMARK 923 INTER-LIGAND FREE ENERGY PREDICTED BY IDOCK:   -5.30 KCAL/MOL
REMARK 924 INTRA-LIGAND FREE ENERGY PREDICTED BY IDOCK:   -0.78 KCAL/MOL
REMARK 927      BINDING AFFINITY PREDICTED BY RF-SCORE:    0.00 PKD
ROOT
HETATM    1  C   UNL     1      -6.316   2.658  66.381  1.00  0.00    -0.025 C  
HETATM    2  C   UNL     1      -6.818   3.912  67.039  1.00  0.00    -0.051 C  
HETATM    3  N   UNL     1      -8.192   4.164  66.997  1.00  0.00    -0.100 N  
HETATM    4  O   UNL     1      -6.022   4.655  67.619  1.00  0.00    -0.022 OA 
ENDROOT
BRANCH   3   5
HETATM    5  C   UNL     1      -8.611   5.387  67.616  1.00  0.00    -0.104 A  
HETATM    6  I   UNL     1     -10.649   9.422  69.673  1.00  0.00    -0.254 I  
HETATM    7  C   UNL     1      -9.552   7.735  68.852  1.00  0.00    -0.154 A  
HETATM    8  C   UNL     1      -8.581   6.623  66.914  1.00  0.00    -0.115 A  
HETATM    9  I   UNL     1      -7.681   6.669  64.945  1.00  0.00    -0.114 I  
HETATM   10  C   UNL     1      -9.001   5.359  68.981  1.00  0.00    -0.107 A  
HETATM   11  C   UNL     1      -9.484   6.529  69.607  1.00  0.00    -0.149 A  
HETATM   12  C   UNL     1      -9.055   7.811  67.524  1.00  0.00    -0.136 A  
HETATM   13  I   UNL     1      -8.768   3.488  70.078  1.00  0.00    -0.176 I  
BRANCH  12  14
HETATM   14  C   UNL     1      -9.109   9.081  66.731  1.00  0.00    -0.145 C  
HETATM   15  N   UNL     1      -8.116  10.016  66.950  1.00  0.00    -0.116 N  
HETATM   16  O   UNL     1     -10.020   9.266  65.931  1.00  0.00    -0.307 OA 
HETATM   17  H   UNL     1      -7.387   9.815  67.635  1.00  0.00     0.000 HD 
BRANCH  15  18
HETATM   18  C   UNL     1      -8.085  11.285  66.227  1.00  0.00    -0.108 C  
BRANCH  18  19
HETATM   19  C   UNL     1      -8.768  12.417  67.008  1.00  0.00    -0.207 C  
HETATM   20  H   UNL     1      -8.209  14.098  67.862  1.00  0.00     0.000 HD 
HETATM   21  O   UNL     1      -7.786  13.398  67.379  1.00  0.00    -0.161 OA 
BRANCH  19  22
HETATM   22  C   UNL     1      -9.898  13.067  66.191  1.00  0.00    -0.273 C  
HETATM   23  O   UNL     1     -10.275  12.262  65.076  1.00  0.00    -0.279 OA 
HETATM   24  H   UNL     1     -10.972  12.663  64.572  1.00  0.00     0.000 HD 
ENDBRANCH  19  22
ENDBRANCH  18  19
ENDBRANCH  15  18
ENDBRANCH  12  14
BRANCH  11  25
HETATM   25  C   UNL     1      -9.832   6.538  71.054  1.00  0.00    -0.179 C  
HETATM   26  O   UNL     1      -8.980   6.854  71.879  1.00  0.00    -0.137 OA 
HETATM   27  H   UNL     1     -11.792   5.948  70.675  1.00  0.00     0.000 HD 
HETATM   28  N   UNL     1     -11.118   6.166  71.409  1.00  0.00    -0.280 N  
BRANCH  28  29
HETATM   29  C   UNL     1     -11.532   6.077  72.796  1.00  0.00    -0.208 C  
BRANCH  29  30
HETATM   30  C   UNL     1     -11.242   4.690  73.351  1.00  0.00    -0.338 C  
HETATM   31  O   UNL     1      -9.985   4.703  74.030  1.00  0.00    -0.144 OA 
HETATM   32  H   UNL     1      -9.804   3.837  74.377  1.00  0.00     0.000 HD 
ENDBRANCH  29  30
ENDBRANCH  28  29
ENDBRANCH  11  25
ENDBRANCH   3   5
BRANCH   3  33
HETATM   33  C   UNL     1      -9.193   3.385  66.212  1.00  0.00    -0.159 C  
BRANCH  33  34
HETATM   34  C   UNL     1      -9.092   3.461  64.664  1.00  0.00    -0.133 C  
HETATM   35  O   UNL     1      -8.465   2.300  64.099  1.00  0.00    -0.081 OA 
HETATM   36  H   UNL     1      -8.404   2.346  63.152  1.00  0.00     0.000 HD 
BRANCH  34  37
HETATM   37  C   UNL     1     -10.468   3.624  63.993  1.00  0.00    -0.265 C  
HETATM   38  H   UNL     1     -12.223   4.434  64.426  1.00  0.00     0.000 HD 
HETATM   39  O   UNL     1     -11.373   4.334  64.840  1.00  0.00    -0.278 OA 
ENDBRANCH  34  37
ENDBRANCH  33  34
ENDBRANCH   3  33
TORSDOF 11
ENDMDL
MODEL      110
REMARK 921   NORMALIZED FREE ENERGY PREDICTED BY IDOCK:   -3.27 KCAL/MOL
REMARK 922        TOTAL FREE ENERGY PREDICTED BY IDOCK:   -5.98 KCAL/MOL
REMARK 923 INTER-LIGAND FREE ENERGY PREDICTED BY IDOCK:   -5.26 KCAL/MOL
REMARK 924 INTRA-LIGAND FREE ENERGY PREDICTED BY IDOCK:   -0.71 KCAL/MOL
REMARK 927      BINDING AFFINITY PREDICTED BY RF-SCORE:    0.00 PKD
ROOT
HETATM    1  C   UNL     1      -9.916   3.880  64.777  1.00  0.00    -0.203 C  
HETATM    2  C   UNL     1      -9.935   4.716  66.026  1.00  0.00    -0.244 C  
HETATM    3  N   UNL     1      -8.734   4.876  66.721  1.00  0.00    -0.108 N  
HETATM    4  O   UNL     1     -10.985   5.260  66.377  1.00  0.00    -0.235 OA 
ENDROOT
BRANCH   3   5
HETATM    5  C   UNL     1      -8.817   5.660  67.918  1.00  0.00    -0.105 A  
HETATM    6  I   UNL     1      -9.721   8.261  72.052  1.00  0.00    -0.393 I  
HETATM    7  C   UNL     1      -9.098   7.146  70.293  1.00  0.00    -0.156 A  
HETATM    8  C   UNL     1      -8.741   7.079  67.884  1.00  0.00    -0.125 A  
HETATM    9  I   UNL     1      -8.277   8.041  66.000  1.00  0.00    -0.152 I  
HETATM   10  C   UNL     1      -8.912   4.987  69.164  1.00  0.00    -0.100 A  
HETATM   11  C   UNL     1      -9.064   5.723  70.361  1.00  0.00    -0.160 A  
HETATM   12  C   UNL     1      -8.885   7.838  69.072  1.00  0.00    -0.138 A  
HETATM   13  I   UNL     1      -8.751   2.811  69.173  1.00  0.00    -0.182 I  
BRANCH  12  14
HETATM   14  C   UNL     1      -8.903   9.334  68.998  1.00  0.00    -0.136 C  
HETATM   15  N   UNL     1     -10.079   9.942  68.602  1.00  0.00    -0.168 N  
HETATM   16  O   UNL     1      -7.893   9.974  69.272  1.00  0.00    -0.101 OA 
HETATM   17  H   UNL     1     -10.887   9.361  68.377  1.00  0.00     0.000 HD 
BRANCH  15  18
HETATM   18  C   UNL     1     -10.195  11.395  68.499  1.00  0.00    -0.208 C  
BRANCH  18  19
HETATM   19  C   UNL     1     -11.632  11.843  68.193  1.00  0.00    -0.334 C  
HETATM   20  H   UNL     1     -13.409  11.571  68.990  1.00  0.00     0.000 HD 
HETATM   21  O   UNL     1     -12.520  11.293  69.179  1.00  0.00    -0.378 OA 
BRANCH  19  22
HETATM   22  C   UNL     1     -11.751  13.377  68.155  1.00  0.00    -0.362 C  
HETATM   23  O   UNL     1     -10.912  13.947  67.152  1.00  0.00    -0.284 OA 
HETATM   24  H   UNL     1     -10.986  14.893  67.129  1.00  0.00     0.000 HD 
ENDBRANCH  19  22
ENDBRANCH  18  19
ENDBRANCH  15  18
ENDBRANCH  12  14
BRANCH  11  25
HETATM   25  C   UNL     1      -9.096   5.041  71.683  1.00  0.00    -0.140 C  
HETATM   26  O   UNL     1      -8.075   4.991  72.362  1.00  0.00    -0.106 OA 
HETATM   27  H   UNL     1     -11.115   4.577  71.492  1.00  0.00     0.000 HD 
HETATM   28  N   UNL     1     -10.292   4.471  72.084  1.00  0.00    -0.186 N  
BRANCH  28  29
HETATM   29  C   UNL     1     -10.406   3.727  73.324  1.00  0.00    -0.167 C  
BRANCH  29  30
HETATM   30  C   UNL     1      -9.983   2.279  73.117  1.00  0.00    -0.110 C  
HETATM   31  O   UNL     1     -11.011   1.580  72.413  1.00  0.00    -0.130 OA 
HETATM   32  H   UNL     1     -10.747   0.676  72.284  1.00  0.00     0.000 HD 
ENDBRANCH  29  30
ENDBRANCH  28  29
ENDBRANCH  11  25
ENDBRANCH   3   5
BRANCH   3  33
HETATM   33  C   UNL     1      -7.462   4.153  66.431  1.00  0.00    -0.084 C  
BRANCH  33  34
HETATM   34  C   UNL     1      -6.136   4.891  66.765  1.00  0.00    -0.031 C  
HETATM   35  O   UNL     1      -5.475   4.334  67.911  1.00  0.00    -0.015 OA 
HETATM   36  H   UNL     1      -4.665   4.785  68.115  1.00  0.00     0.000 HD 
BRANCH  34  37
HETATM   37  C   UNL     1      -5.139   4.868  65.593  1.00  0.00    -0.008 C  
HETATM   38  H   UNL     1      -4.610   6.053  64.095  1.00  0.00     0.000 HD 
HETATM   39  O   UNL     1      -5.225   6.067  64.819  1.00  0.00    -0.013 OA 
ENDBRANCH  34  37
ENDBRANCH  33  34
ENDBRANCH   3  33
TORSDOF 11
ENDMDL
MODEL      111
REMARK 921   NORMALIZED FREE ENERGY PREDICTED BY IDOCK:   -3.20 KCAL/MOL
REMARK 922        TOTAL FREE ENERGY PREDICTED BY IDOCK:   -5.87 KCAL/MOL
REMARK 923 INTER-LIGAND FREE ENERGY PREDICTED BY IDOCK:   -5.86 KCAL/MOL
REMARK 924 INTRA-LIGAND FREE ENERGY PREDICTED BY IDOCK:   -0.01 KCAL/MOL
REMARK 927      BINDING AFFINITY PREDICTED BY RF-SCORE:    0.00 PKD
ROOT
HETATM    1  C   UNL     1     -11.496  12.131  63.768  1.00  0.00    -0.548 C  
HETATM    2  C   UNL     1     -10.346  11.839  64.691  1.00  0.00    -0.290 C  
HETATM    3  N   UNL     1     -10.600  11.836  66.066  1.00  0.00    -0.251 N  
HETATM    4  O   UNL     1      -9.238  11.579  64.218  1.00  0.00    -0.064 OA 
ENDROOT
BRANCH   3   5
HETATM    5  C   UNL     1      -9.462  11.579  66.899  1.00  0.00    -0.182 A  
HETATM    6  I   UNL     1      -5.183  10.673  69.254  1.00  0.00    -0.036 I  
HETATM    7  C   UNL     1      -7.149  11.111  68.434  1.00  0.00    -0.076 A  
HETATM    8  C   UNL     1      -9.237  10.300  67.476  1.00  0.00    -0.141 A  
HETATM    9  I   UNL     1     -10.769   8.785  67.255  1.00  0.00     0.283 I  
HETATM   10  C   UNL     1      -8.583  12.654  67.197  1.00  0.00    -0.199 A  
HETATM   11  C   UNL     1      -7.414  12.427  67.957  1.00  0.00    -0.114 A  
HETATM   12  C   UNL     1      -8.075  10.051  68.248  1.00  0.00    -0.104 A  
HETATM   13  I   UNL     1      -9.127  14.650  66.505  1.00  0.00    -0.061 I  
BRANCH  12  14
HETATM   14  C   UNL     1      -7.808   8.669  68.762  1.00  0.00    -0.106 C  
HETATM   15  N   UNL     1      -8.168   8.389  70.065  1.00  0.00    -0.118 N  
HETATM   16  O   UNL     1      -7.275   7.838  68.034  1.00  0.00    -0.082 OA 
HETATM   17  H   UNL     1      -8.599   9.121  70.630  1.00  0.00     0.000 HD 
BRANCH  15  18
HETATM   18  C   UNL     1      -7.947   7.071  70.655  1.00  0.00    -0.109 C  
BRANCH  18  19
HETATM   19  C   UNL     1      -9.104   6.641  71.569  1.00  0.00    -0.142 C  
HETATM   20  H   UNL     1      -9.665   4.990  72.477  1.00  0.00     0.000 HD 
HETATM   21  O   UNL     1      -8.949   5.255  71.912  1.00  0.00    -0.133 OA 
BRANCH  19  22
HETATM   22  C   UNL     1      -9.175   7.507  72.839  1.00  0.00    -0.168 C  
HETATM   23  O   UNL     1      -8.567   8.782  72.644  1.00  0.00    -0.411 OA 
HETATM   24  H   UNL     1      -8.610   9.316  73.428  1.00  0.00     0.000 HD 
ENDBRANCH  19  22
ENDBRANCH  18  19
ENDBRANCH  15  18
ENDBRANCH  12  14
BRANCH  11  25
HETATM   25  C   UNL     1      -6.517  13.551  68.340  1.00  0.00    -0.094 C  
HETATM   26  O   UNL     1      -5.616  13.892  67.579  1.00  0.00    -0.340 OA 
HETATM   27  H   UNL     1      -7.520  13.854  70.137  1.00  0.00     0.000 HD 
HETATM   28  N   UNL     1      -6.733  14.159  69.565  1.00  0.00    -0.126 N  
BRANCH  28  29
HETATM   29  C   UNL     1      -5.871  15.216  70.057  1.00  0.00    -0.136 C  
BRANCH  29  30
HETATM   30  C   UNL     1      -5.251  14.822  71.389  1.00  0.00    -0.137 C  
HETATM   31  O   UNL     1      -6.025  13.777  71.982  1.00  0.00    -0.546 OA 
HETATM   32  H   UNL     1      -5.638  13.530  72.814  1.00  0.00     0.000 HD 
ENDBRANCH  29  30
ENDBRANCH  28  29
ENDBRANCH  11  25
ENDBRANCH   3   5
BRANCH   3  33
HETATM   33  C   UNL     1     -11.873  12.262  66.713  1.00  0.00    -0.277 C  
BRANCH  33  34
HETATM   34  C   UNL     1     -12.170  13.787  66.756  1.00  0.00    -0.397 C  
HETATM   35  O   UNL     1     -13.367  14.131  66.043  1.00  0.00    -0.475 OA 
HETATM   36  H   UNL     1     -13.548  15.063  66.069  1.00  0.00     0.000 HD 
BRANCH  34  37
HETATM   37  C   UNL     1     -12.312  14.318  68.194  1.00  0.00     0.030 C  
HETATM   38  H   UNL     1     -12.021  13.653  70.037  1.00  0.00     0.000 HD 
HETATM   39  O   UNL     1     -11.933  13.325  69.149  1.00  0.00    -0.309 OA 
ENDBRANCH  34  37
ENDBRANCH  33  34
ENDBRANCH   3  33
TORSDOF 11
ENDMDL
MODEL      112
REMARK 921   NORMALIZED FREE ENERGY PREDICTED BY IDOCK:   -3.09 KCAL/MOL
REMARK 922        TOTAL FREE ENERGY PREDICTED BY IDOCK:   -5.68 KCAL/MOL
REMARK 923 INTER-LIGAND FREE ENERGY PREDICTED BY IDOCK:   -4.74 KCAL/MOL
REMARK 924 INTRA-LIGAND FREE ENERGY PREDICTED BY IDOCK:   -0.94 KCAL/MOL
REMARK 927      BINDING AFFINITY PREDICTED BY RF-SCORE:    0.00 PKD
ROOT
HETATM    1  C   UNL     1     -10.767   4.419  65.454  1.00  0.00    -0.145 C  
HETATM    2  C   UNL     1     -10.177   5.473  66.350  1.00  0.00    -0.201 C  
HETATM    3  N   UNL     1      -8.849   5.314  66.755  1.00  0.00    -0.112 N  
HETATM    4  O   UNL     1     -10.858   6.450  66.670  1.00  0.00    -0.285 OA 
ENDROOT
BRANCH   3   5
HETATM    5  C   UNL     1      -8.348   6.333  67.630  1.00  0.00    -0.117 A  
HETATM    6  I   UNL     1      -6.044   9.626  70.548  1.00  0.00    -0.098 I  
HETATM    7  C   UNL     1      -7.245   8.315  69.297  1.00  0.00    -0.064 A  
HETATM    8  C   UNL     1      -8.477   6.230  69.042  1.00  0.00    -0.120 A  
HETATM    9  I   UNL     1      -9.645   4.596  69.853  1.00  0.00    -0.295 I  
HETATM   10  C   UNL     1      -7.770   7.496  67.057  1.00  0.00    -0.111 A  
HETATM   11  C   UNL     1      -7.204   8.492  67.884  1.00  0.00    -0.088 A  
HETATM   12  C   UNL     1      -7.923   7.219  69.891  1.00  0.00    -0.122 A  
HETATM   13  I   UNL     1      -7.845   7.719  64.888  1.00  0.00    -0.108 I  
BRANCH  12  14
HETATM   14  C   UNL     1      -7.982   7.038  71.378  1.00  0.00    -0.103 C  
HETATM   15  N   UNL     1      -8.948   7.741  72.071  1.00  0.00    -0.127 N  
HETATM   16  O   UNL     1      -7.181   6.295  71.936  1.00  0.00    -0.084 OA 
HETATM   17  H   UNL     1      -9.582   8.352  71.557  1.00  0.00     0.000 HD 
BRANCH  15  18
HETATM   18  C   UNL     1      -9.083   7.630  73.522  1.00  0.00    -0.262 C  
BRANCH  18  19
HETATM   19  C   UNL     1     -10.470   7.120  73.939  1.00  0.00    -0.246 C  
HETATM   20  H   UNL     1     -12.312   7.298  73.275  1.00  0.00     0.000 HD 
HETATM   21  O   UNL     1     -11.454   7.614  73.017  1.00  0.00    -0.342 OA 
BRANCH  19  22
HETATM   22  C   UNL     1     -10.513   5.584  74.003  1.00  0.00    -0.279 C  
HETATM   23  O   UNL     1     -11.670   5.060  73.353  1.00  0.00    -0.487 OA 
HETATM   24  H   UNL     1     -11.696   4.112  73.392  1.00  0.00     0.000 HD 
ENDBRANCH  19  22
ENDBRANCH  18  19
ENDBRANCH  15  18
ENDBRANCH  12  14
BRANCH  11  25
HETATM   25  C   UNL     1      -6.657   9.749  67.307  1.00  0.00    -0.070 C  
HETATM   26  O   UNL     1      -5.513   9.764  66.863  1.00  0.00    -0.045 OA 
HETATM   27  H   UNL     1      -8.426  10.785  67.665  1.00  0.00     0.000 HD 
HETATM   28  N   UNL     1      -7.472  10.869  67.315  1.00  0.00    -0.099 N  
BRANCH  28  29
HETATM   29  C   UNL     1      -7.006  12.157  66.838  1.00  0.00     0.009 C  
BRANCH  29  30
HETATM   30  C   UNL     1      -6.591  13.039  68.007  1.00  0.00    -0.116 C  
HETATM   31  O   UNL     1      -7.417  12.750  69.137  1.00  0.00    -0.312 OA 
HETATM   32  H   UNL     1      -7.158  13.300  69.867  1.00  0.00     0.000 HD 
ENDBRANCH  29  30
ENDBRANCH  28  29
ENDBRANCH  11  25
ENDBRANCH   3   5
BRANCH   3  33
HETATM   33  C   UNL     1      -8.008   4.106  66.516  1.00  0.00    -0.098 C  
BRANCH  33  34
HETATM   34  C   UNL     1      -6.929   4.203  65.403  1.00  0.00    -0.058 C  
HETATM   35  O   UNL     1      -5.746   3.456  65.723  1.00  0.00    -0.017 OA 
HETATM   36  H   UNL     1      -5.086   3.515  65.042  1.00  0.00     0.000 HD 
BRANCH  34  37
HETATM   37  C   UNL     1      -7.443   3.706  64.040  1.00  0.00    -0.066 C  
HETATM   38  H   UNL     1      -8.297   2.078  63.302  1.00  0.00     0.000 HD 
HETATM   39  O   UNL     1      -7.980   2.385  64.143  1.00  0.00    -0.075 OA 
ENDBRANCH  34  37
ENDBRANCH  33  34
ENDBRANCH   3  33
TORSDOF 11
ENDMDL
MODEL      113
REMARK 921   NORMALIZED FREE ENERGY PREDICTED BY IDOCK:   -3.05 KCAL/MOL
REMARK 922        TOTAL FREE ENERGY PREDICTED BY IDOCK:   -5.61 KCAL/MOL
REMARK 923 INTER-LIGAND FREE ENERGY PREDICTED BY IDOCK:   -5.93 KCAL/MOL
REMARK 924 INTRA-LIGAND FREE ENERGY PREDICTED BY IDOCK:    0.31 KCAL/MOL
REMARK 927      BINDING AFFINITY PREDICTED BY RF-SCORE:    0.00 PKD
ROOT
HETATM    1  C   UNL     1      -8.764  10.034  63.192  1.00  0.00    -0.217 C  
HETATM    2  C   UNL     1      -9.486  10.203  64.500  1.00  0.00    -0.303 C  
HETATM    3  N   UNL     1      -8.742  10.070  65.675  1.00  0.00    -0.149 N  
HETATM    4  O   UNL     1     -10.686  10.485  64.500  1.00  0.00    -0.139 OA 
ENDROOT
BRANCH   3   5
HETATM    5  C   UNL     1      -9.486  10.213  66.892  1.00  0.00    -0.169 A  
HETATM    6  I   UNL     1     -12.555  10.480  70.789  1.00  0.00    -0.426 I  
HETATM    7  C   UNL     1     -11.038  10.411  69.233  1.00  0.00    -0.253 A  
HETATM    8  C   UNL     1      -9.944  11.483  67.338  1.00  0.00    -0.190 A  
HETATM    9  I   UNL     1      -9.310  13.247  66.253  1.00  0.00     0.128 I  
HETATM   10  C   UNL     1      -9.707   9.061  67.692  1.00  0.00    -0.156 A  
HETATM   11  C   UNL     1     -10.494   9.148  68.862  1.00  0.00    -0.239 A  
HETATM   12  C   UNL     1     -10.729  11.595  68.513  1.00  0.00    -0.250 A  
HETATM   13  I   UNL     1      -8.751   7.194  67.093  1.00  0.00    -0.139 I  
BRANCH  12  14
HETATM   14  C   UNL     1     -11.286  12.929  68.908  1.00  0.00    -0.279 C  
HETATM   15  N   UNL     1     -10.563  13.683  69.811  1.00  0.00    -0.223 N  
HETATM   16  O   UNL     1     -12.355  13.308  68.441  1.00  0.00    -0.158 OA 
HETATM   17  H   UNL     1      -9.684  13.315  70.175  1.00  0.00     0.000 HD 
BRANCH  15  18
HETATM   18  C   UNL     1     -11.025  14.995  70.257  1.00  0.00    -0.209 C  
BRANCH  18  19
HETATM   19  C   UNL     1     -10.476  16.133  69.383  1.00  0.00    -0.283 C  
HETATM   20  H   UNL     1     -10.460  18.098  69.448  1.00  0.00     0.000 HD 
HETATM   21  O   UNL     1     -10.800  17.395  69.989  1.00  0.00     0.221 OA 
BRANCH  19  22
HETATM   22  C   UNL     1      -8.957  16.007  69.179  1.00  0.00    -0.252 C  
HETATM   23  O   UNL     1      -8.370  17.251  68.800  1.00  0.00    -0.266 OA 
HETATM   24  H   UNL     1      -7.432  17.173  68.673  1.00  0.00     0.000 HD 
ENDBRANCH  19  22
ENDBRANCH  18  19
ENDBRANCH  15  18
ENDBRANCH  12  14
BRANCH  11  25
HETATM   25  C   UNL     1     -10.680   7.969  69.751  1.00  0.00    -0.231 C  
HETATM   26  O   UNL     1     -11.580   7.169  69.514  1.00  0.00    -0.020 OA 
HETATM   27  H   UNL     1      -9.074   8.515  70.956  1.00  0.00     0.000 HD 
HETATM   28  N   UNL     1      -9.825   7.836  70.832  1.00  0.00    -0.176 N  
BRANCH  28  29
HETATM   29  C   UNL     1      -9.969   6.760  71.793  1.00  0.00    -0.174 C  
BRANCH  29  30
HETATM   30  C   UNL     1     -11.127   7.043  72.741  1.00  0.00    -0.284 C  
HETATM   31  O   UNL     1     -12.077   5.979  72.661  1.00  0.00    -0.526 OA 
HETATM   32  H   UNL     1     -12.800   6.156  73.252  1.00  0.00     0.000 HD 
ENDBRANCH  29  30
ENDBRANCH  28  29
ENDBRANCH  11  25
ENDBRANCH   3   5
BRANCH   3  33
HETATM   33  C   UNL     1      -7.326   9.608  65.758  1.00  0.00    -0.100 C  
BRANCH  33  34
HETATM   34  C   UNL     1      -6.306  10.570  66.428  1.00  0.00    -0.100 C  
HETATM   35  O   UNL     1      -6.469  11.928  65.994  1.00  0.00    -0.270 OA 
HETATM   36  H   UNL     1      -5.845  12.516  66.404  1.00  0.00     0.000 HD 
BRANCH  34  37
HETATM   37  C   UNL     1      -6.406  10.553  67.964  1.00  0.00    -0.058 C  
HETATM   38  H   UNL     1      -5.196  10.795  69.514  1.00  0.00     0.000 HD 
HETATM   39  O   UNL     1      -5.134  10.805  68.566  1.00  0.00    -0.038 OA 
ENDBRANCH  34  37
ENDBRANCH  33  34
ENDBRANCH   3  33
TORSDOF 11
ENDMDL
MODEL      114
REMARK 921   NORMALIZED FREE ENERGY PREDICTED BY IDOCK:   -3.04 KCAL/MOL
REMARK 922        TOTAL FREE ENERGY PREDICTED BY IDOCK:   -5.60 KCAL/MOL
REMARK 923 INTER-LIGAND FREE ENERGY PREDICTED BY IDOCK:   -5.04 KCAL/MOL
REMARK 924 INTRA-LIGAND FREE ENERGY PREDICTED BY IDOCK:   -0.56 KCAL/MOL
REMARK 927      BINDING AFFINITY PREDICTED BY RF-SCORE:    0.00 PKD
ROOT
HETATM    1  C   UNL     1      -9.902   3.150  63.821  1.00  0.00    -0.151 C  
HETATM    2  C   UNL     1      -9.971   4.185  64.910  1.00  0.00    -0.199 C  
HETATM    3  N   UNL     1      -8.768   4.735  65.362  1.00  0.00    -0.133 N  
HETATM    4  O   UNL     1     -11.070   4.540  65.342  1.00  0.00    -0.204 OA 
ENDROOT
BRANCH   3   5
HETATM    5  C   UNL     1      -8.892   5.695  66.419  1.00  0.00    -0.129 A  
HETATM    6  I   UNL     1      -9.939   8.922  70.047  1.00  0.00    -0.264 I  
HETATM    7  C   UNL     1      -9.256   7.533  68.520  1.00  0.00    -0.143 A  
HETATM    8  C   UNL     1      -8.760   7.089  66.177  1.00  0.00    -0.145 A  
HETATM    9  I   UNL     1      -8.150   7.738  64.203  1.00  0.00     0.143 I  
HETATM   10  C   UNL     1      -9.085   5.223  67.744  1.00  0.00    -0.110 A  
HETATM   11  C   UNL     1      -9.280   6.138  68.804  1.00  0.00    -0.124 A  
HETATM   12  C   UNL     1      -8.945   8.024  67.225  1.00  0.00    -0.148 A  
HETATM   13  I   UNL     1      -9.008   3.071  68.092  1.00  0.00    -0.246 I  
BRANCH  12  14
HETATM   14  C   UNL     1      -8.902   9.492  66.925  1.00  0.00    -0.127 C  
HETATM   15  N   UNL     1     -10.067  10.090  66.483  1.00  0.00    -0.225 N  
HETATM   16  O   UNL     1      -7.855  10.115  67.062  1.00  0.00    -0.102 OA 
HETATM   17  H   UNL     1     -10.908   9.522  66.378  1.00  0.00     0.000 HD 
BRANCH  15  18
HETATM   18  C   UNL     1     -10.124  11.514  66.164  1.00  0.00    -0.229 C  
BRANCH  18  19
HETATM   19  C   UNL     1     -11.566  12.042  66.118  1.00  0.00    -0.304 C  
HETATM   20  H   UNL     1     -12.520  13.638  66.758  1.00  0.00     0.000 HD 
HETATM   21  O   UNL     1     -11.628  13.312  66.787  1.00  0.00    -0.330 OA 
BRANCH  19  22
HETATM   22  C   UNL     1     -12.077  12.168  64.672  1.00  0.00    -0.311 C  
HETATM   23  O   UNL     1     -13.432  12.611  64.628  1.00  0.00    -0.576 OA 
HETATM   24  H   UNL     1     -13.748  12.689  63.735  1.00  0.00     0.000 HD 
ENDBRANCH  19  22
ENDBRANCH  18  19
ENDBRANCH  15  18
ENDBRANCH  12  14
BRANCH  11  25
HETATM   25  C   UNL     1      -9.415   5.667  70.209  1.00  0.00    -0.161 C  
HETATM   26  O   UNL     1     -10.520   5.349  70.637  1.00  0.00    -0.257 OA 
HETATM   27  H   UNL     1      -7.374   5.868  70.563  1.00  0.00     0.000 HD 
HETATM   28  N   UNL     1      -8.270   5.625  70.986  1.00  0.00    -0.119 N  
BRANCH  28  29
HETATM   29  C   UNL     1      -8.309   5.247  72.386  1.00  0.00    -0.118 C  
BRANCH  29  30
HETATM   30  C   UNL     1      -8.150   3.740  72.535  1.00  0.00    -0.081 C  
HETATM   31  O   UNL     1      -9.431   3.115  72.435  1.00  0.00    -0.108 OA 
HETATM   32  H   UNL     1      -9.332   2.175  72.528  1.00  0.00     0.000 HD 
ENDBRANCH  29  30
ENDBRANCH  28  29
ENDBRANCH  11  25
ENDBRANCH   3   5
BRANCH   3  33
HETATM   33  C   UNL     1      -7.404   4.268  64.981  1.00  0.00    -0.072 C  
BRANCH  33  34
HETATM   34  C   UNL     1      -6.336   4.210  66.107  1.00  0.00    -0.033 C  
HETATM   35  O   UNL     1      -5.843   2.879  66.324  1.00  0.00    -0.021 OA 
HETATM   36  H   UNL     1      -5.189   2.844  67.012  1.00  0.00     0.000 HD 
BRANCH  34  37
HETATM   37  C   UNL     1      -5.126   5.116  65.816  1.00  0.00    -0.005 C  
HETATM   38  H   UNL     1      -4.402   6.845  66.458  1.00  0.00     0.000 HD 
HETATM   39  O   UNL     1      -5.149   6.285  66.638  1.00  0.00    -0.008 OA 
ENDBRANCH  34  37
ENDBRANCH  33  34
ENDBRANCH   3  33
TORSDOF 11
ENDMDL
MODEL      115
REMARK 921   NORMALIZED FREE ENERGY PREDICTED BY IDOCK:   -3.03 KCAL/MOL
REMARK 922        TOTAL FREE ENERGY PREDICTED BY IDOCK:   -5.59 KCAL/MOL
REMARK 923 INTER-LIGAND FREE ENERGY PREDICTED BY IDOCK:   -5.67 KCAL/MOL
REMARK 924 INTRA-LIGAND FREE ENERGY PREDICTED BY IDOCK:    0.08 KCAL/MOL
REMARK 927      BINDING AFFINITY PREDICTED BY RF-SCORE:    0.00 PKD
ROOT
HETATM    1  C   UNL     1      -7.034  10.740  65.790  1.00  0.00    -0.048 C  
HETATM    2  C   UNL     1      -8.011  10.968  66.910  1.00  0.00    -0.143 C  
HETATM    3  N   UNL     1      -9.372  10.825  66.627  1.00  0.00    -0.164 N  
HETATM    4  O   UNL     1      -7.590  11.235  68.039  1.00  0.00    -0.097 OA 
ENDROOT
BRANCH   3   5
HETATM    5  C   UNL     1     -10.257  11.082  67.725  1.00  0.00    -0.183 A  
HETATM    6  I   UNL     1     -12.809  12.099  71.863  1.00  0.00     0.266 I  
HETATM    7  C   UNL     1     -11.898  11.652  69.941  1.00  0.00    -0.358 A  
HETATM    8  C   UNL     1     -10.872  10.023  68.447  1.00  0.00    -0.235 A  
HETATM    9  I   UNL     1     -10.620   7.998  67.722  1.00  0.00    -0.027 I  
HETATM   10  C   UNL     1     -10.568  12.430  68.045  1.00  0.00    -0.221 A  
HETATM   11  C   UNL     1     -11.381  12.727  69.161  1.00  0.00    -0.337 A  
HETATM   12  C   UNL     1     -11.697  10.297  69.566  1.00  0.00    -0.193 A  
HETATM   13  I   UNL     1      -9.809  14.000  66.734  1.00  0.00    -0.307 I  
BRANCH  12  14
HETATM   14  C   UNL     1     -12.251   9.163  70.374  1.00  0.00     0.211 C  
HETATM   15  N   UNL     1     -11.380   8.474  71.194  1.00  0.00    -0.262 N  
HETATM   16  O   UNL     1     -13.438   8.869  70.282  1.00  0.00     0.975 OA 
HETATM   17  H   UNL     1     -10.399   8.755  71.225  1.00  0.00     0.000 HD 
BRANCH  15  18
HETATM   18  C   UNL     1     -11.826   7.353  72.018  1.00  0.00    -0.298 C  
BRANCH  18  19
HETATM   19  C   UNL     1     -10.804   6.206  72.042  1.00  0.00    -0.247 C  
HETATM   20  H   UNL     1      -9.035   5.858  71.257  1.00  0.00     0.000 HD 
HETATM   21  O   UNL     1      -9.667   6.567  71.242  1.00  0.00    -0.173 OA 
BRANCH  19  22
HETATM   22  C   UNL     1     -10.367   5.868  73.478  1.00  0.00    -0.243 C  
HETATM   23  O   UNL     1      -9.092   5.230  73.506  1.00  0.00    -0.128 OA 
HETATM   24  H   UNL     1      -8.822   5.021  74.392  1.00  0.00     0.000 HD 
ENDBRANCH  19  22
ENDBRANCH  18  19
ENDBRANCH  15  18
ENDBRANCH  12  14
BRANCH  11  25
HETATM   25  C   UNL     1     -11.776  14.127  69.473  1.00  0.00    -0.312 C  
HETATM   26  O   UNL     1     -12.731  14.631  68.890  1.00  0.00     0.157 OA 
HETATM   27  H   UNL     1     -10.264  14.329  70.889  1.00  0.00     0.000 HD 
HETATM   28  N   UNL     1     -11.024  14.814  70.411  1.00  0.00    -0.125 N  
BRANCH  28  29
HETATM   29  C   UNL     1     -11.287  16.204  70.733  1.00  0.00    -0.368 C  
BRANCH  29  30
HETATM   30  C   UNL     1     -12.403  16.310  71.762  1.00  0.00    -0.177 C  
HETATM   31  O   UNL     1     -11.849  16.213  73.076  1.00  0.00    -0.465 OA 
HETATM   32  H   UNL     1     -12.546  16.279  73.719  1.00  0.00     0.000 HD 
ENDBRANCH  29  30
ENDBRANCH  28  29
ENDBRANCH  11  25
ENDBRANCH   3   5
BRANCH   3  33
HETATM   33  C   UNL     1      -9.959  10.631  65.270  1.00  0.00    -0.294 C  
BRANCH  33  34
HETATM   34  C   UNL     1     -10.222  11.906  64.424  1.00  0.00    -0.297 C  
HETATM   35  O   UNL     1      -9.251  12.080  63.381  1.00  0.00    -0.610 OA 
HETATM   36  H   UNL     1      -9.412  12.860  62.863  1.00  0.00     0.000 HD 
BRANCH  34  37
HETATM   37  C   UNL     1     -11.616  11.900  63.769  1.00  0.00    -0.462 C  
HETATM   38  H   UNL     1     -13.489  12.251  64.308  1.00  0.00     0.000 HD 
HETATM   39  O   UNL     1     -12.629  12.255  64.712  1.00  0.00    -0.507 OA 
ENDBRANCH  34  37
ENDBRANCH  33  34
ENDBRANCH   3  33
TORSDOF 11
ENDMDL
MODEL      116
REMARK 921   NORMALIZED FREE ENERGY PREDICTED BY IDOCK:   -2.97 KCAL/MOL
REMARK 922        TOTAL FREE ENERGY PREDICTED BY IDOCK:   -5.49 KCAL/MOL
REMARK 923 INTER-LIGAND FREE ENERGY PREDICTED BY IDOCK:   -4.88 KCAL/MOL
REMARK 924 INTRA-LIGAND FREE ENERGY PREDICTED BY IDOCK:   -0.61 KCAL/MOL
REMARK 927      BINDING AFFINITY PREDICTED BY RF-SCORE:    0.00 PKD
ROOT
HETATM    1  C   UNL     1      -6.748   6.148  63.795  1.00  0.00    -0.037 C  
HETATM    2  C   UNL     1      -7.798   6.942  64.519  1.00  0.00    -0.115 C  
HETATM    3  N   UNL     1      -7.369   7.940  65.399  1.00  0.00    -0.074 N  
HETATM    4  O   UNL     1      -8.991   6.721  64.293  1.00  0.00     0.618 OA 
ENDROOT
BRANCH   3   5
HETATM    5  C   UNL     1      -8.413   8.646  66.081  1.00  0.00    -0.133 A  
HETATM    6  I   UNL     1     -11.597  11.530  68.575  1.00  0.00    -0.340 I  
HETATM    7  C   UNL     1     -10.389  10.143  67.415  1.00  0.00    -0.238 A  
HETATM    8  C   UNL     1      -8.869   8.241  67.365  1.00  0.00    -0.131 A  
HETATM    9  I   UNL     1      -8.106   6.390  68.192  1.00  0.00    -0.112 I  
HETATM   10  C   UNL     1      -9.041   9.735  65.420  1.00  0.00    -0.204 A  
HETATM   11  C   UNL     1     -10.026  10.499  66.085  1.00  0.00    -0.286 A  
HETATM   12  C   UNL     1      -9.861   8.988  68.048  1.00  0.00    -0.197 A  
HETATM   13  I   UNL     1      -8.485  10.139  63.350  1.00  0.00    -0.225 I  
BRANCH  12  14
HETATM   14  C   UNL     1     -10.252   8.600  69.442  1.00  0.00    -0.210 C  
HETATM   15  N   UNL     1      -9.457   9.048  70.479  1.00  0.00    -0.202 N  
HETATM   16  O   UNL     1     -11.240   7.898  69.628  1.00  0.00    -0.097 OA 
HETATM   17  H   UNL     1      -8.641   9.622  70.267  1.00  0.00     0.000 HD 
BRANCH  15  18
HETATM   18  C   UNL     1      -9.757   8.722  71.871  1.00  0.00    -0.316 C  
BRANCH  18  19
HETATM   19  C   UNL     1      -8.485   8.575  72.720  1.00  0.00    -0.087 C  
HETATM   20  H   UNL     1      -7.834   7.345  74.109  1.00  0.00     0.000 HD 
HETATM   21  O   UNL     1      -8.621   7.436  73.584  1.00  0.00    -0.142 OA 
BRANCH  19  22
HETATM   22  C   UNL     1      -7.230   8.439  71.841  1.00  0.00    -0.095 C  
HETATM   23  O   UNL     1      -6.738   9.711  71.423  1.00  0.00    -0.311 OA 
HETATM   24  H   UNL     1      -5.963   9.628  70.880  1.00  0.00     0.000 HD 
ENDBRANCH  19  22
ENDBRANCH  18  19
ENDBRANCH  15  18
ENDBRANCH  12  14
BRANCH  11  25
HETATM   25  C   UNL     1     -10.745  11.599  65.387  1.00  0.00    -0.287 C  
HETATM   26  O   UNL     1     -11.780  11.353  64.776  1.00  0.00    -0.032 OA 
HETATM   27  H   UNL     1      -9.349  13.016  66.000  1.00  0.00     0.000 HD 
HETATM   28  N   UNL     1     -10.193  12.868  65.447  1.00  0.00    -0.293 N  
BRANCH  28  29
HETATM   29  C   UNL     1     -10.782  13.991  64.743  1.00  0.00    -0.427 C  
BRANCH  29  30
HETATM   30  C   UNL     1     -11.740  14.747  65.653  1.00  0.00    -0.257 C  
HETATM   31  O   UNL     1     -11.148  14.898  66.945  1.00  0.00    -0.325 OA 
HETATM   32  H   UNL     1     -11.746  15.369  67.513  1.00  0.00     0.000 HD 
ENDBRANCH  29  30
ENDBRANCH  28  29
ENDBRANCH  11  25
ENDBRANCH   3   5
BRANCH   3  33
HETATM   33  C   UNL     1      -5.958   8.179  65.816  1.00  0.00    -0.041 C  
BRANCH  33  34
HETATM   34  C   UNL     1      -5.154   9.242  65.017  1.00  0.00    -0.040 C  
HETATM   35  O   UNL     1      -5.401   9.167  63.606  1.00  0.00    -0.061 OA 
HETATM   36  H   UNL     1      -4.910   9.817  63.117  1.00  0.00     0.000 HD 
BRANCH  34  37
HETATM   37  C   UNL     1      -5.468  10.679  65.472  1.00  0.00    -0.136 C  
HETATM   38  H   UNL     1      -5.897  11.621  67.161  1.00  0.00     0.000 HD 
HETATM   39  O   UNL     1      -5.703  10.734  66.880  1.00  0.00    -0.051 OA 
ENDBRANCH  34  37
ENDBRANCH  33  34
ENDBRANCH   3  33
TORSDOF 11
ENDMDL
MODEL      117
REMARK 921   NORMALIZED FREE ENERGY PREDICTED BY IDOCK:   -2.90 KCAL/MOL
REMARK 922        TOTAL FREE ENERGY PREDICTED BY IDOCK:   -5.38 KCAL/MOL
REMARK 923 INTER-LIGAND FREE ENERGY PREDICTED BY IDOCK:   -6.16 KCAL/MOL
REMARK 924 INTRA-LIGAND FREE ENERGY PREDICTED BY IDOCK:    0.78 KCAL/MOL
REMARK 927      BINDING AFFINITY PREDICTED BY RF-SCORE:    0.00 PKD
ROOT
HETATM    1  C   UNL     1      -8.349  10.102  64.448  1.00  0.00    -0.171 C  
HETATM    2  C   UNL     1      -8.991   9.759  65.763  1.00  0.00    -0.160 C  
HETATM    3  N   UNL     1      -8.670  10.550  66.870  1.00  0.00    -0.127 N  
HETATM    4  O   UNL     1      -9.797   8.828  65.822  1.00  0.00    -0.180 OA 
ENDROOT
BRANCH   3   5
HETATM    5  C   UNL     1      -9.289  10.161  68.103  1.00  0.00    -0.135 A  
HETATM    6  I   UNL     1     -11.697   8.344  72.049  1.00  0.00    -0.468 I  
HETATM    7  C   UNL     1     -10.528   9.277  70.471  1.00  0.00    -0.255 A  
HETATM    8  C   UNL     1     -10.404  10.868  68.631  1.00  0.00    -0.191 A  
HETATM    9  I   UNL     1     -11.026  12.694  67.646  1.00  0.00    -0.343 I  
HETATM   10  C   UNL     1      -8.725   9.083  68.834  1.00  0.00    -0.136 A  
HETATM   11  C   UNL     1      -9.345   8.624  70.018  1.00  0.00    -0.165 A  
HETATM   12  C   UNL     1     -11.038  10.431  69.820  1.00  0.00    -0.352 A  
HETATM   13  I   UNL     1      -6.860   8.214  68.111  1.00  0.00    -0.080 I  
BRANCH  12  14
HETATM   14  C   UNL     1     -12.272  11.130  70.302  1.00  0.00    -0.352 C  
HETATM   15  N   UNL     1     -12.108  12.214  71.142  1.00  0.00    -0.250 N  
HETATM   16  O   UNL     1     -13.378  10.727  69.959  1.00  0.00     0.070 OA 
HETATM   17  H   UNL     1     -11.165  12.502  71.404  1.00  0.00     0.000 HD 
BRANCH  15  18
HETATM   18  C   UNL     1     -13.251  12.959  71.665  1.00  0.00    -0.324 C  
BRANCH  18  19
HETATM   19  C   UNL     1     -13.183  14.452  71.310  1.00  0.00    -0.349 C  
HETATM   20  H   UNL     1     -14.267  16.053  71.669  1.00  0.00     0.000 HD 
HETATM   21  O   UNL     1     -14.309  15.129  71.889  1.00  0.00    -0.500 OA 
BRANCH  19  22
HETATM   22  C   UNL     1     -11.867  15.089  71.789  1.00  0.00    -0.388 C  
HETATM   23  O   UNL     1     -12.042  16.458  72.149  1.00  0.00    -0.579 OA 
HETATM   24  H   UNL     1     -11.230  16.851  72.444  1.00  0.00     0.000 HD 
ENDBRANCH  19  22
ENDBRANCH  18  19
ENDBRANCH  15  18
ENDBRANCH  12  14
BRANCH  11  25
HETATM   25  C   UNL     1      -8.734   7.543  70.836  1.00  0.00    -0.142 C  
HETATM   26  O   UNL     1      -8.332   7.794  71.969  1.00  0.00    -0.104 OA 
HETATM   27  H   UNL     1      -9.014   6.130  69.335  1.00  0.00     0.000 HD 
HETATM   28  N   UNL     1      -8.629   6.285  70.266  1.00  0.00    -0.136 N  
BRANCH  28  29
HETATM   29  C   UNL     1      -7.987   5.183  70.957  1.00  0.00    -0.102 C  
BRANCH  29  30
HETATM   30  C   UNL     1      -8.578   3.855  70.507  1.00  0.00    -0.070 C  
HETATM   31  O   UNL     1      -9.903   4.068  70.014  1.00  0.00    -0.210 OA 
HETATM   32  H   UNL     1     -10.272   3.239  69.733  1.00  0.00     0.000 HD 
ENDBRANCH  29  30
ENDBRANCH  28  29
ENDBRANCH  11  25
ENDBRANCH   3   5
BRANCH   3  33
HETATM   33  C   UNL     1      -7.616  11.605  66.905  1.00  0.00    -0.138 C  
BRANCH  33  34
HETATM   34  C   UNL     1      -7.979  12.945  67.602  1.00  0.00    -0.167 C  
HETATM   35  O   UNL     1      -7.368  13.072  68.894  1.00  0.00    -0.201 OA 
HETATM   36  H   UNL     1      -7.589  13.891  69.320  1.00  0.00     0.000 HD 
BRANCH  34  37
HETATM   37  C   UNL     1      -7.569  14.171  66.767  1.00  0.00     0.742 C  
HETATM   38  H   UNL     1      -8.200  16.027  66.481  1.00  0.00     0.000 HD 
HETATM   39  O   UNL     1      -8.453  15.270  66.996  1.00  0.00    -0.194 OA 
ENDBRANCH  34  37
ENDBRANCH  33  34
ENDBRANCH   3  33
TORSDOF 11
ENDMDL
MODEL      118
REMARK 921   NORMALIZED FREE ENERGY PREDICTED BY IDOCK:   -2.88 KCAL/MOL
REMARK 922        TOTAL FREE ENERGY PREDICTED BY IDOCK:   -5.34 KCAL/MOL
REMARK 923 INTER-LIGAND FREE ENERGY PREDICTED BY IDOCK:   -5.63 KCAL/MOL
REMARK 924 INTRA-LIGAND FREE ENERGY PREDICTED BY IDOCK:    0.29 KCAL/MOL
REMARK 927      BINDING AFFINITY PREDICTED BY RF-SCORE:    0.00 PKD
ROOT
HETATM    1  C   UNL     1      -6.876   3.699  67.360  1.00  0.00    -0.054 C  
HETATM    2  C   UNL     1      -7.726   4.914  67.606  1.00  0.00    -0.087 C  
HETATM    3  N   UNL     1      -7.244   5.876  68.498  1.00  0.00    -0.081 N  
HETATM    4  O   UNL     1      -8.791   5.045  66.998  1.00  0.00    -0.108 OA 
ENDROOT
BRANCH   3   5
HETATM    5  C   UNL     1      -8.108   6.999  68.716  1.00  0.00    -0.121 A  
HETATM    6  I   UNL     1     -11.477  10.636  69.034  1.00  0.00    -0.260 I  
HETATM    7  C   UNL     1      -9.903   9.136  69.086  1.00  0.00    -0.171 A  
HETATM    8  C   UNL     1      -7.804   8.284  68.190  1.00  0.00    -0.118 A  
HETATM    9  I   UNL     1      -5.887   8.576  67.227  1.00  0.00    -0.044 I  
HETATM   10  C   UNL     1      -9.257   6.823  69.532  1.00  0.00    -0.147 A  
HETATM   11  C   UNL     1     -10.170   7.886  69.715  1.00  0.00    -0.212 A  
HETATM   12  C   UNL     1      -8.701   9.367  68.367  1.00  0.00    -0.124 A  
HETATM   13  I   UNL     1      -9.525   4.902  70.529  1.00  0.00    -0.286 I  
BRANCH  12  14
HETATM   14  C   UNL     1      -8.409  10.685  67.717  1.00  0.00    -0.115 C  
HETATM   15  N   UNL     1      -7.818  11.664  68.491  1.00  0.00    -0.136 N  
HETATM   16  O   UNL     1      -8.707  10.868  66.541  1.00  0.00    -0.152 OA 
HETATM   17  H   UNL     1      -7.600  11.462  69.467  1.00  0.00     0.000 HD 
BRANCH  15  18
HETATM   18  C   UNL     1      -7.496  12.982  67.948  1.00  0.00    -0.137 C  
BRANCH  18  19
HETATM   19  C   UNL     1      -6.285  13.618  68.646  1.00  0.00    -0.088 C  
HETATM   20  H   UNL     1      -4.785  14.776  68.122  1.00  0.00     0.000 HD 
HETATM   21  O   UNL     1      -5.534  14.382  67.690  1.00  0.00    -0.314 OA 
BRANCH  19  22
HETATM   22  C   UNL     1      -6.714  14.506  69.828  1.00  0.00    -0.150 C  
HETATM   23  O   UNL     1      -6.414  13.897  71.082  1.00  0.00    -0.469 OA 
HETATM   24  H   UNL     1      -6.679  14.444  71.811  1.00  0.00     0.000 HD 
ENDBRANCH  19  22
ENDBRANCH  18  19
ENDBRANCH  15  18
ENDBRANCH  12  14
BRANCH  11  25
HETATM   25  C   UNL     1     -11.342   7.744  70.620  1.00  0.00    -0.264 C  
HETATM   26  O   UNL     1     -12.230   6.945  70.339  1.00  0.00    -0.293 OA 
HETATM   27  H   UNL     1     -10.597   9.164  71.947  1.00  0.00     0.000 HD 
HETATM   28  N   UNL     1     -11.384   8.546  71.748  1.00  0.00    -0.285 N  
BRANCH  28  29
HETATM   29  C   UNL     1     -12.515   8.530  72.656  1.00  0.00    -0.211 C  
BRANCH  29  30
HETATM   30  C   UNL     1     -13.656   9.371  72.100  1.00  0.00    -0.457 C  
HETATM   31  O   UNL     1     -13.378  10.755  72.323  1.00  0.00    -0.623 OA 
HETATM   32  H   UNL     1     -14.089  11.280  71.976  1.00  0.00     0.000 HD 
ENDBRANCH  29  30
ENDBRANCH  28  29
ENDBRANCH  11  25
ENDBRANCH   3   5
BRANCH   3  33
HETATM   33  C   UNL     1      -6.036   5.731  69.361  1.00  0.00    -0.031 C  
BRANCH  33  34
HETATM   34  C   UNL     1      -6.218   4.988  70.713  1.00  0.00    -0.019 C  
HETATM   35  O   UNL     1      -5.630   3.679  70.701  1.00  0.00    -0.011 OA 
HETATM   36  H   UNL     1      -5.740   3.225  71.528  1.00  0.00     0.000 HD 
BRANCH  34  37
HETATM   37  C   UNL     1      -5.610   5.763  71.896  1.00  0.00    -0.022 C  
HETATM   38  H   UNL     1      -5.622   7.617  72.594  1.00  0.00     0.000 HD 
HETATM   39  O   UNL     1      -5.998   7.139  71.864  1.00  0.00    -0.037 OA 
ENDBRANCH  34  37
ENDBRANCH  33  34
ENDBRANCH   3  33
TORSDOF 11
ENDMDL
MODEL      119
REMARK 921   NORMALIZED FREE ENERGY PREDICTED BY IDOCK:   -2.80 KCAL/MOL
REMARK 922        TOTAL FREE ENERGY PREDICTED BY IDOCK:   -5.22 KCAL/MOL
REMARK 923 INTER-LIGAND FREE ENERGY PREDICTED BY IDOCK:   -5.93 KCAL/MOL
REMARK 924 INTRA-LIGAND FREE ENERGY PREDICTED BY IDOCK:    0.71 KCAL/MOL
REMARK 927      BINDING AFFINITY PREDICTED BY RF-SCORE:    0.00 PKD
ROOT
HETATM    1  C   UNL     1      -7.522   7.986  69.873  1.00  0.00    -0.078 C  
HETATM    2  C   UNL     1      -8.009   9.388  69.633  1.00  0.00    -0.109 C  
HETATM    3  N   UNL     1      -7.497  10.076  68.530  1.00  0.00    -0.084 N  
HETATM    4  O   UNL     1      -8.861   9.872  70.383  1.00  0.00    -0.141 OA 
ENDROOT
BRANCH   3   5
HETATM    5  C   UNL     1      -7.976  11.417  68.367  1.00  0.00    -0.142 A  
HETATM    6  I   UNL     1      -9.470  16.008  67.197  1.00  0.00    -0.255 I  
HETATM    7  C   UNL     1      -8.923  14.030  67.915  1.00  0.00    -0.188 A  
HETATM    8  C   UNL     1      -7.224  12.535  68.818  1.00  0.00    -0.089 A  
HETATM    9  I   UNL     1      -5.423  12.171  69.964  1.00  0.00    -0.154 I  
HETATM   10  C   UNL     1      -9.262  11.614  67.797  1.00  0.00    -0.178 A  
HETATM   11  C   UNL     1      -9.741  12.920  67.556  1.00  0.00    -0.205 A  
HETATM   12  C   UNL     1      -7.688  13.855  68.594  1.00  0.00    -0.128 A  
HETATM   13  I   UNL     1     -10.479   9.853  67.373  1.00  0.00    -0.292 I  
BRANCH  12  14
HETATM   14  C   UNL     1      -6.831  15.019  68.988  1.00  0.00    -0.118 C  
HETATM   15  N   UNL     1      -6.010  15.566  68.021  1.00  0.00    -0.128 N  
HETATM   16  O   UNL     1      -6.866  15.445  70.138  1.00  0.00    -0.100 OA 
HETATM   17  H   UNL     1      -6.013  15.167  67.082  1.00  0.00     0.000 HD 
BRANCH  15  18
HETATM   18  C   UNL     1      -5.137  16.702  68.310  1.00  0.00    -0.108 C  
BRANCH  18  19
HETATM   19  C   UNL     1      -5.823  18.048  68.031  1.00  0.00    -0.163 C  
HETATM   20  H   UNL     1      -5.627  19.903  68.653  1.00  0.00     0.000 HD 
HETATM   21  O   UNL     1      -5.202  19.071  68.826  1.00  0.00    -0.190 OA 
BRANCH  19  22
HETATM   22  C   UNL     1      -5.764  18.415  66.538  1.00  0.00    -0.150 C  
HETATM   23  O   UNL     1      -6.637  17.600  65.759  1.00  0.00    -0.226 OA 
HETATM   24  H   UNL     1      -6.601  17.826  64.837  1.00  0.00     0.000 HD 
ENDBRANCH  19  22
ENDBRANCH  18  19
ENDBRANCH  15  18
ENDBRANCH  12  14
BRANCH  11  25
HETATM   25  C   UNL     1     -11.112  13.150  67.025  1.00  0.00    -0.279 C  
HETATM   26  O   UNL     1     -12.027  13.408  67.802  1.00  0.00    -0.351 OA 
HETATM   27  H   UNL     1     -10.492  12.862  65.060  1.00  0.00     0.000 HD 
HETATM   28  N   UNL     1     -11.298  13.043  65.657  1.00  0.00    -0.294 N  
BRANCH  28  29
HETATM   29  C   UNL     1     -12.609  13.182  65.051  1.00  0.00    -0.438 C  
BRANCH  29  30
HETATM   30  C   UNL     1     -12.497  13.181  63.533  1.00  0.00    -0.278 C  
HETATM   31  O   UNL     1     -11.326  12.460  63.144  1.00  0.00    -0.681 OA 
HETATM   32  H   UNL     1     -11.255  12.459  62.196  1.00  0.00     0.000 HD 
ENDBRANCH  29  30
ENDBRANCH  28  29
ENDBRANCH  11  25
ENDBRANCH   3   5
BRANCH   3  33
HETATM   33  C   UNL     1      -6.380   9.608  67.659  1.00  0.00    -0.057 C  
BRANCH  33  34
HETATM   34  C   UNL     1      -6.766   8.846  66.362  1.00  0.00    -0.074 C  
HETATM   35  O   UNL     1      -5.818   7.823  66.026  1.00  0.00    -0.036 OA 
HETATM   36  H   UNL     1      -6.054   7.357  65.233  1.00  0.00     0.000 HD 
BRANCH  34  37
HETATM   37  C   UNL     1      -8.153   8.185  66.459  1.00  0.00    -0.106 C  
HETATM   38  H   UNL     1      -9.010   6.488  65.904  1.00  0.00     0.000 HD 
HETATM   39  O   UNL     1      -8.153   6.895  65.844  1.00  0.00    -0.106 OA 
ENDBRANCH  34  37
ENDBRANCH  33  34
ENDBRANCH   3  33
TORSDOF 11
ENDMDL
MODEL      120
REMARK 921   NORMALIZED FREE ENERGY PREDICTED BY IDOCK:   -2.79 KCAL/MOL
REMARK 922        TOTAL FREE ENERGY PREDICTED BY IDOCK:   -5.19 KCAL/MOL
REMARK 923 INTER-LIGAND FREE ENERGY PREDICTED BY IDOCK:   -4.50 KCAL/MOL
REMARK 924 INTRA-LIGAND FREE ENERGY PREDICTED BY IDOCK:   -0.70 KCAL/MOL
REMARK 927      BINDING AFFINITY PREDICTED BY RF-SCORE:    0.00 PKD
ROOT
HETATM    1  C   UNL     1      -7.824   8.515  73.141  1.00  0.00    -0.056 C  
HETATM    2  C   UNL     1      -7.622   7.986  71.749  1.00  0.00    -0.086 C  
HETATM    3  N   UNL     1      -8.706   8.040  70.868  1.00  0.00    -0.134 N  
HETATM    4  O   UNL     1      -6.514   7.559  71.415  1.00  0.00    -0.036 OA 
ENDROOT
BRANCH   3   5
HETATM    5  C   UNL     1      -8.465   7.496  69.564  1.00  0.00    -0.132 A  
HETATM    6  I   UNL     1      -8.204   5.815  64.897  1.00  0.00    -0.054 I  
HETATM    7  C   UNL     1      -8.090   6.504  66.956  1.00  0.00    -0.113 A  
HETATM    8  C   UNL     1      -8.527   6.098  69.318  1.00  0.00    -0.119 A  
HETATM    9  I   UNL     1      -8.782   4.765  71.006  1.00  0.00    -0.166 I  
HETATM   10  C   UNL     1      -8.093   8.382  68.518  1.00  0.00    -0.123 A  
HETATM   11  C   UNL     1      -7.913   7.895  67.204  1.00  0.00    -0.117 A  
HETATM   12  C   UNL     1      -8.343   5.586  68.010  1.00  0.00    -0.099 A  
HETATM   13  I   UNL     1      -7.751  10.478  69.018  1.00  0.00    -0.135 I  
BRANCH  12  14
HETATM   14  C   UNL     1      -8.514   4.119  67.756  1.00  0.00    -0.098 C  
HETATM   15  N   UNL     1      -7.379   3.332  67.756  1.00  0.00    -0.054 N  
HETATM   16  O   UNL     1      -9.632   3.660  67.546  1.00  0.00    -0.202 OA 
HETATM   17  H   UNL     1      -6.473   3.768  67.927  1.00  0.00     0.000 HD 
BRANCH  15  18
HETATM   18  C   UNL     1      -7.445   1.892  67.517  1.00  0.00    -0.055 C  
BRANCH  18  19
HETATM   19  C   UNL     1      -7.101   1.528  66.065  1.00  0.00    -0.050 C  
HETATM   20  H   UNL     1      -7.770   2.009  64.279  1.00  0.00     0.000 HD 
HETATM   21  O   UNL     1      -7.983   2.234  65.177  1.00  0.00    -0.076 OA 
BRANCH  19  22
HETATM   22  C   UNL     1      -5.633   1.846  65.733  1.00  0.00    -0.013 C  
HETATM   23  O   UNL     1      -5.503   3.097  65.061  1.00  0.00    -0.009 OA 
HETATM   24  H   UNL     1      -4.597   3.294  64.856  1.00  0.00     0.000 HD 
ENDBRANCH  19  22
ENDBRANCH  18  19
ENDBRANCH  15  18
ENDBRANCH  12  14
BRANCH  11  25
HETATM   25  C   UNL     1      -7.456   8.793  66.109  1.00  0.00    -0.090 C  
HETATM   26  O   UNL     1      -6.258   8.877  65.856  1.00  0.00    -0.054 OA 
HETATM   27  H   UNL     1      -9.402   9.377  65.659  1.00  0.00     0.000 HD 
HETATM   28  N   UNL     1      -8.418   9.517  65.426  1.00  0.00    -0.140 N  
BRANCH  28  29
HETATM   29  C   UNL     1      -8.067  10.468  64.389  1.00  0.00    -0.042 C  
BRANCH  29  30
HETATM   30  C   UNL     1      -9.313  10.934  63.649  1.00  0.00    -0.262 C  
HETATM   31  O   UNL     1     -10.148   9.807  63.370  1.00  0.00    -0.296 OA 
HETATM   32  H   UNL     1     -10.926  10.098  62.908  1.00  0.00     0.000 HD 
ENDBRANCH  29  30
ENDBRANCH  28  29
ENDBRANCH  11  25
ENDBRANCH   3   5
BRANCH   3  33
HETATM   33  C   UNL     1     -10.101   8.421  71.233  1.00  0.00    -0.202 C  
BRANCH  33  34
HETATM   34  C   UNL     1     -11.013   7.302  71.808  1.00  0.00    -0.227 C  
HETATM   35  O   UNL     1     -11.485   7.607  73.129  1.00  0.00    -0.604 OA 
HETATM   36  H   UNL     1     -12.043   6.923  73.480  1.00  0.00     0.000 HD 
BRANCH  34  37
HETATM   37  C   UNL     1     -12.243   7.033  70.922  1.00  0.00    -0.342 C  
HETATM   38  H   UNL     1     -12.616   6.328  69.108  1.00  0.00     0.000 HD 
HETATM   39  O   UNL     1     -11.857   6.494  69.656  1.00  0.00    -0.310 OA 
ENDBRANCH  34  37
ENDBRANCH  33  34
ENDBRANCH   3  33
TORSDOF 11
ENDMDL
MODEL      121
REMARK 921   NORMALIZED FREE ENERGY PREDICTED BY IDOCK:   -2.74 KCAL/MOL
REMARK 922        TOTAL FREE ENERGY PREDICTED BY IDOCK:   -5.11 KCAL/MOL
REMARK 923 INTER-LIGAND FREE ENERGY PREDICTED BY IDOCK:   -3.95 KCAL/MOL
REMARK 924 INTRA-LIGAND FREE ENERGY PREDICTED BY IDOCK:   -1.16 KCAL/MOL
REMARK 927      BINDING AFFINITY PREDICTED BY RF-SCORE:    0.00 PKD
ROOT
HETATM    1  C   UNL     1     -10.765   4.789  65.336  1.00  0.00    -0.085 C  
HETATM    2  C   UNL     1     -10.293   5.487  66.580  1.00  0.00    -0.269 C  
HETATM    3  N   UNL     1      -8.916   5.646  66.755  1.00  0.00    -0.114 N  
HETATM    4  O   UNL     1     -11.121   5.926  67.383  1.00  0.00    -0.247 OA 
ENDROOT
BRANCH   3   5
HETATM    5  C   UNL     1      -8.522   6.293  67.972  1.00  0.00    -0.117 A  
HETATM    6  I   UNL     1      -6.568   8.483  71.979  1.00  0.00    -0.026 I  
HETATM    7  C   UNL     1      -7.633   7.592  70.306  1.00  0.00    -0.090 A  
HETATM    8  C   UNL     1      -8.497   5.595  69.211  1.00  0.00    -0.106 A  
HETATM    9  I   UNL     1      -9.278   3.576  69.272  1.00  0.00    -0.194 I  
HETATM   10  C   UNL     1      -8.214   7.678  67.936  1.00  0.00    -0.123 A  
HETATM   11  C   UNL     1      -7.757   8.337  69.099  1.00  0.00    -0.097 A  
HETATM   12  C   UNL     1      -8.048   6.237  70.391  1.00  0.00    -0.116 A  
HETATM   13  I   UNL     1      -8.531   8.752  66.063  1.00  0.00    -0.191 I  
BRANCH  12  14
HETATM   14  C   UNL     1      -7.934   5.453  71.664  1.00  0.00    -0.116 C  
HETATM   15  N   UNL     1      -8.981   5.532  72.561  1.00  0.00    -0.134 N  
HETATM   16  O   UNL     1      -6.931   4.784  71.883  1.00  0.00    -0.055 OA 
HETATM   17  H   UNL     1      -9.789   6.112  72.333  1.00  0.00     0.000 HD 
BRANCH  15  18
HETATM   18  C   UNL     1      -8.962   4.806  73.829  1.00  0.00    -0.106 C  
BRANCH  18  19
HETATM   19  C   UNL     1     -10.133   3.820  73.952  1.00  0.00    -0.133 C  
HETATM   20  H   UNL     1     -12.040   3.807  73.472  1.00  0.00     0.000 HD 
HETATM   21  O   UNL     1     -11.315   4.417  73.396  1.00  0.00    -0.300 OA 
BRANCH  19  22
HETATM   22  C   UNL     1      -9.825   2.484  73.255  1.00  0.00    -0.101 C  
HETATM   23  O   UNL     1      -8.431   2.334  72.992  1.00  0.00    -0.064 OA 
HETATM   24  H   UNL     1      -8.241   1.509  72.562  1.00  0.00     0.000 HD 
ENDBRANCH  19  22
ENDBRANCH  18  19
ENDBRANCH  15  18
ENDBRANCH  12  14
BRANCH  11  25
HETATM   25  C   UNL     1      -7.496   9.802  69.099  1.00  0.00    -0.082 C  
HETATM   26  O   UNL     1      -8.373  10.572  69.477  1.00  0.00    -0.144 OA 
HETATM   27  H   UNL     1      -5.559   9.544  68.382  1.00  0.00     0.000 HD 
HETATM   28  N   UNL     1      -6.260  10.235  68.650  1.00  0.00    -0.047 N  
BRANCH  28  29
HETATM   29  C   UNL     1      -5.935  11.645  68.548  1.00  0.00    -0.049 C  
BRANCH  29  30
HETATM   30  C   UNL     1      -5.166  11.924  67.264  1.00  0.00    -0.109 C  
HETATM   31  O   UNL     1      -6.072  11.920  66.158  1.00  0.00    -0.464 OA 
HETATM   32  H   UNL     1      -5.592  12.094  65.357  1.00  0.00     0.000 HD 
ENDBRANCH  29  30
ENDBRANCH  28  29
ENDBRANCH  11  25
ENDBRANCH   3   5
BRANCH   3  33
HETATM   33  C   UNL     1      -7.858   5.036  65.899  1.00  0.00    -0.092 C  
BRANCH  33  34
HETATM   34  C   UNL     1      -7.475   3.559  66.191  1.00  0.00    -0.077 C  
HETATM   35  O   UNL     1      -7.516   2.741  65.013  1.00  0.00    -0.069 OA 
HETATM   36  H   UNL     1      -7.282   1.837  65.191  1.00  0.00     0.000 HD 
BRANCH  34  37
HETATM   37  C   UNL     1      -6.070   3.426  66.805  1.00  0.00    -0.024 C  
HETATM   38  H   UNL     1      -4.471   4.567  67.067  1.00  0.00     0.000 HD 
HETATM   39  O   UNL     1      -5.339   4.649  66.689  1.00  0.00    -0.011 OA 
ENDBRANCH  34  37
ENDBRANCH  33  34
ENDBRANCH   3  33
TORSDOF 11
ENDMDL
MODEL      122
REMARK 921   NORMALIZED FREE ENERGY PREDICTED BY IDOCK:   -2.72 KCAL/MOL
REMARK 922        TOTAL FREE ENERGY PREDICTED BY IDOCK:   -5.07 KCAL/MOL
REMARK 923 INTER-LIGAND FREE ENERGY PREDICTED BY IDOCK:   -3.87 KCAL/MOL
REMARK 924 INTRA-LIGAND FREE ENERGY PREDICTED BY IDOCK:   -1.20 KCAL/MOL
REMARK 927      BINDING AFFINITY PREDICTED BY RF-SCORE:    0.00 PKD
ROOT
HETATM    1  C   UNL     1     -11.481  16.816  70.489  1.00  0.00     0.403 C  
HETATM    2  C   UNL     1     -10.825  15.599  69.898  1.00  0.00    -0.318 C  
HETATM    3  N   UNL     1      -9.896  15.794  68.873  1.00  0.00    -0.211 N  
HETATM    4  O   UNL     1     -11.093  14.483  70.351  1.00  0.00    -0.139 OA 
ENDROOT
BRANCH   3   5
HETATM    5  C   UNL     1      -9.323  14.597  68.329  1.00  0.00    -0.199 A  
HETATM    6  I   UNL     1      -6.960  10.830  66.116  1.00  0.00     0.006 I  
HETATM    7  C   UNL     1      -8.094  12.319  67.223  1.00  0.00    -0.182 A  
HETATM    8  C   UNL     1      -9.991  13.844  67.325  1.00  0.00    -0.242 A  
HETATM    9  I   UNL     1     -12.006  14.415  66.777  1.00  0.00    -0.139 I  
HETATM   10  C   UNL     1      -8.091  14.132  68.859  1.00  0.00    -0.034 A  
HETATM   11  C   UNL     1      -7.461  12.996  68.305  1.00  0.00    -0.128 A  
HETATM   12  C   UNL     1      -9.381  12.697  66.758  1.00  0.00    -0.232 A  
HETATM   13  I   UNL     1      -7.252  15.179  70.579  1.00  0.00     1.483 I  
BRANCH  12  14
HETATM   14  C   UNL     1     -10.057  11.978  65.631  1.00  0.00    -0.243 C  
HETATM   15  N   UNL     1      -9.726  12.350  64.343  1.00  0.00    -0.520 N  
HETATM   16  O   UNL     1     -10.883  11.103  65.871  1.00  0.00    -0.240 OA 
HETATM   17  H   UNL     1      -9.039  13.091  64.201  1.00  0.00     0.000 HD 
BRANCH  15  18
HETATM   18  C   UNL     1     -10.333  11.708  63.179  1.00  0.00    -0.334 C  
BRANCH  18  19
HETATM   19  C   UNL     1      -9.304  10.936  62.338  1.00  0.00    -0.211 C  
HETATM   20  H   UNL     1      -7.419  11.168  61.829  1.00  0.00     0.000 HD 
HETATM   21  O   UNL     1      -8.055  11.645  62.349  1.00  0.00    -0.113 OA 
BRANCH  19  22
HETATM   22  C   UNL     1      -9.113   9.500  62.856  1.00  0.00    -0.155 C  
HETATM   23  O   UNL     1      -9.878   9.257  64.034  1.00  0.00    -0.088 OA 
HETATM   24  H   UNL     1      -9.761   8.370  64.354  1.00  0.00     0.000 HD 
ENDBRANCH  19  22
ENDBRANCH  18  19
ENDBRANCH  15  18
ENDBRANCH  12  14
BRANCH  11  25
HETATM   25  C   UNL     1      -6.206  12.451  68.890  1.00  0.00    -0.079 C  
HETATM   26  O   UNL     1      -5.127  12.941  68.572  1.00  0.00    -0.058 OA 
HETATM   27  H   UNL     1      -7.243  11.048  70.024  1.00  0.00     0.000 HD 
HETATM   28  N   UNL     1      -6.316  11.388  69.771  1.00  0.00    -0.127 N  
BRANCH  28  29
HETATM   29  C   UNL     1      -5.148  10.744  70.341  1.00  0.00    -0.061 C  
BRANCH  29  30
HETATM   30  C   UNL     1      -5.555   9.515  71.141  1.00  0.00    -0.064 C  
HETATM   31  O   UNL     1      -5.881   9.905  72.477  1.00  0.00    -0.292 OA 
HETATM   32  H   UNL     1      -6.135   9.137  72.977  1.00  0.00     0.000 HD 
ENDBRANCH  29  30
ENDBRANCH  28  29
ENDBRANCH  11  25
ENDBRANCH   3   5
BRANCH   3  33
HETATM   33  C   UNL     1      -9.616  17.090  68.191  1.00  0.00    -0.266 C  
BRANCH  33  34
HETATM   34  C   UNL     1      -8.544  17.081  67.066  1.00  0.00    -0.210 C  
HETATM   35  O   UNL     1      -9.104  17.366  65.776  1.00  0.00    -0.517 OA 
HETATM   36  H   UNL     1      -8.449  17.361  65.088  1.00  0.00     0.000 HD 
BRANCH  34  37
HETATM   37  C   UNL     1      -7.416  18.097  67.322  1.00  0.00    -0.211 C  
HETATM   38  H   UNL     1      -5.538  18.375  66.754  1.00  0.00     0.000 HD 
HETATM   39  O   UNL     1      -6.235  17.748  66.596  1.00  0.00    -0.145 OA 
ENDBRANCH  34  37
ENDBRANCH  33  34
ENDBRANCH   3  33
TORSDOF 11
ENDMDL
MODEL      123
REMARK 921   NORMALIZED FREE ENERGY PREDICTED BY IDOCK:   -2.71 KCAL/MOL
REMARK 922        TOTAL FREE ENERGY PREDICTED BY IDOCK:   -5.06 KCAL/MOL
REMARK 923 INTER-LIGAND FREE ENERGY PREDICTED BY IDOCK:   -4.42 KCAL/MOL
REMARK 924 INTRA-LIGAND FREE ENERGY PREDICTED BY IDOCK:   -0.64 KCAL/MOL
REMARK 927      BINDING AFFINITY PREDICTED BY RF-SCORE:    0.00 PKD
ROOT
HETATM    1  C   UNL     1      -8.285   6.890  70.712  1.00  0.00    -0.122 C  
HETATM    2  C   UNL     1      -8.514   8.321  70.311  1.00  0.00    -0.125 C  
HETATM    3  N   UNL     1      -7.995   8.744  69.084  1.00  0.00    -0.107 N  
HETATM    4  O   UNL     1      -9.172   9.061  71.046  1.00  0.00    -0.226 OA 
ENDROOT
BRANCH   3   5
HETATM    5  C   UNL     1      -8.218  10.124  68.767  1.00  0.00    -0.113 A  
HETATM    6  I   UNL     1      -8.863  14.749  67.073  1.00  0.00    -0.243 I  
HETATM    7  C   UNL     1      -8.672  12.799  68.017  1.00  0.00    -0.194 A  
HETATM    8  C   UNL     1      -7.253  11.122  69.069  1.00  0.00    -0.118 A  
HETATM    9  I   UNL     1      -5.511  10.554  70.223  1.00  0.00    -0.095 I  
HETATM   10  C   UNL     1      -9.464  10.496  68.197  1.00  0.00    -0.151 A  
HETATM   11  C   UNL     1      -9.698  11.834  67.807  1.00  0.00    -0.185 A  
HETATM   12  C   UNL     1      -7.468  12.471  68.693  1.00  0.00    -0.090 A  
HETATM   13  I   UNL     1     -11.007   8.965  68.007  1.00  0.00     0.627 I  
BRANCH  12  14
HETATM   14  C   UNL     1      -6.392  13.487  68.930  1.00  0.00    -0.098 C  
HETATM   15  N   UNL     1      -6.527  14.320  70.024  1.00  0.00    -0.243 N  
HETATM   16  O   UNL     1      -5.442  13.566  68.158  1.00  0.00    -0.091 OA 
HETATM   17  H   UNL     1      -7.342  14.218  70.629  1.00  0.00     0.000 HD 
BRANCH  15  18
HETATM   18  C   UNL     1      -5.531  15.342  70.337  1.00  0.00    -0.137 C  
BRANCH  18  19
HETATM   19  C   UNL     1      -5.135  15.333  71.822  1.00  0.00    -0.104 C  
HETATM   20  H   UNL     1      -5.065  16.645  73.285  1.00  0.00     0.000 HD 
HETATM   21  O   UNL     1      -5.309  16.651  72.367  1.00  0.00     0.299 OA 
BRANCH  19  22
HETATM   22  C   UNL     1      -5.957  14.307  72.621  1.00  0.00     0.377 C  
HETATM   23  O   UNL     1      -5.133  13.276  73.161  1.00  0.00    -0.344 OA 
HETATM   24  H   UNL     1      -5.640  12.642  73.654  1.00  0.00     0.000 HD 
ENDBRANCH  19  22
ENDBRANCH  18  19
ENDBRANCH  15  18
ENDBRANCH  12  14
BRANCH  11  25
HETATM   25  C   UNL     1     -11.020  12.258  67.272  1.00  0.00    -0.256 C  
HETATM   26  O   UNL     1     -11.925  12.540  68.051  1.00  0.00    -0.342 OA 
HETATM   27  H   UNL     1     -10.374  12.089  65.301  1.00  0.00     0.000 HD 
HETATM   28  N   UNL     1     -11.174  12.300  65.897  1.00  0.00    -0.325 N  
BRANCH  28  29
HETATM   29  C   UNL     1     -12.444  12.636  65.280  1.00  0.00    -0.416 C  
BRANCH  29  30
HETATM   30  C   UNL     1     -12.397  12.365  63.783  1.00  0.00    -0.528 C  
HETATM   31  O   UNL     1     -11.563  11.232  63.531  1.00  0.00    -0.622 OA 
HETATM   32  H   UNL     1     -11.533  11.063  62.597  1.00  0.00     0.000 HD 
ENDBRANCH  29  30
ENDBRANCH  28  29
ENDBRANCH  11  25
ENDBRANCH   3   5
BRANCH   3  33
HETATM   33  C   UNL     1      -7.088   7.950  68.207  1.00  0.00    -0.088 C  
BRANCH  33  34
HETATM   34  C   UNL     1      -7.741   7.176  67.029  1.00  0.00    -0.107 C  
HETATM   35  O   UNL     1      -7.273   7.629  65.750  1.00  0.00    -0.063 OA 
HETATM   36  H   UNL     1      -7.673   7.155  65.030  1.00  0.00     0.000 HD 
BRANCH  34  37
HETATM   37  C   UNL     1      -7.487   5.659  67.110  1.00  0.00    -0.084 C  
HETATM   38  H   UNL     1      -8.560   3.996  67.188  1.00  0.00     0.000 HD 
HETATM   39  O   UNL     1      -8.717   4.932  67.137  1.00  0.00    -0.105 OA 
ENDBRANCH  34  37
ENDBRANCH  33  34
ENDBRANCH   3  33
TORSDOF 11
ENDMDL
MODEL      124
REMARK 921   NORMALIZED FREE ENERGY PREDICTED BY IDOCK:   -2.70 KCAL/MOL
REMARK 922        TOTAL FREE ENERGY PREDICTED BY IDOCK:   -5.05 KCAL/MOL
REMARK 923 INTER-LIGAND FREE ENERGY PREDICTED BY IDOCK:   -4.98 KCAL/MOL
REMARK 924 INTRA-LIGAND FREE ENERGY PREDICTED BY IDOCK:   -0.07 KCAL/MOL
REMARK 927      BINDING AFFINITY PREDICTED BY RF-SCORE:    0.00 PKD
ROOT
HETATM    1  C   UNL     1      -5.727   5.464  73.241  1.00  0.00    -0.023 C  
HETATM    2  C   UNL     1      -6.185   6.106  71.962  1.00  0.00    -0.042 C  
HETATM    3  N   UNL     1      -7.378   5.648  71.394  1.00  0.00    -0.080 N  
HETATM    4  O   UNL     1      -5.527   7.028  71.475  1.00  0.00    -0.034 OA 
ENDROOT
BRANCH   3   5
HETATM    5  C   UNL     1      -7.751   6.276  70.161  1.00  0.00    -0.098 A  
HETATM    6  I   UNL     1      -8.433   8.561  65.804  1.00  0.00    -0.203 I  
HETATM    7  C   UNL     1      -8.360   7.498  67.699  1.00  0.00    -0.118 A  
HETATM    8  C   UNL     1      -8.327   7.575  70.133  1.00  0.00    -0.134 A  
HETATM    9  I   UNL     1      -8.837   8.517  72.016  1.00  0.00    -0.120 I  
HETATM   10  C   UNL     1      -7.596   5.546  68.953  1.00  0.00    -0.087 A  
HETATM   11  C   UNL     1      -7.888   6.153  67.712  1.00  0.00    -0.105 A  
HETATM   12  C   UNL     1      -8.634   8.202  68.900  1.00  0.00    -0.130 A  
HETATM   13  I   UNL     1      -6.963   3.462  69.085  1.00  0.00    -0.045 I  
BRANCH  12  14
HETATM   14  C   UNL     1      -9.145   9.611  68.892  1.00  0.00    -0.144 C  
HETATM   15  N   UNL     1     -10.493   9.803  68.660  1.00  0.00    -0.201 N  
HETATM   16  O   UNL     1      -8.370  10.544  69.073  1.00  0.00    -0.136 OA 
HETATM   17  H   UNL     1     -11.091   8.991  68.506  1.00  0.00     0.000 HD 
BRANCH  15  18
HETATM   18  C   UNL     1     -11.083  11.139  68.632  1.00  0.00    -0.239 C  
BRANCH  18  19
HETATM   19  C   UNL     1     -10.958  11.800  67.251  1.00  0.00    -0.267 C  
HETATM   20  H   UNL     1     -12.159  12.734  66.005  1.00  0.00     0.000 HD 
HETATM   21  O   UNL     1     -12.236  12.325  66.859  1.00  0.00    -0.530 OA 
BRANCH  19  22
HETATM   22  C   UNL     1      -9.895  12.913  67.250  1.00  0.00    -0.218 C  
HETATM   23  O   UNL     1      -8.707  12.506  66.575  1.00  0.00    -0.374 OA 
HETATM   24  H   UNL     1      -8.051  13.193  66.574  1.00  0.00     0.000 HD 
ENDBRANCH  19  22
ENDBRANCH  18  19
ENDBRANCH  15  18
ENDBRANCH  12  14
BRANCH  11  25
HETATM   25  C   UNL     1      -7.800   5.385  66.441  1.00  0.00    -0.100 C  
HETATM   26  O   UNL     1      -6.702   5.185  65.930  1.00  0.00    -0.050 OA 
HETATM   27  H   UNL     1      -9.861   5.103  66.367  1.00  0.00     0.000 HD 
HETATM   28  N   UNL     1      -8.982   4.937  65.876  1.00  0.00    -0.129 N  
BRANCH  28  29
HETATM   29  C   UNL     1      -9.006   4.238  64.605  1.00  0.00    -0.146 C  
BRANCH  29  30
HETATM   30  C   UNL     1     -10.398   3.690  64.324  1.00  0.00    -0.227 C  
HETATM   31  O   UNL     1     -10.427   3.116  63.016  1.00  0.00    -0.151 OA 
HETATM   32  H   UNL     1     -11.296   2.773  62.841  1.00  0.00     0.000 HD 
ENDBRANCH  29  30
ENDBRANCH  28  29
ENDBRANCH  11  25
ENDBRANCH   3   5
BRANCH   3  33
HETATM   33  C   UNL     1      -8.156   4.461  71.852  1.00  0.00    -0.098 C  
BRANCH  33  34
HETATM   34  C   UNL     1      -9.343   4.723  72.819  1.00  0.00    -0.128 C  
HETATM   35  O   UNL     1      -9.015   5.675  73.841  1.00  0.00    -0.126 OA 
HETATM   36  H   UNL     1      -9.741   5.836  74.432  1.00  0.00     0.000 HD 
BRANCH  34  37
HETATM   37  C   UNL     1     -10.596   5.236  72.086  1.00  0.00    -0.221 C  
HETATM   38  H   UNL     1     -12.477   5.671  72.528  1.00  0.00     0.000 HD 
HETATM   39  O   UNL     1     -11.704   5.355  72.981  1.00  0.00    -0.275 OA 
ENDBRANCH  34  37
ENDBRANCH  33  34
ENDBRANCH   3  33
TORSDOF 11
ENDMDL
MODEL      125
REMARK 921   NORMALIZED FREE ENERGY PREDICTED BY IDOCK:   -2.69 KCAL/MOL
REMARK 922        TOTAL FREE ENERGY PREDICTED BY IDOCK:   -5.03 KCAL/MOL
REMARK 923 INTER-LIGAND FREE ENERGY PREDICTED BY IDOCK:   -6.41 KCAL/MOL
REMARK 924 INTRA-LIGAND FREE ENERGY PREDICTED BY IDOCK:    1.38 KCAL/MOL
REMARK 927      BINDING AFFINITY PREDICTED BY RF-SCORE:    0.00 PKD
ROOT
HETATM    1  C   UNL     1     -13.701   8.124  72.945  1.00  0.00     0.403 C  
HETATM    2  C   UNL     1     -13.114   8.376  71.584  1.00  0.00    -0.334 C  
HETATM    3  N   UNL     1     -11.722   8.446  71.478  1.00  0.00    -0.277 N  
HETATM    4  O   UNL     1     -13.862   8.478  70.609  1.00  0.00     0.380 OA 
ENDROOT
BRANCH   3   5
HETATM    5  C   UNL     1     -11.220   8.716  70.163  1.00  0.00    -0.146 A  
HETATM    6  I   UNL     1      -8.909   9.660  65.869  1.00  0.00    -0.238 I  
HETATM    7  C   UNL     1     -10.113   9.210  67.622  1.00  0.00    -0.220 A  
HETATM    8  C   UNL     1     -11.332  10.005  69.575  1.00  0.00    -0.169 A  
HETATM    9  I   UNL     1     -12.479  11.518  70.619  1.00  0.00    -0.194 I  
HETATM   10  C   UNL     1     -10.657   7.647  69.418  1.00  0.00    -0.215 A  
HETATM   11  C   UNL     1     -10.090   7.886  68.147  1.00  0.00    -0.228 A  
HETATM   12  C   UNL     1     -10.777  10.267  68.298  1.00  0.00    -0.276 A  
HETATM   13  I   UNL     1     -10.757   5.639  70.266  1.00  0.00    -0.157 I  
BRANCH  12  14
HETATM   14  C   UNL     1     -10.818  11.658  67.743  1.00  0.00    -0.217 C  
HETATM   15  N   UNL     1      -9.828  12.536  68.139  1.00  0.00    -0.217 N  
HETATM   16  O   UNL     1     -11.717  11.985  66.975  1.00  0.00    -0.510 OA 
HETATM   17  H   UNL     1      -9.109  12.214  68.787  1.00  0.00     0.000 HD 
BRANCH  15  18
HETATM   18  C   UNL     1      -9.784  13.913  67.652  1.00  0.00    -0.226 C  
BRANCH  18  19
HETATM   19  C   UNL     1     -10.250  14.920  68.715  1.00  0.00    -0.243 C  
HETATM   20  H   UNL     1      -9.525  16.546  69.550  1.00  0.00     0.000 HD 
HETATM   21  O   UNL     1      -9.238  15.924  68.893  1.00  0.00    -0.203 OA 
BRANCH  19  22
HETATM   22  C   UNL     1     -11.591  15.569  68.332  1.00  0.00    -0.357 C  
HETATM   23  O   UNL     1     -12.661  14.626  68.361  1.00  0.00    -0.481 OA 
HETATM   24  H   UNL     1     -13.489  15.026  68.125  1.00  0.00     0.000 HD 
ENDBRANCH  19  22
ENDBRANCH  18  19
ENDBRANCH  15  18
ENDBRANCH  12  14
BRANCH  11  25
HETATM   25  C   UNL     1      -9.559   6.768  67.321  1.00  0.00    -0.137 C  
HETATM   26  O   UNL     1      -8.350   6.557  67.293  1.00  0.00    -0.112 OA 
HETATM   27  H   UNL     1     -11.463   6.216  66.688  1.00  0.00     0.000 HD 
HETATM   28  N   UNL     1     -10.467   6.015  66.596  1.00  0.00    -0.237 N  
BRANCH  28  29
HETATM   29  C   UNL     1     -10.041   4.949  65.709  1.00  0.00    -0.170 C  
BRANCH  29  30
HETATM   30  C   UNL     1      -9.723   3.691  66.503  1.00  0.00    -0.075 C  
HETATM   31  O   UNL     1      -9.645   2.575  65.614  1.00  0.00    -0.361 OA 
HETATM   32  H   UNL     1      -9.446   1.789  66.109  1.00  0.00     0.000 HD 
ENDBRANCH  29  30
ENDBRANCH  28  29
ENDBRANCH  11  25
ENDBRANCH   3   5
BRANCH   3  33
HETATM   33  C   UNL     1     -10.766   8.459  72.622  1.00  0.00    -0.242 C  
BRANCH  33  34
HETATM   34  C   UNL     1     -10.844   7.275  73.624  1.00  0.00    -0.123 C  
HETATM   35  O   UNL     1     -11.502   6.129  73.065  1.00  0.00    -0.461 OA 
HETATM   36  H   UNL     1     -11.550   5.404  73.677  1.00  0.00     0.000 HD 
BRANCH  34  37
HETATM   37  C   UNL     1      -9.454   6.825  74.112  1.00  0.00    -0.239 C  
HETATM   38  H   UNL     1      -8.372   5.166  74.124  1.00  0.00     0.000 HD 
HETATM   39  O   UNL     1      -9.229   5.443  73.823  1.00  0.00    -0.126 OA 
ENDBRANCH  34  37
ENDBRANCH  33  34
ENDBRANCH   3  33
TORSDOF 11
ENDMDL
MODEL      126
REMARK 921   NORMALIZED FREE ENERGY PREDICTED BY IDOCK:   -2.64 KCAL/MOL
REMARK 922        TOTAL FREE ENERGY PREDICTED BY IDOCK:   -4.94 KCAL/MOL
REMARK 923 INTER-LIGAND FREE ENERGY PREDICTED BY IDOCK:   -5.21 KCAL/MOL
REMARK 924 INTRA-LIGAND FREE ENERGY PREDICTED BY IDOCK:    0.27 KCAL/MOL
REMARK 927      BINDING AFFINITY PREDICTED BY RF-SCORE:    0.00 PKD
ROOT
HETATM    1  C   UNL     1      -8.503   3.046  70.692  1.00  0.00    -0.095 C  
HETATM    2  C   UNL     1      -8.302   4.499  70.362  1.00  0.00    -0.074 C  
HETATM    3  N   UNL     1      -9.111   5.059  69.369  1.00  0.00    -0.099 N  
HETATM    4  O   UNL     1      -7.468   5.156  70.990  1.00  0.00    -0.073 OA 
ENDROOT
BRANCH   3   5
HETATM    5  C   UNL     1      -8.857   6.439  69.077  1.00  0.00    -0.129 A  
HETATM    6  I   UNL     1      -7.549  11.199  68.524  1.00  0.00    -0.139 I  
HETATM    7  C   UNL     1      -8.243   9.139  68.567  1.00  0.00    -0.115 A  
HETATM    8  C   UNL     1      -9.747   7.464  69.499  1.00  0.00    -0.159 A  
HETATM    9  I   UNL     1     -11.624   6.888  70.413  1.00  0.00    -0.258 I  
HETATM   10  C   UNL     1      -7.721   6.769  68.293  1.00  0.00    -0.106 A  
HETATM   11  C   UNL     1      -7.398   8.121  68.040  1.00  0.00    -0.096 A  
HETATM   12  C   UNL     1      -9.447   8.827  69.251  1.00  0.00    -0.161 A  
HETATM   13  I   UNL     1      -6.546   5.136  67.449  1.00  0.00    -0.057 I  
BRANCH  12  14
HETATM   14  C   UNL     1     -10.348   9.895  69.794  1.00  0.00    -0.246 C  
HETATM   15  N   UNL     1     -10.998  10.708  68.886  1.00  0.00    -0.231 N  
HETATM   16  O   UNL     1     -10.476  10.030  71.006  1.00  0.00    -0.166 OA 
HETATM   17  H   UNL     1     -10.848  10.557  67.888  1.00  0.00     0.000 HD 
BRANCH  15  18
HETATM   18  C   UNL     1     -11.895  11.777  69.319  1.00  0.00    -0.326 C  
BRANCH  18  19
HETATM   19  C   UNL     1     -11.905  12.959  68.338  1.00  0.00    -0.318 C  
HETATM   20  H   UNL     1     -12.362  14.870  68.416  1.00  0.00     0.000 HD 
HETATM   21  O   UNL     1     -12.355  14.139  69.022  1.00  0.00    -0.294 OA 
BRANCH  19  22
HETATM   22  C   UNL     1     -10.517  13.192  67.717  1.00  0.00    -0.228 C  
HETATM   23  O   UNL     1     -10.278  12.321  66.614  1.00  0.00    -0.213 OA 
HETATM   24  H   UNL     1      -9.422  12.465  66.231  1.00  0.00     0.000 HD 
ENDBRANCH  19  22
ENDBRANCH  18  19
ENDBRANCH  15  18
ENDBRANCH  12  14
BRANCH  11  25
HETATM   25  C   UNL     1      -6.253   8.486  67.163  1.00  0.00    -0.056 C  
HETATM   26  O   UNL     1      -5.135   8.619  67.652  1.00  0.00    -0.033 OA 
HETATM   27  H   UNL     1      -7.453   8.516  65.463  1.00  0.00     0.000 HD 
HETATM   28  N   UNL     1      -6.509   8.677  65.816  1.00  0.00    -0.056 N  
BRANCH  28  29
HETATM   29  C   UNL     1      -5.473   9.101  64.893  1.00  0.00    -0.046 C  
BRANCH  29  30
HETATM   30  C   UNL     1      -6.061   9.984  63.801  1.00  0.00    -0.132 C  
HETATM   31  O   UNL     1      -5.212  11.116  63.597  1.00  0.00    -0.443 OA 
HETATM   32  H   UNL     1      -5.580  11.666  62.916  1.00  0.00     0.000 HD 
ENDBRANCH  29  30
ENDBRANCH  28  29
ENDBRANCH  11  25
ENDBRANCH   3   5
BRANCH   3  33
HETATM   33  C   UNL     1     -10.046   4.305  68.485  1.00  0.00     0.166 C  
BRANCH  33  34
HETATM   34  C   UNL     1      -9.432   3.603  67.243  1.00  0.00    -0.196 C  
HETATM   35  O   UNL     1      -9.770   2.209  67.180  1.00  0.00    -0.390 OA 
HETATM   36  H   UNL     1      -9.395   1.780  66.420  1.00  0.00     0.000 HD 
BRANCH  34  37
HETATM   37  C   UNL     1      -9.878   4.253  65.920  1.00  0.00    -0.223 C  
HETATM   38  H   UNL     1     -10.932   5.828  65.344  1.00  0.00     0.000 HD 
HETATM   39  O   UNL     1     -10.656   5.427  66.160  1.00  0.00    -0.222 OA 
ENDBRANCH  34  37
ENDBRANCH  33  34
ENDBRANCH   3  33
TORSDOF 11
ENDMDL
MODEL      127
REMARK 921   NORMALIZED FREE ENERGY PREDICTED BY IDOCK:   -2.62 KCAL/MOL
REMARK 922        TOTAL FREE ENERGY PREDICTED BY IDOCK:   -4.91 KCAL/MOL
REMARK 923 INTER-LIGAND FREE ENERGY PREDICTED BY IDOCK:   -5.84 KCAL/MOL
REMARK 924 INTRA-LIGAND FREE ENERGY PREDICTED BY IDOCK:    0.93 KCAL/MOL
REMARK 927      BINDING AFFINITY PREDICTED BY RF-SCORE:    0.00 PKD
ROOT
HETATM    1  C   UNL     1      -5.813   8.771  66.012  1.00  0.00    -0.047 C  
HETATM    2  C   UNL     1      -6.426  10.127  66.222  1.00  0.00    -0.085 C  
HETATM    3  N   UNL     1      -7.411  10.251  67.206  1.00  0.00    -0.089 N  
HETATM    4  O   UNL     1      -6.024  11.085  65.558  1.00  0.00    -0.080 OA 
ENDROOT
BRANCH   3   5
HETATM    5  C   UNL     1      -7.979  11.560  67.343  1.00  0.00    -0.143 A  
HETATM    6  I   UNL     1      -9.698  16.220  67.257  1.00  0.00    -0.262 I  
HETATM    7  C   UNL     1      -9.082  14.147  67.482  1.00  0.00    -0.195 A  
HETATM    8  C   UNL     1      -7.398  12.537  68.195  1.00  0.00    -0.110 A  
HETATM    9  I   UNL     1      -5.745  11.946  69.464  1.00  0.00    -0.117 I  
HETATM   10  C   UNL     1      -9.187  11.851  66.656  1.00  0.00    -0.205 A  
HETATM   11  C   UNL     1      -9.743  13.148  66.710  1.00  0.00    -0.246 A  
HETATM   12  C   UNL     1      -7.941  13.844  68.271  1.00  0.00    -0.148 A  
HETATM   13  I   UNL     1     -10.175  10.229  65.582  1.00  0.00    -0.061 I  
BRANCH  12  14
HETATM   14  C   UNL     1      -7.252  14.887  69.097  1.00  0.00    -0.153 C  
HETATM   15  N   UNL     1      -6.186  15.555  68.527  1.00  0.00    -0.095 N  
HETATM   16  O   UNL     1      -7.631  15.112  70.242  1.00  0.00     0.107 OA 
HETATM   17  H   UNL     1      -5.906  15.321  67.574  1.00  0.00     0.000 HD 
BRANCH  15  18
HETATM   18  C   UNL     1      -5.450  16.587  69.254  1.00  0.00    -0.137 C  
BRANCH  18  19
HETATM   19  C   UNL     1      -5.172  17.823  68.385  1.00  0.00    -0.150 C  
HETATM   20  H   UNL     1      -5.976  18.657  66.796  1.00  0.00     0.000 HD 
HETATM   21  O   UNL     1      -6.147  17.892  67.333  1.00  0.00    -0.144 OA 
BRANCH  19  22
HETATM   22  C   UNL     1      -5.186  19.116  69.219  1.00  0.00    -0.191 C  
HETATM   23  O   UNL     1      -5.990  20.126  68.614  1.00  0.00    -0.249 OA 
HETATM   24  H   UNL     1      -5.999  20.924  69.129  1.00  0.00     0.000 HD 
ENDBRANCH  19  22
ENDBRANCH  18  19
ENDBRANCH  15  18
ENDBRANCH  12  14
BRANCH  11  25
HETATM   25  C   UNL     1     -11.043  13.455  66.056  1.00  0.00    -0.283 C  
HETATM   26  O   UNL     1     -12.089  13.267  66.669  1.00  0.00    -0.392 OA 
HETATM   27  H   UNL     1     -10.110  14.102  64.311  1.00  0.00     0.000 HD 
HETATM   28  N   UNL     1     -11.012  13.932  64.756  1.00  0.00    -0.381 N  
BRANCH  28  29
HETATM   29  C   UNL     1     -12.228  14.195  64.009  1.00  0.00    -0.332 C  
BRANCH  29  30
HETATM   30  C   UNL     1     -12.594  15.671  64.090  1.00  0.00     0.466 C  
HETATM   31  O   UNL     1     -11.454  16.462  63.746  1.00  0.00    -1.590 OA 
HETATM   32  H   UNL     1     -11.683  17.383  63.797  1.00  0.00     0.000 HD 
ENDBRANCH  29  30
ENDBRANCH  28  29
ENDBRANCH  11  25
ENDBRANCH   3   5
BRANCH   3  33
HETATM   33  C   UNL     1      -8.034   9.123  67.956  1.00  0.00    -0.101 C  
BRANCH  33  34
HETATM   34  C   UNL     1      -7.832   7.694  67.381  1.00  0.00    -0.118 C  
HETATM   35  O   UNL     1      -6.680   7.040  67.932  1.00  0.00    -0.059 OA 
HETATM   36  H   UNL     1      -6.557   6.166  67.581  1.00  0.00     0.000 HD 
BRANCH  34  37
HETATM   37  C   UNL     1      -9.050   6.784  67.627  1.00  0.00    -0.117 C  
HETATM   38  H   UNL     1     -10.012   5.336  66.679  1.00  0.00     0.000 HD 
HETATM   39  O   UNL     1      -9.261   5.897  66.527  1.00  0.00    -0.137 OA 
ENDBRANCH  34  37
ENDBRANCH  33  34
ENDBRANCH   3  33
TORSDOF 11
ENDMDL
MODEL      128
REMARK 921   NORMALIZED FREE ENERGY PREDICTED BY IDOCK:   -2.58 KCAL/MOL
REMARK 922        TOTAL FREE ENERGY PREDICTED BY IDOCK:   -4.84 KCAL/MOL
REMARK 923 INTER-LIGAND FREE ENERGY PREDICTED BY IDOCK:   -4.48 KCAL/MOL
REMARK 924 INTRA-LIGAND FREE ENERGY PREDICTED BY IDOCK:   -0.36 KCAL/MOL
REMARK 927      BINDING AFFINITY PREDICTED BY RF-SCORE:    0.00 PKD
ROOT
HETATM    1  C   UNL     1      -5.468   7.524  62.827  1.00  0.00    -0.046 C  
HETATM    2  C   UNL     1      -6.035   8.495  63.825  1.00  0.00    -0.072 C  
HETATM    3  N   UNL     1      -7.284   8.203  64.381  1.00  0.00    -0.081 N  
HETATM    4  O   UNL     1      -5.379   9.489  64.147  1.00  0.00    -0.058 OA 
ENDROOT
BRANCH   3   5
HETATM    5  C   UNL     1      -7.788   9.176  65.304  1.00  0.00    -0.105 A  
HETATM    6  I   UNL     1      -9.090  12.934  68.280  1.00  0.00    -0.022 I  
HETATM    7  C   UNL     1      -8.717  11.183  67.046  1.00  0.00    -0.148 A  
HETATM    8  C   UNL     1      -7.502   9.101  66.694  1.00  0.00    -0.086 A  
HETATM    9  I   UNL     1      -6.460   7.355  67.438  1.00  0.00    -0.065 I  
HETATM   10  C   UNL     1      -8.645  10.197  64.813  1.00  0.00    -0.181 A  
HETATM   11  C   UNL     1      -9.107  11.215  65.677  1.00  0.00    -0.221 A  
HETATM   12  C   UNL     1      -7.961  10.107  67.580  1.00  0.00    -0.102 A  
HETATM   13  I   UNL     1      -9.264  10.103  62.723  1.00  0.00    -0.214 I  
BRANCH  12  14
HETATM   14  C   UNL     1      -7.561  10.061  69.024  1.00  0.00    -0.090 C  
HETATM   15  N   UNL     1      -8.397   9.397  69.900  1.00  0.00    -0.147 N  
HETATM   16  O   UNL     1      -6.529  10.614  69.392  1.00  0.00    -0.051 OA 
HETATM   17  H   UNL     1      -9.248   8.963  69.542  1.00  0.00     0.000 HD 
BRANCH  15  18
HETATM   18  C   UNL     1      -8.093   9.300  71.326  1.00  0.00     0.105 C  
BRANCH  18  19
HETATM   19  C   UNL     1      -9.051   8.350  72.061  1.00  0.00    -0.227 C  
HETATM   20  H   UNL     1     -10.999   8.157  72.248  1.00  0.00     0.000 HD 
HETATM   21  O   UNL     1     -10.406   8.744  71.793  1.00  0.00    -0.286 OA 
BRANCH  19  22
HETATM   22  C   UNL     1      -8.824   6.885  71.650  1.00  0.00    -0.128 C  
HETATM   23  O   UNL     1      -7.459   6.636  71.319  1.00  0.00    -0.082 OA 
HETATM   24  H   UNL     1      -7.318   5.732  71.065  1.00  0.00     0.000 HD 
ENDBRANCH  19  22
ENDBRANCH  18  19
ENDBRANCH  15  18
ENDBRANCH  12  14
BRANCH  11  25
HETATM   25  C   UNL     1     -10.061  12.252  65.199  1.00  0.00    -0.261 C  
HETATM   26  O   UNL     1      -9.629  13.296  64.719  1.00  0.00     0.090 OA 
HETATM   27  H   UNL     1     -11.712  11.094  65.711  1.00  0.00     0.000 HD 
HETATM   28  N   UNL     1     -11.414  11.995  65.337  1.00  0.00    -0.331 N  
BRANCH  28  29
HETATM   29  C   UNL     1     -12.420  12.972  64.965  1.00  0.00    -0.477 C  
BRANCH  29  30
HETATM   30  C   UNL     1     -12.770  12.840  63.489  1.00  0.00    -0.115 C  
HETATM   31  O   UNL     1     -11.593  12.505  62.750  1.00  0.00    -0.576 OA 
HETATM   32  H   UNL     1     -11.811  12.423  61.829  1.00  0.00     0.000 HD 
ENDBRANCH  29  30
ENDBRANCH  28  29
ENDBRANCH  11  25
ENDBRANCH   3   5
BRANCH   3  33
HETATM   33  C   UNL     1      -8.186   7.096  63.950  1.00  0.00     0.081 C  
BRANCH  33  34
HETATM   34  C   UNL     1      -8.303   5.869  64.895  1.00  0.00    -0.115 C  
HETATM   35  O   UNL     1      -9.659   5.601  65.278  1.00  0.00    -0.360 OA 
HETATM   36  H   UNL     1      -9.731   4.850  65.856  1.00  0.00     0.000 HD 
BRANCH  34  37
HETATM   37  C   UNL     1      -7.731   4.586  64.265  1.00  0.00    -0.077 C  
HETATM   38  H   UNL     1      -5.956   3.866  63.760  1.00  0.00     0.000 HD 
HETATM   39  O   UNL     1      -6.309   4.658  64.149  1.00  0.00    -0.028 OA 
ENDBRANCH  34  37
ENDBRANCH  33  34
ENDBRANCH   3  33
TORSDOF 11
ENDMDL
MODEL      129
REMARK 921   NORMALIZED FREE ENERGY PREDICTED BY IDOCK:   -2.56 KCAL/MOL
REMARK 922        TOTAL FREE ENERGY PREDICTED BY IDOCK:   -4.82 KCAL/MOL
REMARK 923 INTER-LIGAND FREE ENERGY PREDICTED BY IDOCK:   -7.52 KCAL/MOL
REMARK 924 INTRA-LIGAND FREE ENERGY PREDICTED BY IDOCK:    2.70 KCAL/MOL
REMARK 927      BINDING AFFINITY PREDICTED BY RF-SCORE:    0.00 PKD
ROOT
HETATM    1  C   UNL     1     -13.150   9.990  71.565  1.00  0.00    -0.531 C  
HETATM    2  C   UNL     1     -12.436  10.041  70.243  1.00  0.00    -0.032 C  
HETATM    3  N   UNL     1     -11.084   9.688  70.220  1.00  0.00    -0.259 N  
HETATM    4  O   UNL     1     -13.060  10.352  69.226  1.00  0.00     0.355 OA 
ENDROOT
BRANCH   3   5
HETATM    5  C   UNL     1     -10.447   9.782  68.939  1.00  0.00    -0.214 A  
HETATM    6  I   UNL     1      -8.820  10.095  64.257  1.00  0.00    -0.316 I  
HETATM    7  C   UNL     1      -9.313  10.005  66.372  1.00  0.00    -0.168 A  
HETATM    8  C   UNL     1      -9.808   8.662  68.343  1.00  0.00    -0.172 A  
HETATM    9  I   UNL     1      -9.619   6.844  69.505  1.00  0.00    -0.155 I  
HETATM   10  C   UNL     1     -10.406  11.046  68.293  1.00  0.00    -0.178 A  
HETATM   11  C   UNL     1      -9.849  11.166  67.000  1.00  0.00    -0.212 A  
HETATM   12  C   UNL     1      -9.236   8.760  67.050  1.00  0.00    -0.177 A  
HETATM   13  I   UNL     1     -11.165  12.781  69.377  1.00  0.00     0.033 I  
BRANCH  12  14
HETATM   14  C   UNL     1      -8.658   7.540  66.400  1.00  0.00    -0.140 C  
HETATM   15  N   UNL     1      -9.533   6.670  65.778  1.00  0.00    -0.377 N  
HETATM   16  O   UNL     1      -7.450   7.337  66.443  1.00  0.00    -0.080 OA 
HETATM   17  H   UNL     1     -10.531   6.883  65.780  1.00  0.00     0.000 HD 
BRANCH  15  18
HETATM   18  C   UNL     1      -9.065   5.454  65.118  1.00  0.00    -0.011 C  
BRANCH  18  19
HETATM   19  C   UNL     1     -10.020   4.270  65.335  1.00  0.00    -0.223 C  
HETATM   20  H   UNL     1     -11.056   3.049  64.195  1.00  0.00     0.000 HD 
HETATM   21  O   UNL     1     -10.466   3.781  64.061  1.00  0.00    -0.238 OA 
BRANCH  19  22
HETATM   22  C   UNL     1      -9.351   3.143  66.142  1.00  0.00    -0.095 C  
HETATM   23  O   UNL     1      -9.757   3.160  67.509  1.00  0.00    -0.325 OA 
HETATM   24  H   UNL     1      -9.345   2.465  68.007  1.00  0.00     0.000 HD 
ENDBRANCH  19  22
ENDBRANCH  18  19
ENDBRANCH  15  18
ENDBRANCH  12  14
BRANCH  11  25
HETATM   25  C   UNL     1      -9.733  12.492  66.334  1.00  0.00    -0.249 C  
HETATM   26  O   UNL     1      -8.804  13.237  66.628  1.00  0.00    -0.173 OA 
HETATM   27  H   UNL     1     -11.434  12.158  65.183  1.00  0.00     0.000 HD 
HETATM   28  N   UNL     1     -10.706  12.835  65.411  1.00  0.00    -0.278 N  
BRANCH  28  29
HETATM   29  C   UNL     1     -10.719  14.131  64.759  1.00  0.00    -0.419 C  
BRANCH  29  30
HETATM   30  C   UNL     1     -12.149  14.587  64.507  1.00  0.00    -0.484 C  
HETATM   31  O   UNL     1     -12.561  14.162  63.206  1.00  0.00    -1.080 OA 
HETATM   32  H   UNL     1     -13.453  14.447  63.048  1.00  0.00     0.000 HD 
ENDBRANCH  29  30
ENDBRANCH  28  29
ENDBRANCH  11  25
ENDBRANCH   3   5
BRANCH   3  33
HETATM   33  C   UNL     1     -10.236   9.426  71.418  1.00  0.00    -0.227 C  
BRANCH  33  34
HETATM   34  C   UNL     1     -10.801   8.448  72.485  1.00  0.00    -0.305 C  
HETATM   35  O   UNL     1     -11.527   7.359  71.898  1.00  0.00    -0.252 OA 
HETATM   36  H   UNL     1     -11.873   6.761  72.550  1.00  0.00     0.000 HD 
BRANCH  34  37
HETATM   37  C   UNL     1      -9.698   7.849  73.377  1.00  0.00    -0.250 C  
HETATM   38  H   UNL     1      -7.735   8.010  73.587  1.00  0.00     0.000 HD 
HETATM   39  O   UNL     1      -8.416   8.380  73.036  1.00  0.00    -0.283 OA 
ENDBRANCH  34  37
ENDBRANCH  33  34
ENDBRANCH   3  33
TORSDOF 11
ENDMDL
MODEL      130
REMARK 921   NORMALIZED FREE ENERGY PREDICTED BY IDOCK:   -2.56 KCAL/MOL
REMARK 922        TOTAL FREE ENERGY PREDICTED BY IDOCK:   -4.81 KCAL/MOL
REMARK 923 INTER-LIGAND FREE ENERGY PREDICTED BY IDOCK:   -4.29 KCAL/MOL
REMARK 924 INTRA-LIGAND FREE ENERGY PREDICTED BY IDOCK:   -0.52 KCAL/MOL
REMARK 927      BINDING AFFINITY PREDICTED BY RF-SCORE:    0.00 PKD
ROOT
HETATM    1  C   UNL     1     -10.460   3.664  63.884  1.00  0.00    -0.276 C  
HETATM    2  C   UNL     1     -10.166   4.271  65.227  1.00  0.00    -0.217 C  
HETATM    3  N   UNL     1      -8.849   4.218  65.691  1.00  0.00    -0.119 N  
HETATM    4  O   UNL     1     -11.072   4.822  65.856  1.00  0.00    -0.148 OA 
ENDROOT
BRANCH   3   5
HETATM    5  C   UNL     1      -8.632   4.787  66.989  1.00  0.00    -0.104 A  
HETATM    6  I   UNL     1      -8.505   6.732  71.557  1.00  0.00    -0.116 I  
HETATM    7  C   UNL     1      -8.328   5.864  69.572  1.00  0.00    -0.114 A  
HETATM    8  C   UNL     1      -8.334   6.167  67.155  1.00  0.00    -0.105 A  
HETATM    9  I   UNL     1      -7.995   7.368  65.385  1.00  0.00    -0.123 I  
HETATM   10  C   UNL     1      -8.655   3.928  68.119  1.00  0.00    -0.096 A  
HETATM   11  C   UNL     1      -8.514   4.460  69.420  1.00  0.00    -0.091 A  
HETATM   12  C   UNL     1      -8.182   6.721  68.450  1.00  0.00    -0.119 A  
HETATM   13  I   UNL     1      -8.848   1.782  67.776  1.00  0.00    -0.194 I  
BRANCH  12  14
HETATM   14  C   UNL     1      -7.970   8.197  68.605  1.00  0.00    -0.115 C  
HETATM   15  N   UNL     1      -9.090   9.005  68.643  1.00  0.00    -0.137 N  
HETATM   16  O   UNL     1      -6.832   8.647  68.679  1.00  0.00    -0.061 OA 
HETATM   17  H   UNL     1     -10.013   8.578  68.567  1.00  0.00     0.000 HD 
BRANCH  15  18
HETATM   18  C   UNL     1      -8.984  10.454  68.790  1.00  0.00    -0.157 C  
BRANCH  18  19
HETATM   19  C   UNL     1     -10.351  11.149  68.697  1.00  0.00    -0.203 C  
HETATM   20  H   UNL     1     -11.682  11.492  67.291  1.00  0.00     0.000 HD 
HETATM   21  O   UNL     1     -10.837  11.062  67.348  1.00  0.00    -0.239 OA 
BRANCH  19  22
HETATM   22  C   UNL     1     -11.366  10.534  69.676  1.00  0.00    -0.281 C  
HETATM   23  O   UNL     1     -12.115  11.537  70.360  1.00  0.00    -0.350 OA 
HETATM   24  H   UNL     1     -12.742  11.158  70.964  1.00  0.00     0.000 HD 
ENDBRANCH  19  22
ENDBRANCH  18  19
ENDBRANCH  15  18
ENDBRANCH  12  14
BRANCH  11  25
HETATM   25  C   UNL     1      -8.466   3.570  70.612  1.00  0.00    -0.068 C  
HETATM   26  O   UNL     1      -7.379   3.234  71.072  1.00  0.00    -0.033 OA 
HETATM   27  H   UNL     1     -10.541   3.486  70.741  1.00  0.00     0.000 HD 
HETATM   28  N   UNL     1      -9.670   3.143  71.146  1.00  0.00    -0.158 N  
BRANCH  28  29
HETATM   29  C   UNL     1      -9.726   2.221  72.264  1.00  0.00    -0.122 C  
BRANCH  29  30
HETATM   30  C   UNL     1     -10.790   2.658  73.261  1.00  0.00    -0.172 C  
HETATM   31  O   UNL     1     -11.383   1.503  73.860  1.00  0.00    -0.154 OA 
HETATM   32  H   UNL     1     -12.047   1.775  74.482  1.00  0.00     0.000 HD 
ENDBRANCH  29  30
ENDBRANCH  28  29
ENDBRANCH  11  25
ENDBRANCH   3   5
BRANCH   3  33
HETATM   33  C   UNL     1      -7.734   3.463  65.050  1.00  0.00    -0.081 C  
BRANCH  33  34
HETATM   34  C   UNL     1      -6.841   4.239  64.043  1.00  0.00    -0.045 C  
HETATM   35  O   UNL     1      -5.455   4.219  64.413  1.00  0.00    -0.012 OA 
HETATM   36  H   UNL     1      -4.909   4.693  63.797  1.00  0.00     0.000 HD 
BRANCH  34  37
HETATM   37  C   UNL     1      -6.952   3.684  62.611  1.00  0.00    -0.036 C  
HETATM   38  H   UNL     1      -7.603   2.036  61.724  1.00  0.00     0.000 HD 
HETATM   39  O   UNL     1      -7.535   2.379  62.608  1.00  0.00    -0.042 OA 
ENDBRANCH  34  37
ENDBRANCH  33  34
ENDBRANCH   3  33
TORSDOF 11
ENDMDL
MODEL      131
REMARK 921   NORMALIZED FREE ENERGY PREDICTED BY IDOCK:   -2.50 KCAL/MOL
REMARK 922        TOTAL FREE ENERGY PREDICTED BY IDOCK:   -4.71 KCAL/MOL
REMARK 923 INTER-LIGAND FREE ENERGY PREDICTED BY IDOCK:   -3.84 KCAL/MOL
REMARK 924 INTRA-LIGAND FREE ENERGY PREDICTED BY IDOCK:   -0.87 KCAL/MOL
REMARK 927      BINDING AFFINITY PREDICTED BY RF-SCORE:    0.00 PKD
ROOT
HETATM    1  C   UNL     1     -11.035   4.377  65.133  1.00  0.00    -0.019 C  
HETATM    2  C   UNL     1     -10.395   5.323  66.111  1.00  0.00    -0.190 C  
HETATM    3  N   UNL     1      -9.008   5.261  66.265  1.00  0.00    -0.129 N  
HETATM    4  O   UNL     1     -11.096   6.140  66.714  1.00  0.00    -0.322 OA 
ENDROOT
BRANCH   3   5
HETATM    5  C   UNL     1      -8.456   6.166  67.230  1.00  0.00    -0.104 A  
HETATM    6  I   UNL     1      -7.134   9.389  70.771  1.00  0.00     0.003 I  
HETATM    7  C   UNL     1      -7.484   7.933  69.195  1.00  0.00    -0.093 A  
HETATM    8  C   UNL     1      -8.029   7.472  66.865  1.00  0.00    -0.115 A  
HETATM    9  I   UNL     1      -8.023   8.006  64.767  1.00  0.00    -0.092 I  
HETATM   10  C   UNL     1      -8.278   5.711  68.563  1.00  0.00    -0.106 A  
HETATM   11  C   UNL     1      -7.802   6.593  69.559  1.00  0.00    -0.106 A  
HETATM   12  C   UNL     1      -7.541   8.371  67.846  1.00  0.00    -0.099 A  
HETATM   13  I   UNL     1      -8.700   3.615  68.999  1.00  0.00    -0.187 I  
BRANCH  12  14
HETATM   14  C   UNL     1      -7.193   9.776  67.455  1.00  0.00    -0.089 C  
HETATM   15  N   UNL     1      -8.226  10.688  67.355  1.00  0.00    -0.115 N  
HETATM   16  O   UNL     1      -6.027  10.076  67.225  1.00  0.00    -0.050 OA 
HETATM   17  H   UNL     1      -9.180  10.382  67.549  1.00  0.00     0.000 HD 
BRANCH  15  18
HETATM   18  C   UNL     1      -7.986  12.079  66.980  1.00  0.00    -0.150 C  
BRANCH  18  19
HETATM   19  C   UNL     1      -8.909  13.051  67.731  1.00  0.00    -0.188 C  
HETATM   20  H   UNL     1      -8.698  14.731  68.730  1.00  0.00     0.000 HD 
HETATM   21  O   UNL     1      -8.127  14.130  68.266  1.00  0.00    -0.130 OA 
BRANCH  19  22
HETATM   22  C   UNL     1     -10.024  13.593  66.818  1.00  0.00    -0.270 C  
HETATM   23  O   UNL     1      -9.532  13.915  65.519  1.00  0.00    -0.518 OA 
HETATM   24  H   UNL     1     -10.220  14.249  64.956  1.00  0.00     0.000 HD 
ENDBRANCH  19  22
ENDBRANCH  18  19
ENDBRANCH  15  18
ENDBRANCH  12  14
BRANCH  11  25
HETATM   25  C   UNL     1      -7.543   6.118  70.945  1.00  0.00    -0.097 C  
HETATM   26  O   UNL     1      -6.417   5.740  71.255  1.00  0.00    -0.041 OA 
HETATM   27  H   UNL     1      -9.510   6.470  71.525  1.00  0.00     0.000 HD 
HETATM   28  N   UNL     1      -8.607   6.109  71.831  1.00  0.00    -0.132 N  
BRANCH  28  29
HETATM   29  C   UNL     1      -8.471   5.601  73.183  1.00  0.00    -0.117 C  
BRANCH  29  30
HETATM   30  C   UNL     1      -7.726   6.601  74.056  1.00  0.00    -0.095 C  
HETATM   31  O   UNL     1      -6.401   6.124  74.299  1.00  0.00    -0.068 OA 
HETATM   32  H   UNL     1      -5.935   6.748  74.843  1.00  0.00     0.000 HD 
ENDBRANCH  29  30
ENDBRANCH  28  29
ENDBRANCH  11  25
ENDBRANCH   3   5
BRANCH   3  33
HETATM   33  C   UNL     1      -8.115   4.224  65.670  1.00  0.00    -0.105 C  
BRANCH  33  34
HETATM   34  C   UNL     1      -6.616   4.595  65.499  1.00  0.00    -0.041 C  
HETATM   35  O   UNL     1      -5.781   3.956  66.475  1.00  0.00    -0.020 OA 
HETATM   36  H   UNL     1      -4.864   4.183  66.370  1.00  0.00     0.000 HD 
BRANCH  34  37
HETATM   37  C   UNL     1      -6.075   4.225  64.106  1.00  0.00    -0.018 C  
HETATM   38  H   UNL     1      -6.584   4.512  62.213  1.00  0.00     0.000 HD 
HETATM   39  O   UNL     1      -6.918   4.740  63.072  1.00  0.00    -0.037 OA 
ENDBRANCH  34  37
ENDBRANCH  33  34
ENDBRANCH   3  33
TORSDOF 11
ENDMDL
MODEL      132
REMARK 921   NORMALIZED FREE ENERGY PREDICTED BY IDOCK:   -2.45 KCAL/MOL
REMARK 922        TOTAL FREE ENERGY PREDICTED BY IDOCK:   -4.64 KCAL/MOL
REMARK 923 INTER-LIGAND FREE ENERGY PREDICTED BY IDOCK:   -5.63 KCAL/MOL
REMARK 924 INTRA-LIGAND FREE ENERGY PREDICTED BY IDOCK:    1.00 KCAL/MOL
REMARK 927      BINDING AFFINITY PREDICTED BY RF-SCORE:    0.00 PKD
ROOT
HETATM    1  C   UNL     1     -10.240  11.853  63.827  1.00  0.00    -0.442 C  
HETATM    2  C   UNL     1     -10.762  12.512  65.073  1.00  0.00    -0.294 C  
HETATM    3  N   UNL     1      -9.847  12.806  66.087  1.00  0.00    -0.266 N  
HETATM    4  O   UNL     1     -11.958  12.805  65.151  1.00  0.00    -0.373 OA 
ENDROOT
BRANCH   3   5
HETATM    5  C   UNL     1     -10.405  13.408  67.262  1.00  0.00    -0.244 A  
HETATM    6  I   UNL     1     -11.749  15.535  71.545  1.00  0.00    -0.600 I  
HETATM    7  C   UNL     1     -11.381  14.637  69.599  1.00  0.00    -0.280 A  
HETATM    8  C   UNL     1     -11.062  12.631  68.255  1.00  0.00    -0.261 A  
HETATM    9  I   UNL     1     -11.403  10.529  67.860  1.00  0.00     0.242 I  
HETATM   10  C   UNL     1     -10.349  14.820  67.393  1.00  0.00    -0.242 A  
HETATM   11  C   UNL     1     -10.826  15.446  68.566  1.00  0.00    -0.264 A  
HETATM   12  C   UNL     1     -11.555  13.238  69.437  1.00  0.00    -0.364 A  
HETATM   13  I   UNL     1      -9.571  15.978  65.716  1.00  0.00     0.016 I  
BRANCH  12  14
HETATM   14  C   UNL     1     -12.153  12.385  70.514  1.00  0.00    -0.275 C  
HETATM   15  N   UNL     1     -11.537  11.181  70.794  1.00  0.00    -0.368 N  
HETATM   16  O   UNL     1     -13.161  12.759  71.103  1.00  0.00    -0.143 OA 
HETATM   17  H   UNL     1     -10.705  10.914  70.267  1.00  0.00     0.000 HD 
BRANCH  15  18
HETATM   18  C   UNL     1     -12.046  10.280  71.826  1.00  0.00    -0.100 C  
BRANCH  18  19
HETATM   19  C   UNL     1     -11.461   8.865  71.703  1.00  0.00    -0.339 C  
HETATM   20  H   UNL     1     -10.108   7.797  72.649  1.00  0.00     0.000 HD 
HETATM   21  O   UNL     1     -10.470   8.672  72.725  1.00  0.00    -0.165 OA 
BRANCH  19  22
HETATM   22  C   UNL     1     -12.556   7.789  71.804  1.00  0.00    -0.329 C  
HETATM   23  O   UNL     1     -13.859   8.343  71.627  1.00  0.00    -0.370 OA 
HETATM   24  H   UNL     1     -14.534   7.678  71.689  1.00  0.00     0.000 HD 
ENDBRANCH  19  22
ENDBRANCH  18  19
ENDBRANCH  15  18
ENDBRANCH  12  14
BRANCH  11  25
HETATM   25  C   UNL     1     -10.840  16.928  68.694  1.00  0.00    -0.314 C  
HETATM   26  O   UNL     1     -11.911  17.528  68.669  1.00  0.00     1.372 OA 
HETATM   27  H   UNL     1      -8.769  17.019  68.872  1.00  0.00     0.000 HD 
HETATM   28  N   UNL     1      -9.623  17.575  68.822  1.00  0.00    -0.292 N  
BRANCH  28  29
HETATM   29  C   UNL     1      -9.528  19.021  68.884  1.00  0.00    -0.342 C  
BRANCH  29  30
HETATM   30  C   UNL     1      -8.123  19.479  68.519  1.00  0.00    -0.341 C  
HETATM   31  O   UNL     1      -7.187  18.933  69.451  1.00  0.00    -0.220 OA 
HETATM   32  H   UNL     1      -6.311  19.219  69.222  1.00  0.00     0.000 HD 
ENDBRANCH  29  30
ENDBRANCH  28  29
ENDBRANCH  11  25
ENDBRANCH   3   5
BRANCH   3  33
HETATM   33  C   UNL     1      -8.420  12.372  66.119  1.00  0.00     0.389 C  
BRANCH  33  34
HETATM   34  C   UNL     1      -8.130  10.929  66.615  1.00  0.00    -0.147 C  
HETATM   35  O   UNL     1      -7.562  10.102  65.589  1.00  0.00    -0.130 OA 
HETATM   36  H   UNL     1      -7.384   9.220  65.892  1.00  0.00     0.000 HD 
BRANCH  34  37
HETATM   37  C   UNL     1      -7.173  10.903  67.820  1.00  0.00    -0.091 C  
HETATM   38  H   UNL     1      -5.538   9.931  68.372  1.00  0.00     0.000 HD 
HETATM   39  O   UNL     1      -6.128   9.947  67.628  1.00  0.00    -0.053 OA 
ENDBRANCH  34  37
ENDBRANCH  33  34
ENDBRANCH   3  33
TORSDOF 11
ENDMDL
MODEL      133
REMARK 921   NORMALIZED FREE ENERGY PREDICTED BY IDOCK:   -2.43 KCAL/MOL
REMARK 922        TOTAL FREE ENERGY PREDICTED BY IDOCK:   -4.60 KCAL/MOL
REMARK 923 INTER-LIGAND FREE ENERGY PREDICTED BY IDOCK:   -6.00 KCAL/MOL
REMARK 924 INTRA-LIGAND FREE ENERGY PREDICTED BY IDOCK:    1.41 KCAL/MOL
REMARK 927      BINDING AFFINITY PREDICTED BY RF-SCORE:    0.00 PKD
ROOT
HETATM    1  C   UNL     1      -6.218  14.927  70.491  1.00  0.00    -0.088 C  
HETATM    2  C   UNL     1      -7.001  14.820  69.212  1.00  0.00    -0.149 C  
HETATM    3  N   UNL     1      -8.396  14.845  69.299  1.00  0.00    -0.151 N  
HETATM    4  O   UNL     1      -6.402  14.752  68.136  1.00  0.00    -0.112 OA 
ENDROOT
BRANCH   3   5
HETATM    5  C   UNL     1      -9.091  14.712  68.053  1.00  0.00    -0.189 A  
HETATM    6  I   UNL     1     -12.027  14.327  64.065  1.00  0.00     0.202 I  
HETATM    7  C   UNL     1     -10.562  14.506  65.661  1.00  0.00    -0.332 A  
HETATM    8  C   UNL     1      -9.264  13.446  67.429  1.00  0.00    -0.213 A  
HETATM    9  I   UNL     1      -8.265  11.728  68.290  1.00  0.00    -0.120 I  
HETATM   10  C   UNL     1      -9.555  15.887  67.406  1.00  0.00    -0.221 A  
HETATM   11  C   UNL     1     -10.303  15.795  66.211  1.00  0.00    -0.320 A  
HETATM   12  C   UNL     1     -10.005  13.329  66.227  1.00  0.00    -0.291 A  
HETATM   13  I   UNL     1      -9.024  17.817  68.275  1.00  0.00    -0.276 I  
BRANCH  12  14
HETATM   14  C   UNL     1     -10.261  11.973  65.643  1.00  0.00    -0.252 C  
HETATM   15  N   UNL     1      -9.481  11.579  64.574  1.00  0.00    -0.397 N  
HETATM   16  O   UNL     1     -11.147  11.264  66.108  1.00  0.00    -0.248 OA 
HETATM   17  H   UNL     1      -8.764  12.213  64.221  1.00  0.00     0.000 HD 
BRANCH  15  18
HETATM   18  C   UNL     1      -9.657  10.276  63.936  1.00  0.00    -0.293 C  
BRANCH  18  19
HETATM   19  C   UNL     1      -8.492   9.320  64.236  1.00  0.00    -0.190 C  
HETATM   20  H   UNL     1      -6.570   9.492  64.615  1.00  0.00     0.000 HD 
HETATM   21  O   UNL     1      -7.291  10.083  64.430  1.00  0.00    -0.134 OA 
BRANCH  19  22
HETATM   22  C   UNL     1      -8.780   8.445  65.468  1.00  0.00    -0.162 C  
HETATM   23  O   UNL     1     -10.140   8.549  65.883  1.00  0.00    -0.445 OA 
HETATM   24  H   UNL     1     -10.318   8.009  66.644  1.00  0.00     0.000 HD 
ENDBRANCH  19  22
ENDBRANCH  18  19
ENDBRANCH  15  18
ENDBRANCH  12  14
BRANCH  11  25
HETATM   25  C   UNL     1     -10.739  17.015  65.481  1.00  0.00    -0.138 C  
HETATM   26  O   UNL     1     -11.132  16.920  64.323  1.00  0.00    -1.135 OA 
HETATM   27  H   UNL     1     -10.361  18.237  67.123  1.00  0.00     0.000 HD 
HETATM   28  N   UNL     1     -10.662  18.226  66.149  1.00  0.00    -0.263 N  
BRANCH  28  29
HETATM   29  C   UNL     1     -10.999  19.479  65.500  1.00  0.00    -0.028 C  
BRANCH  29  30
HETATM   30  C   UNL     1     -10.038  20.578  65.933  1.00  0.00     0.090 C  
HETATM   31  O   UNL     1      -8.711  20.234  65.529  1.00  0.00    -0.439 OA 
HETATM   32  H   UNL     1      -8.111  20.920  65.799  1.00  0.00     0.000 HD 
ENDBRANCH  29  30
ENDBRANCH  28  29
ENDBRANCH  11  25
ENDBRANCH   3   5
BRANCH   3  33
HETATM   33  C   UNL     1      -9.186  14.797  70.563  1.00  0.00     1.582 C  
BRANCH  33  34
HETATM   34  C   UNL     1     -10.734  14.816  70.431  1.00  0.00     0.078 C  
HETATM   35  O   UNL     1     -11.292  13.497  70.348  1.00  0.00    -0.492 OA 
HETATM   36  H   UNL     1     -12.238  13.508  70.268  1.00  0.00     0.000 HD 
BRANCH  34  37
HETATM   37  C   UNL     1     -11.415  15.540  71.606  1.00  0.00    -0.423 C  
HETATM   38  H   UNL     1     -13.204  16.275  72.036  1.00  0.00     0.000 HD 
HETATM   39  O   UNL     1     -12.784  15.828  71.311  1.00  0.00    -0.455 OA 
ENDBRANCH  34  37
ENDBRANCH  33  34
ENDBRANCH   3  33
TORSDOF 11
ENDMDL
MODEL      134
REMARK 921   NORMALIZED FREE ENERGY PREDICTED BY IDOCK:   -2.36 KCAL/MOL
REMARK 922        TOTAL FREE ENERGY PREDICTED BY IDOCK:   -4.49 KCAL/MOL
REMARK 923 INTER-LIGAND FREE ENERGY PREDICTED BY IDOCK:   -4.69 KCAL/MOL
REMARK 924 INTRA-LIGAND FREE ENERGY PREDICTED BY IDOCK:    0.20 KCAL/MOL
REMARK 927      BINDING AFFINITY PREDICTED BY RF-SCORE:    0.00 PKD
ROOT
HETATM    1  C   UNL     1     -12.771  15.097  68.236  1.00  0.00     1.099 C  
HETATM    2  C   UNL     1     -11.512  14.277  68.214  1.00  0.00    -0.304 C  
HETATM    3  N   UNL     1     -10.653  14.431  67.122  1.00  0.00    -0.275 N  
HETATM    4  O   UNL     1     -11.256  13.530  69.162  1.00  0.00    -0.260 OA 
ENDROOT
BRANCH   3   5
HETATM    5  C   UNL     1      -9.483  13.604  67.141  1.00  0.00    -0.244 A  
HETATM    6  I   UNL     1      -5.159  11.177  66.842  1.00  0.00    -0.109 I  
HETATM    7  C   UNL     1      -7.112  12.085  67.138  1.00  0.00    -0.130 A  
HETATM    8  C   UNL     1      -9.395  12.421  66.357  1.00  0.00    -0.219 A  
HETATM    9  I   UNL     1     -11.159  11.762  65.288  1.00  0.00    -0.201 I  
HETATM   10  C   UNL     1      -8.420  13.952  68.015  1.00  0.00    -0.173 A  
HETATM   11  C   UNL     1      -7.222  13.203  68.013  1.00  0.00    -0.125 A  
HETATM   12  C   UNL     1      -8.207  11.650  66.345  1.00  0.00    -0.052 A  
HETATM   13  I   UNL     1      -8.722  15.622  69.387  1.00  0.00     0.058 I  
BRANCH  12  14
HETATM   14  C   UNL     1      -8.101  10.465  65.434  1.00  0.00    -0.152 C  
HETATM   15  N   UNL     1      -8.377   9.221  65.967  1.00  0.00    -0.110 N  
HETATM   16  O   UNL     1      -7.767  10.619  64.264  1.00  0.00    -0.013 OA 
HETATM   17  H   UNL     1      -8.642   9.149  66.950  1.00  0.00     0.000 HD 
BRANCH  15  18
HETATM   18  C   UNL     1      -8.301   8.006  65.158  1.00  0.00    -0.130 C  
BRANCH  18  19
HETATM   19  C   UNL     1      -8.471   6.734  66.003  1.00  0.00    -0.142 C  
HETATM   20  H   UNL     1      -7.370   5.705  67.265  1.00  0.00     0.000 HD 
HETATM   21  O   UNL     1      -7.265   6.491  66.743  1.00  0.00    -0.074 OA 
BRANCH  19  22
HETATM   22  C   UNL     1      -9.675   6.843  66.954  1.00  0.00    -0.171 C  
HETATM   23  O   UNL     1      -9.270   7.156  68.285  1.00  0.00    -0.134 OA 
HETATM   24  H   UNL     1     -10.014   7.223  68.872  1.00  0.00     0.000 HD 
ENDBRANCH  19  22
ENDBRANCH  18  19
ENDBRANCH  15  18
ENDBRANCH  12  14
BRANCH  11  25
HETATM   25  C   UNL     1      -6.124  13.508  68.970  1.00  0.00    -0.086 C  
HETATM   26  O   UNL     1      -5.188  14.217  68.611  1.00  0.00    -0.082 OA 
HETATM   27  H   UNL     1      -7.023  12.405  70.488  1.00  0.00     0.000 HD 
HETATM   28  N   UNL     1      -6.202  12.956  70.237  1.00  0.00    -0.058 N  
BRANCH  28  29
HETATM   29  C   UNL     1      -5.149  13.139  71.218  1.00  0.00    -0.168 C  
BRANCH  29  30
HETATM   30  C   UNL     1      -5.505  14.264  72.179  1.00  0.00    -0.163 C  
HETATM   31  O   UNL     1      -5.475  15.512  71.481  1.00  0.00     0.022 OA 
HETATM   32  H   UNL     1      -5.697  16.214  72.081  1.00  0.00     0.000 HD 
ENDBRANCH  29  30
ENDBRANCH  28  29
ENDBRANCH  11  25
ENDBRANCH   3   5
BRANCH   3  33
HETATM   33  C   UNL     1     -10.953  15.213  65.888  1.00  0.00    -0.339 C  
BRANCH  33  34
HETATM   34  C   UNL     1     -10.428  16.674  65.832  1.00  0.00    -0.313 C  
HETATM   35  O   UNL     1     -11.055  17.441  64.794  1.00  0.00    -0.973 OA 
HETATM   36  H   UNL     1     -10.734  18.334  64.759  1.00  0.00     0.000 HD 
BRANCH  34  37
HETATM   37  C   UNL     1     -10.636  17.425  67.160  1.00  0.00    -0.264 C  
HETATM   38  H   UNL     1     -10.720  19.303  67.783  1.00  0.00     0.000 HD 
HETATM   39  O   UNL     1     -10.591  18.840  66.964  1.00  0.00    -0.405 OA 
ENDBRANCH  34  37
ENDBRANCH  33  34
ENDBRANCH   3  33
TORSDOF 11
ENDMDL
MODEL      135
REMARK 921   NORMALIZED FREE ENERGY PREDICTED BY IDOCK:   -2.33 KCAL/MOL
REMARK 922        TOTAL FREE ENERGY PREDICTED BY IDOCK:   -4.44 KCAL/MOL
REMARK 923 INTER-LIGAND FREE ENERGY PREDICTED BY IDOCK:   -3.69 KCAL/MOL
REMARK 924 INTRA-LIGAND FREE ENERGY PREDICTED BY IDOCK:   -0.76 KCAL/MOL
REMARK 927      BINDING AFFINITY PREDICTED BY RF-SCORE:    0.00 PKD
ROOT
HETATM    1  C   UNL     1      -6.667  17.930  67.626  1.00  0.00    -0.192 C  
HETATM    2  C   UNL     1      -6.789  16.448  67.408  1.00  0.00    -0.169 C  
HETATM    3  N   UNL     1      -7.804  15.771  68.091  1.00  0.00    -0.129 N  
HETATM    4  O   UNL     1      -6.027  15.884  66.619  1.00  0.00    -0.118 OA 
ENDROOT
BRANCH   3   5
HETATM    5  C   UNL     1      -7.856  14.356  67.867  1.00  0.00    -0.150 A  
HETATM    6  I   UNL     1      -7.479   9.518  66.808  1.00  0.00    -0.094 I  
HETATM    7  C   UNL     1      -7.827  11.579  67.406  1.00  0.00    -0.143 A  
HETATM    8  C   UNL     1      -8.684  13.793  66.859  1.00  0.00    -0.154 A  
HETATM    9  I   UNL     1     -10.046  15.098  65.796  1.00  0.00    -0.413 I  
HETATM   10  C   UNL     1      -7.106  13.506  68.723  1.00  0.00    -0.103 A  
HETATM   11  C   UNL     1      -7.076  12.112  68.493  1.00  0.00    -0.099 A  
HETATM   12  C   UNL     1      -8.676  12.397  66.615  1.00  0.00    -0.119 A  
HETATM   13  I   UNL     1      -6.070  14.408  70.417  1.00  0.00    -0.062 I  
BRANCH  12  14
HETATM   14  C   UNL     1      -9.479  11.837  65.481  1.00  0.00    -0.168 C  
HETATM   15  N   UNL     1      -9.014  12.053  64.198  1.00  0.00     0.018 N  
HETATM   16  O   UNL     1     -10.517  11.225  65.709  1.00  0.00    -0.246 OA 
HETATM   17  H   UNL     1      -8.149  12.578  64.065  1.00  0.00     0.000 HD 
BRANCH  15  18
HETATM   18  C   UNL     1      -9.729  11.548  63.028  1.00  0.00    -0.359 C  
BRANCH  18  19
HETATM   19  C   UNL     1      -9.035  10.327  62.406  1.00  0.00    -0.264 C  
HETATM   20  H   UNL     1      -7.182   9.745  62.098  1.00  0.00     0.000 HD 
HETATM   21  O   UNL     1      -7.611  10.500  62.483  1.00  0.00    -0.140 OA 
BRANCH  19  22
HETATM   22  C   UNL     1      -9.458   9.021  63.099  1.00  0.00     1.223 C  
HETATM   23  O   UNL     1      -8.735   7.898  62.598  1.00  0.00    -0.411 OA 
HETATM   24  H   UNL     1      -8.996   7.092  63.026  1.00  0.00     0.000 HD 
ENDBRANCH  19  22
ENDBRANCH  18  19
ENDBRANCH  15  18
ENDBRANCH  12  14
BRANCH  11  25
HETATM   25  C   UNL     1      -6.354  11.197  69.418  1.00  0.00    -0.088 C  
HETATM   26  O   UNL     1      -5.136  11.082  69.327  1.00  0.00    -0.042 OA 
HETATM   27  H   UNL     1      -8.111  10.659  70.395  1.00  0.00     0.000 HD 
HETATM   28  N   UNL     1      -7.106  10.494  70.344  1.00  0.00     0.010 N  
BRANCH  28  29
HETATM   29  C   UNL     1      -6.504   9.527  71.242  1.00  0.00     0.006 C  
BRANCH  29  30
HETATM   30  C   UNL     1      -7.165   8.166  71.082  1.00  0.00    -0.060 C  
HETATM   31  O   UNL     1      -8.337   8.108  71.898  1.00  0.00    -0.119 OA 
HETATM   32  H   UNL     1      -8.750   7.259  71.798  1.00  0.00     0.000 HD 
ENDBRANCH  29  30
ENDBRANCH  28  29
ENDBRANCH  11  25
ENDBRANCH   3   5
BRANCH   3  33
HETATM   33  C   UNL     1      -8.676  16.356  69.149  1.00  0.00    -0.185 C  
BRANCH  33  34
HETATM   34  C   UNL     1      -9.970  15.577  69.511  1.00  0.00    -0.280 C  
HETATM   35  O   UNL     1     -10.006  15.189  70.893  1.00  0.00    -0.196 OA 
HETATM   36  H   UNL     1     -10.797  14.713  71.114  1.00  0.00     0.000 HD 
BRANCH  34  37
HETATM   37  C   UNL     1     -11.246  16.387  69.219  1.00  0.00    -0.272 C  
HETATM   38  H   UNL     1     -11.721  18.126  68.398  1.00  0.00     0.000 HD 
HETATM   39  O   UNL     1     -10.934  17.626  68.578  1.00  0.00    -0.171 OA 
ENDBRANCH  34  37
ENDBRANCH  33  34
ENDBRANCH   3  33
TORSDOF 11
ENDMDL
MODEL      136
REMARK 921   NORMALIZED FREE ENERGY PREDICTED BY IDOCK:   -2.31 KCAL/MOL
REMARK 922        TOTAL FREE ENERGY PREDICTED BY IDOCK:   -4.41 KCAL/MOL
REMARK 923 INTER-LIGAND FREE ENERGY PREDICTED BY IDOCK:   -4.67 KCAL/MOL
REMARK 924 INTRA-LIGAND FREE ENERGY PREDICTED BY IDOCK:    0.26 KCAL/MOL
REMARK 927      BINDING AFFINITY PREDICTED BY RF-SCORE:    0.00 PKD
ROOT
HETATM    1  C   UNL     1     -11.704   7.376  71.103  1.00  0.00    -0.322 C  
HETATM    2  C   UNL     1     -10.990   7.513  69.787  1.00  0.00    -0.184 C  
HETATM    3  N   UNL     1      -9.934   8.426  69.711  1.00  0.00    -0.188 N  
HETATM    4  O   UNL     1     -11.324   6.801  68.836  1.00  0.00    -0.166 OA 
ENDROOT
BRANCH   3   5
HETATM    5  C   UNL     1      -9.309   8.535  68.426  1.00  0.00    -0.134 A  
HETATM    6  I   UNL     1      -7.666   8.660  63.739  1.00  0.00    -0.154 I  
HETATM    7  C   UNL     1      -8.199   8.736  65.846  1.00  0.00    -0.118 A  
HETATM    8  C   UNL     1      -8.293   7.630  68.014  1.00  0.00    -0.124 A  
HETATM    9  I   UNL     1      -7.542   6.199  69.457  1.00  0.00    -0.098 I  
HETATM   10  C   UNL     1      -9.677   9.615  67.581  1.00  0.00    -0.149 A  
HETATM   11  C   UNL     1      -9.134   9.719  66.281  1.00  0.00    -0.192 A  
HETATM   12  C   UNL     1      -7.729   7.719  66.718  1.00  0.00    -0.099 A  
HETATM   13  I   UNL     1     -11.041  11.122  68.374  1.00  0.00    -0.406 I  
BRANCH  12  14
HETATM   14  C   UNL     1      -6.733   6.692  66.270  1.00  0.00    -0.049 C  
HETATM   15  N   UNL     1      -7.222   5.496  65.781  1.00  0.00    -0.067 N  
HETATM   16  O   UNL     1      -5.532   6.925  66.357  1.00  0.00    -0.020 OA 
HETATM   17  H   UNL     1      -8.231   5.351  65.739  1.00  0.00     0.000 HD 
BRANCH  15  18
HETATM   18  C   UNL     1      -6.330   4.434  65.322  1.00  0.00    -0.035 C  
BRANCH  18  19
HETATM   19  C   UNL     1      -6.961   3.041  65.468  1.00  0.00    -0.049 C  
HETATM   20  H   UNL     1      -8.555   2.284  66.336  1.00  0.00     0.000 HD 
HETATM   21  O   UNL     1      -8.164   3.145  66.245  1.00  0.00    -0.087 OA 
BRANCH  19  22
HETATM   22  C   UNL     1      -7.257   2.407  64.098  1.00  0.00    -0.056 C  
HETATM   23  O   UNL     1      -8.594   2.665  63.674  1.00  0.00    -0.085 OA 
HETATM   24  H   UNL     1      -8.777   2.274  62.829  1.00  0.00     0.000 HD 
ENDBRANCH  19  22
ENDBRANCH  18  19
ENDBRANCH  15  18
ENDBRANCH  12  14
BRANCH  11  25
HETATM   25  C   UNL     1      -9.453  10.879  65.406  1.00  0.00    -0.214 C  
HETATM   26  O   UNL     1      -8.619  11.765  65.248  1.00  0.00     0.282 OA 
HETATM   27  H   UNL     1     -11.341  10.129  64.953  1.00  0.00     0.000 HD 
HETATM   28  N   UNL     1     -10.704  10.913  64.813  1.00  0.00    -0.250 N  
BRANCH  28  29
HETATM   29  C   UNL     1     -11.134  12.034  63.999  1.00  0.00    -0.386 C  
BRANCH  29  30
HETATM   30  C   UNL     1     -12.624  12.285  64.182  1.00  0.00    -0.394 C  
HETATM   31  O   UNL     1     -12.821  13.227  65.239  1.00  0.00    -0.629 OA 
HETATM   32  H   UNL     1     -13.751  13.383  65.353  1.00  0.00     0.000 HD 
ENDBRANCH  29  30
ENDBRANCH  28  29
ENDBRANCH  11  25
ENDBRANCH   3   5
BRANCH   3  33
HETATM   33  C   UNL     1      -9.556   9.404  70.771  1.00  0.00    -0.255 C  
BRANCH  33  34
HETATM   34  C   UNL     1      -8.478   8.956  71.795  1.00  0.00    -0.021 C  
HETATM   35  O   UNL     1      -8.410   7.528  71.928  1.00  0.00    -0.104 OA 
HETATM   36  H   UNL     1      -7.750   7.254  72.554  1.00  0.00     0.000 HD 
BRANCH  34  37
HETATM   37  C   UNL     1      -7.071   9.459  71.425  1.00  0.00     0.141 C  
HETATM   38  H   UNL     1      -5.191   8.992  71.841  1.00  0.00     0.000 HD 
HETATM   39  O   UNL     1      -6.059   8.681  72.069  1.00  0.00    -0.061 OA 
ENDBRANCH  34  37
ENDBRANCH  33  34
ENDBRANCH   3  33
TORSDOF 11
ENDMDL
MODEL      137
REMARK 921   NORMALIZED FREE ENERGY PREDICTED BY IDOCK:   -2.31 KCAL/MOL
REMARK 922        TOTAL FREE ENERGY PREDICTED BY IDOCK:   -4.41 KCAL/MOL
REMARK 923 INTER-LIGAND FREE ENERGY PREDICTED BY IDOCK:   -5.52 KCAL/MOL
REMARK 924 INTRA-LIGAND FREE ENERGY PREDICTED BY IDOCK:    1.11 KCAL/MOL
REMARK 927      BINDING AFFINITY PREDICTED BY RF-SCORE:    0.00 PKD
ROOT
HETATM    1  C   UNL     1     -13.036   6.724  70.582  1.00  0.00     0.322 C  
HETATM    2  C   UNL     1     -11.590   7.134  70.625  1.00  0.00    -0.314 C  
HETATM    3  N   UNL     1     -11.303   8.497  70.744  1.00  0.00    -0.268 N  
HETATM    4  O   UNL     1     -10.711   6.269  70.591  1.00  0.00    -0.233 OA 
ENDROOT
BRANCH   3   5
HETATM    5  C   UNL     1      -9.909   8.832  70.752  1.00  0.00    -0.205 A  
HETATM    6  I   UNL     1      -5.233  10.453  71.176  1.00  0.00    -0.032 I  
HETATM    7  C   UNL     1      -7.192   9.557  70.878  1.00  0.00    -0.044 A  
HETATM    8  C   UNL     1      -9.303   9.517  69.664  1.00  0.00    -0.200 A  
HETATM    9  I   UNL     1     -10.481   9.862  67.879  1.00  0.00    -0.313 I  
HETATM   10  C   UNL     1      -9.115   8.406  71.849  1.00  0.00    -0.221 A  
HETATM   11  C   UNL     1      -7.753   8.774  71.927  1.00  0.00    -0.058 A  
HETATM   12  C   UNL     1      -7.937   9.891  69.717  1.00  0.00    -0.181 A  
HETATM   13  I   UNL     1     -10.042   7.127  73.354  1.00  0.00    -0.408 I  
BRANCH  12  14
HETATM   14  C   UNL     1      -7.347  10.701  68.604  1.00  0.00    -0.094 C  
HETATM   15  N   UNL     1      -7.542  12.068  68.633  1.00  0.00    -0.159 N  
HETATM   16  O   UNL     1      -6.727  10.145  67.703  1.00  0.00    -0.073 OA 
HETATM   17  H   UNL     1      -8.073  12.478  69.402  1.00  0.00     0.000 HD 
BRANCH  15  18
HETATM   18  C   UNL     1      -7.005  12.942  67.592  1.00  0.00    -0.152 C  
BRANCH  18  19
HETATM   19  C   UNL     1      -7.669  14.328  67.597  1.00  0.00    -0.177 C  
HETATM   20  H   UNL     1      -7.180  16.143  67.021  1.00  0.00     0.000 HD 
HETATM   21  O   UNL     1      -6.769  15.286  67.018  1.00  0.00    -0.251 OA 
BRANCH  19  22
HETATM   22  C   UNL     1      -9.008  14.318  66.840  1.00  0.00    -0.236 C  
HETATM   23  O   UNL     1      -9.969  13.480  67.478  1.00  0.00    -0.225 OA 
HETATM   24  H   UNL     1     -10.796  13.474  67.010  1.00  0.00     0.000 HD 
ENDBRANCH  19  22
ENDBRANCH  18  19
ENDBRANCH  15  18
ENDBRANCH  12  14
BRANCH  11  25
HETATM   25  C   UNL     1      -6.887   8.281  73.031  1.00  0.00    -0.101 C  
HETATM   26  O   UNL     1      -6.791   8.936  74.065  1.00  0.00    -0.348 OA 
HETATM   27  H   UNL     1      -6.352   6.575  71.966  1.00  0.00     0.000 HD 
HETATM   28  N   UNL     1      -6.204   7.092  72.832  1.00  0.00    -0.056 N  
BRANCH  28  29
HETATM   29  C   UNL     1      -5.283   6.564  73.821  1.00  0.00    -0.041 C  
BRANCH  29  30
HETATM   30  C   UNL     1      -5.796   5.243  74.374  1.00  0.00    -0.048 C  
HETATM   31  O   UNL     1      -6.216   4.406  73.294  1.00  0.00    -0.029 OA 
HETATM   32  H   UNL     1      -6.536   3.581  73.639  1.00  0.00     0.000 HD 
ENDBRANCH  29  30
ENDBRANCH  28  29
ENDBRANCH  11  25
ENDBRANCH   3   5
BRANCH   3  33
HETATM   33  C   UNL     1     -12.300   9.603  70.663  1.00  0.00    -0.128 C  
BRANCH  33  34
HETATM   34  C   UNL     1     -13.266   9.773  71.867  1.00  0.00    -0.449 C  
HETATM   35  O   UNL     1     -12.806   9.085  73.039  1.00  0.00    -0.549 OA 
HETATM   36  H   UNL     1     -13.397   9.189  73.776  1.00  0.00     0.000 HD 
BRANCH  34  37
HETATM   37  C   UNL     1     -13.479  11.250  72.245  1.00  0.00     0.079 C  
HETATM   38  H   UNL     1     -13.101  13.032  71.466  1.00  0.00     0.000 HD 
HETATM   39  O   UNL     1     -12.970  12.120  71.232  1.00  0.00    -0.326 OA 
ENDBRANCH  34  37
ENDBRANCH  33  34
ENDBRANCH   3  33
TORSDOF 11
ENDMDL
MODEL      138
REMARK 921   NORMALIZED FREE ENERGY PREDICTED BY IDOCK:   -2.27 KCAL/MOL
REMARK 922        TOTAL FREE ENERGY PREDICTED BY IDOCK:   -4.34 KCAL/MOL
REMARK 923 INTER-LIGAND FREE ENERGY PREDICTED BY IDOCK:   -5.75 KCAL/MOL
REMARK 924 INTRA-LIGAND FREE ENERGY PREDICTED BY IDOCK:    1.41 KCAL/MOL
REMARK 927      BINDING AFFINITY PREDICTED BY RF-SCORE:    0.00 PKD
ROOT
HETATM    1  C   UNL     1      -6.379   8.835  64.622  1.00  0.00    -0.066 C  
HETATM    2  C   UNL     1      -7.142   9.924  65.323  1.00  0.00    -0.130 C  
HETATM    3  N   UNL     1      -7.085   9.965  66.719  1.00  0.00    -0.089 N  
HETATM    4  O   UNL     1      -7.759  10.760  64.657  1.00  0.00     0.049 OA 
ENDROOT
BRANCH   3   5
HETATM    5  C   UNL     1      -7.853  11.007  67.334  1.00  0.00    -0.118 A  
HETATM    6  I   UNL     1     -10.776  14.704  68.902  1.00  0.00    -0.268 I  
HETATM    7  C   UNL     1      -9.447  13.047  68.441  1.00  0.00    -0.165 A  
HETATM    8  C   UNL     1      -7.281  12.272  67.639  1.00  0.00    -0.128 A  
HETATM    9  I   UNL     1      -5.150  12.534  67.355  1.00  0.00     0.129 I  
HETATM   10  C   UNL     1      -9.197  10.733  67.701  1.00  0.00    -0.147 A  
HETATM   11  C   UNL     1     -10.009  11.752  68.247  1.00  0.00    -0.200 A  
HETATM   12  C   UNL     1      -8.074  13.307  68.193  1.00  0.00    -0.159 A  
HETATM   13  I   UNL     1      -9.935   8.694  67.455  1.00  0.00    -0.348 I  
BRANCH  12  14
HETATM   14  C   UNL     1      -7.474  14.664  68.411  1.00  0.00    -0.117 C  
HETATM   15  N   UNL     1      -7.589  15.587  67.390  1.00  0.00    -0.182 N  
HETATM   16  O   UNL     1      -6.896  14.916  69.463  1.00  0.00    -0.146 OA 
HETATM   17  H   UNL     1      -8.073  15.321  66.532  1.00  0.00     0.000 HD 
BRANCH  15  18
HETATM   18  C   UNL     1      -7.036  16.934  67.508  1.00  0.00    -0.147 C  
BRANCH  18  19
HETATM   19  C   UNL     1      -7.734  17.754  68.604  1.00  0.00    -0.283 C  
HETATM   20  H   UNL     1      -7.173  18.862  70.129  1.00  0.00     0.000 HD 
HETATM   21  O   UNL     1      -6.742  18.355  69.451  1.00  0.00    -0.252 OA 
BRANCH  19  22
HETATM   22  C   UNL     1      -8.655  18.832  68.005  1.00  0.00    -0.297 C  
HETATM   23  O   UNL     1      -9.858  18.975  68.756  1.00  0.00    -0.392 OA 
HETATM   24  H   UNL     1     -10.426  19.640  68.387  1.00  0.00     0.000 HD 
ENDBRANCH  19  22
ENDBRANCH  18  19
ENDBRANCH  15  18
ENDBRANCH  12  14
BRANCH  11  25
HETATM   25  C   UNL     1     -11.396  11.469  68.702  1.00  0.00    -0.269 C  
HETATM   26  O   UNL     1     -12.335  11.655  67.933  1.00  0.00    -0.404 OA 
HETATM   27  H   UNL     1     -10.746  10.844  70.577  1.00  0.00     0.000 HD 
HETATM   28  N   UNL     1     -11.569  11.015  69.998  1.00  0.00    -0.318 N  
BRANCH  28  29
HETATM   29  C   UNL     1     -12.886  10.775  70.556  1.00  0.00    -0.256 C  
BRANCH  29  30
HETATM   30  C   UNL     1     -13.072  11.567  71.843  1.00  0.00    -0.387 C  
HETATM   31  O   UNL     1     -13.099  12.964  71.542  1.00  0.00    -0.374 OA 
HETATM   32  H   UNL     1     -13.215  13.458  72.345  1.00  0.00     0.000 HD 
ENDBRANCH  29  30
ENDBRANCH  28  29
ENDBRANCH  11  25
ENDBRANCH   3   5
BRANCH   3  33
HETATM   33  C   UNL     1      -6.471   8.924  67.592  1.00  0.00    -0.061 C  
BRANCH  33  34
HETATM   34  C   UNL     1      -6.374   7.484  67.016  1.00  0.00    -0.053 C  
HETATM   35  O   UNL     1      -5.148   7.262  66.304  1.00  0.00    -0.022 OA 
HETATM   36  H   UNL     1      -5.088   6.382  65.952  1.00  0.00     0.000 HD 
BRANCH  34  37
HETATM   37  C   UNL     1      -6.483   6.405  68.108  1.00  0.00    -0.053 C  
HETATM   38  H   UNL     1      -7.687   5.966  69.619  1.00  0.00     0.000 HD 
HETATM   39  O   UNL     1      -7.620   6.632  68.944  1.00  0.00    -0.096 OA 
ENDBRANCH  34  37
ENDBRANCH  33  34
ENDBRANCH   3  33
TORSDOF 11
ENDMDL
MODEL      139
REMARK 921   NORMALIZED FREE ENERGY PREDICTED BY IDOCK:   -2.25 KCAL/MOL
REMARK 922        TOTAL FREE ENERGY PREDICTED BY IDOCK:   -4.30 KCAL/MOL
REMARK 923 INTER-LIGAND FREE ENERGY PREDICTED BY IDOCK:   -4.72 KCAL/MOL
REMARK 924 INTRA-LIGAND FREE ENERGY PREDICTED BY IDOCK:    0.42 KCAL/MOL
REMARK 927      BINDING AFFINITY PREDICTED BY RF-SCORE:    0.00 PKD
ROOT
HETATM    1  C   UNL     1      -7.190  17.150  66.583  1.00  0.00    -0.282 C  
HETATM    2  C   UNL     1      -7.854  15.812  66.755  1.00  0.00    -0.213 C  
HETATM    3  N   UNL     1      -7.304  14.927  67.685  1.00  0.00    -0.171 N  
HETATM    4  O   UNL     1      -8.871  15.550  66.107  1.00  0.00    -0.320 OA 
ENDROOT
BRANCH   3   5
HETATM    5  C   UNL     1      -7.961  13.657  67.787  1.00  0.00    -0.172 A  
HETATM    6  I   UNL     1     -10.320   9.293  67.517  1.00  0.00    -0.292 I  
HETATM    7  C   UNL     1      -9.234  11.147  67.856  1.00  0.00    -0.154 A  
HETATM    8  C   UNL     1      -9.285  13.543  68.293  1.00  0.00    -0.195 A  
HETATM    9  I   UNL     1     -10.227  15.308  69.119  1.00  0.00    -0.266 I  
HETATM   10  C   UNL     1      -7.238  12.488  67.431  1.00  0.00    -0.146 A  
HETATM   11  C   UNL     1      -7.871  11.225  67.451  1.00  0.00    -0.128 A  
HETATM   12  C   UNL     1      -9.937  12.285  68.329  1.00  0.00    -0.216 A  
HETATM   13  I   UNL     1      -5.127  12.700  66.920  1.00  0.00     1.105 I  
BRANCH  12  14
HETATM   14  C   UNL     1     -11.367  12.205  68.771  1.00  0.00    -0.288 C  
HETATM   15  N   UNL     1     -11.613  11.889  70.093  1.00  0.00    -0.520 N  
HETATM   16  O   UNL     1     -12.269  12.404  67.964  1.00  0.00    -0.356 OA 
HETATM   17  H   UNL     1     -10.824  11.723  70.719  1.00  0.00     0.000 HD 
BRANCH  15  18
HETATM   18  C   UNL     1     -12.973  11.786  70.617  1.00  0.00     0.123 C  
BRANCH  18  19
HETATM   19  C   UNL     1     -12.999  11.311  72.077  1.00  0.00    -0.274 C  
HETATM   20  H   UNL     1     -14.006  11.764  73.705  1.00  0.00     0.000 HD 
HETATM   21  O   UNL     1     -13.990  12.057  72.801  1.00  0.00     0.306 OA 
BRANCH  19  22
HETATM   22  C   UNL     1     -13.280   9.802  72.178  1.00  0.00    -0.436 C  
HETATM   23  O   UNL     1     -12.728   9.087  71.074  1.00  0.00    -0.475 OA 
HETATM   24  H   UNL     1     -12.902   8.156  71.136  1.00  0.00     0.000 HD 
ENDBRANCH  19  22
ENDBRANCH  18  19
ENDBRANCH  15  18
ENDBRANCH  12  14
BRANCH  11  25
HETATM   25  C   UNL     1      -7.113   9.981  67.149  1.00  0.00    -0.089 C  
HETATM   26  O   UNL     1      -6.879   9.683  65.982  1.00  0.00    -0.084 OA 
HETATM   27  H   UNL     1      -6.906   9.515  69.167  1.00  0.00     0.000 HD 
HETATM   28  N   UNL     1      -6.713   9.196  68.217  1.00  0.00    -0.060 N  
BRANCH  28  29
HETATM   29  C   UNL     1      -6.029   7.931  68.023  1.00  0.00    -0.041 C  
BRANCH  29  30
HETATM   30  C   UNL     1      -7.020   6.777  68.069  1.00  0.00    -0.080 C  
HETATM   31  O   UNL     1      -6.524   5.759  68.941  1.00  0.00    -0.041 OA 
HETATM   32  H   UNL     1      -7.143   5.039  68.970  1.00  0.00     0.000 HD 
ENDBRANCH  29  30
ENDBRANCH  28  29
ENDBRANCH  11  25
ENDBRANCH   3   5
BRANCH   3  33
HETATM   33  C   UNL     1      -6.014  15.120  68.408  1.00  0.00    -0.105 C  
BRANCH  33  34
HETATM   34  C   UNL     1      -6.094  15.471  69.919  1.00  0.00    -0.157 C  
HETATM   35  O   UNL     1      -5.167  14.711  70.707  1.00  0.00    -0.114 OA 
HETATM   36  H   UNL     1      -5.216  14.926  71.631  1.00  0.00     0.000 HD 
BRANCH  34  37
HETATM   37  C   UNL     1      -5.827  16.963  70.190  1.00  0.00    -0.177 C  
HETATM   38  H   UNL     1      -4.994  18.068  71.608  1.00  0.00     0.000 HD 
HETATM   39  O   UNL     1      -5.159  17.148  71.440  1.00  0.00    -0.404 OA 
ENDBRANCH  34  37
ENDBRANCH  33  34
ENDBRANCH   3  33
TORSDOF 11
ENDMDL
MODEL      140
REMARK 921   NORMALIZED FREE ENERGY PREDICTED BY IDOCK:   -2.24 KCAL/MOL
REMARK 922        TOTAL FREE ENERGY PREDICTED BY IDOCK:   -4.28 KCAL/MOL
REMARK 923 INTER-LIGAND FREE ENERGY PREDICTED BY IDOCK:   -4.35 KCAL/MOL
REMARK 924 INTRA-LIGAND FREE ENERGY PREDICTED BY IDOCK:    0.07 KCAL/MOL
REMARK 927      BINDING AFFINITY PREDICTED BY RF-SCORE:    0.00 PKD
ROOT
HETATM    1  C   UNL     1     -13.272   6.900  70.835  1.00  0.00     0.071 C  
HETATM    2  C   UNL     1     -11.796   7.139  70.678  1.00  0.00    -0.291 C  
HETATM    3  N   UNL     1     -11.363   8.459  70.527  1.00  0.00    -0.249 N  
HETATM    4  O   UNL     1     -11.017   6.183  70.723  1.00  0.00    -0.268 OA 
ENDROOT
BRANCH   3   5
HETATM    5  C   UNL     1      -9.950   8.624  70.354  1.00  0.00    -0.187 A  
HETATM    6  I   UNL     1      -5.126   9.763  70.021  1.00  0.00    -0.035 I  
HETATM    7  C   UNL     1      -7.177   9.047  70.104  1.00  0.00    -0.062 A  
HETATM    8  C   UNL     1      -9.386   8.925  69.084  1.00  0.00    -0.148 A  
HETATM    9  I   UNL     1     -10.686   8.916  67.352  1.00  0.00     0.225 I  
HETATM   10  C   UNL     1      -9.100   8.417  71.472  1.00  0.00    -0.195 A  
HETATM   11  C   UNL     1      -7.709   8.637  71.360  1.00  0.00    -0.150 A  
HETATM   12  C   UNL     1      -7.993   9.143  68.946  1.00  0.00    -0.099 A  
HETATM   13  I   UNL     1      -9.997   7.695  73.325  1.00  0.00    -0.225 I  
BRANCH  12  14
HETATM   14  C   UNL     1      -7.436   9.559  67.619  1.00  0.00    -0.091 C  
HETATM   15  N   UNL     1      -6.838   8.586  66.841  1.00  0.00    -0.069 N  
HETATM   16  O   UNL     1      -7.508  10.731  67.263  1.00  0.00    -0.095 OA 
HETATM   17  H   UNL     1      -6.796   7.628  67.190  1.00  0.00     0.000 HD 
BRANCH  15  18
HETATM   18  C   UNL     1      -6.265   8.895  65.533  1.00  0.00    -0.056 C  
BRANCH  18  19
HETATM   19  C   UNL     1      -6.607   7.828  64.482  1.00  0.00    -0.048 C  
HETATM   20  H   UNL     1      -5.978   6.021  64.030  1.00  0.00     0.000 HD 
HETATM   21  O   UNL     1      -5.766   6.680  64.680  1.00  0.00    -0.029 OA 
BRANCH  19  22
HETATM   22  C   UNL     1      -8.091   7.426  64.546  1.00  0.00    -0.079 C  
HETATM   23  O   UNL     1      -8.362   6.277  63.745  1.00  0.00    -0.304 OA 
HETATM   24  H   UNL     1      -9.278   6.029  63.785  1.00  0.00     0.000 HD 
ENDBRANCH  19  22
ENDBRANCH  18  19
ENDBRANCH  15  18
ENDBRANCH  12  14
BRANCH  11  25
HETATM   25  C   UNL     1      -6.793   8.359  72.499  1.00  0.00    -0.088 C  
HETATM   26  O   UNL     1      -6.511   9.260  73.283  1.00  0.00    -0.313 OA 
HETATM   27  H   UNL     1      -6.580   6.362  71.953  1.00  0.00     0.000 HD 
HETATM   28  N   UNL     1      -6.280   7.078  72.615  1.00  0.00    -0.052 N  
BRANCH  28  29
HETATM   29  C   UNL     1      -5.327   6.726  73.650  1.00  0.00    -0.042 C  
BRANCH  29  30
HETATM   30  C   UNL     1      -5.634   5.344  74.209  1.00  0.00    -0.031 C  
HETATM   31  O   UNL     1      -6.789   4.813  73.556  1.00  0.00    -0.065 OA 
HETATM   32  H   UNL     1      -6.981   3.950  73.905  1.00  0.00     0.000 HD 
ENDBRANCH  29  30
ENDBRANCH  28  29
ENDBRANCH  11  25
ENDBRANCH   3   5
BRANCH   3  33
HETATM   33  C   UNL     1     -12.247   9.645  70.337  1.00  0.00    -0.001 C  
BRANCH  33  34
HETATM   34  C   UNL     1     -11.832  10.958  71.055  1.00  0.00    -0.191 C  
HETATM   35  O   UNL     1     -11.189  11.886  70.168  1.00  0.00    -0.490 OA 
HETATM   36  H   UNL     1     -10.936  12.689  70.607  1.00  0.00     0.000 HD 
BRANCH  34  37
HETATM   37  C   UNL     1     -13.029  11.680  71.699  1.00  0.00    -0.378 C  
HETATM   38  H   UNL     1     -13.564  13.539  72.126  1.00  0.00     0.000 HD 
HETATM   39  O   UNL     1     -12.825  13.094  71.728  1.00  0.00    -0.318 OA 
ENDBRANCH  34  37
ENDBRANCH  33  34
ENDBRANCH   3  33
TORSDOF 11
ENDMDL
MODEL      141
REMARK 921   NORMALIZED FREE ENERGY PREDICTED BY IDOCK:   -2.20 KCAL/MOL
REMARK 922        TOTAL FREE ENERGY PREDICTED BY IDOCK:   -4.23 KCAL/MOL
REMARK 923 INTER-LIGAND FREE ENERGY PREDICTED BY IDOCK:   -4.34 KCAL/MOL
REMARK 924 INTRA-LIGAND FREE ENERGY PREDICTED BY IDOCK:    0.11 KCAL/MOL
REMARK 927      BINDING AFFINITY PREDICTED BY RF-SCORE:    0.00 PKD
ROOT
HETATM    1  C   UNL     1      -9.727  10.018  64.234  1.00  0.00    -0.242 C  
HETATM    2  C   UNL     1      -9.442   9.934  65.708  1.00  0.00    -0.222 C  
HETATM    3  N   UNL     1      -8.604   8.907  66.151  1.00  0.00    -0.133 N  
HETATM    4  O   UNL     1      -9.919  10.780  66.469  1.00  0.00    -0.199 OA 
ENDROOT
BRANCH   3   5
HETATM    5  C   UNL     1      -8.390   8.859  67.568  1.00  0.00    -0.109 A  
HETATM    6  I   UNL     1      -7.151   8.330  72.349  1.00  0.00    -0.057 I  
HETATM    7  C   UNL     1      -7.846   8.724  70.327  1.00  0.00    -0.095 A  
HETATM    8  C   UNL     1      -9.186   8.038  68.412  1.00  0.00    -0.135 A  
HETATM    9  I   UNL     1     -10.887   7.013  67.547  1.00  0.00    -0.186 I  
HETATM   10  C   UNL     1      -7.400   9.704  68.134  1.00  0.00    -0.081 A  
HETATM   11  C   UNL     1      -7.112   9.636  69.516  1.00  0.00    -0.072 A  
HETATM   12  C   UNL     1      -8.920   7.959  69.802  1.00  0.00    -0.146 A  
HETATM   13  I   UNL     1      -6.399  11.135  66.827  1.00  0.00    -0.111 I  
BRANCH  12  14
HETATM   14  C   UNL     1      -9.706   7.010  70.654  1.00  0.00    -0.172 C  
HETATM   15  N   UNL     1      -9.291   5.693  70.699  1.00  0.00    -0.156 N  
HETATM   16  O   UNL     1     -10.688   7.410  71.271  1.00  0.00    -0.221 OA 
HETATM   17  H   UNL     1      -8.472   5.412  70.158  1.00  0.00     0.000 HD 
BRANCH  15  18
HETATM   18  C   UNL     1      -9.993   4.694  71.500  1.00  0.00    -0.195 C  
BRANCH  18  19
HETATM   19  C   UNL     1      -9.292   3.327  71.470  1.00  0.00    -0.134 C  
HETATM   20  H   UNL     1      -9.815   1.452  71.749  1.00  0.00     0.000 HD 
HETATM   21  O   UNL     1     -10.248   2.297  71.768  1.00  0.00    -0.138 OA 
BRANCH  19  22
HETATM   22  C   UNL     1      -8.623   3.064  70.110  1.00  0.00    -0.060 C  
HETATM   23  O   UNL     1      -9.335   3.685  69.042  1.00  0.00    -0.148 OA 
HETATM   24  H   UNL     1      -8.921   3.523  68.202  1.00  0.00     0.000 HD 
ENDBRANCH  19  22
ENDBRANCH  18  19
ENDBRANCH  15  18
ENDBRANCH  12  14
BRANCH  11  25
HETATM   25  C   UNL     1      -6.128  10.560  70.141  1.00  0.00    -0.105 C  
HETATM   26  O   UNL     1      -5.129  10.102  70.687  1.00  0.00    -0.037 OA 
HETATM   27  H   UNL     1      -7.228  12.240  69.593  1.00  0.00     0.000 HD 
HETATM   28  N   UNL     1      -6.399  11.918  70.092  1.00  0.00    -0.089 N  
BRANCH  28  29
HETATM   29  C   UNL     1      -5.536  12.893  70.731  1.00  0.00    -0.177 C  
BRANCH  29  30
HETATM   30  C   UNL     1      -5.977  14.307  70.378  1.00  0.00    -0.171 C  
HETATM   31  O   UNL     1      -7.333  14.282  69.927  1.00  0.00    -0.375 OA 
HETATM   32  H   UNL     1      -7.608  15.165  69.706  1.00  0.00     0.000 HD 
ENDBRANCH  29  30
ENDBRANCH  28  29
ENDBRANCH  11  25
ENDBRANCH   3   5
BRANCH   3  33
HETATM   33  C   UNL     1      -8.097   7.781  65.316  1.00  0.00    -0.133 C  
BRANCH  33  34
HETATM   34  C   UNL     1      -6.691   7.951  64.677  1.00  0.00    -0.059 C  
HETATM   35  O   UNL     1      -5.692   7.159  65.335  1.00  0.00    -0.034 OA 
HETATM   36  H   UNL     1      -4.832   7.263  64.944  1.00  0.00     0.000 HD 
BRANCH  34  37
HETATM   37  C   UNL     1      -6.676   7.577  63.184  1.00  0.00    -0.058 C  
HETATM   38  H   UNL     1      -6.908   8.491  61.441  1.00  0.00     0.000 HD 
HETATM   39  O   UNL     1      -6.917   8.722  62.363  1.00  0.00    -0.095 OA 
ENDBRANCH  34  37
ENDBRANCH  33  34
ENDBRANCH   3  33
TORSDOF 11
ENDMDL
MODEL      142
REMARK 921   NORMALIZED FREE ENERGY PREDICTED BY IDOCK:   -2.20 KCAL/MOL
REMARK 922        TOTAL FREE ENERGY PREDICTED BY IDOCK:   -4.22 KCAL/MOL
REMARK 923 INTER-LIGAND FREE ENERGY PREDICTED BY IDOCK:   -6.25 KCAL/MOL
REMARK 924 INTRA-LIGAND FREE ENERGY PREDICTED BY IDOCK:    2.02 KCAL/MOL
REMARK 927      BINDING AFFINITY PREDICTED BY RF-SCORE:    0.00 PKD
ROOT
HETATM    1  C   UNL     1     -13.566   8.812  72.633  1.00  0.00    -0.349 C  
HETATM    2  C   UNL     1     -13.008   9.175  71.285  1.00  0.00    -0.251 C  
HETATM    3  N   UNL     1     -11.623   9.111  71.115  1.00  0.00    -0.295 N  
HETATM    4  O   UNL     1     -13.778   9.479  70.371  1.00  0.00     0.239 OA 
ENDROOT
BRANCH   3   5
HETATM    5  C   UNL     1     -11.146   9.493  69.818  1.00  0.00    -0.191 A  
HETATM    6  I   UNL     1     -10.083  10.739  65.129  1.00  0.00    -0.331 I  
HETATM    7  C   UNL     1     -10.334  10.270  67.237  1.00  0.00    -0.232 A  
HETATM    8  C   UNL     1     -10.396   8.598  69.008  1.00  0.00    -0.213 A  
HETATM    9  I   UNL     1      -9.791   6.700  69.857  1.00  0.00    -0.204 I  
HETATM   10  C   UNL     1     -11.380  10.821  69.374  1.00  0.00    -0.285 A  
HETATM   11  C   UNL     1     -10.986  11.218  68.076  1.00  0.00    -0.302 A  
HETATM   12  C   UNL     1      -9.984   8.976  67.706  1.00  0.00    -0.235 A  
HETATM   13  I   UNL     1     -12.297  12.226  70.769  1.00  0.00     0.138 I  
BRANCH  12  14
HETATM   14  C   UNL     1      -9.284   7.981  66.831  1.00  0.00    -0.154 C  
HETATM   15  N   UNL     1     -10.040   6.961  66.288  1.00  0.00    -0.435 N  
HETATM   16  O   UNL     1      -8.078   8.083  66.632  1.00  0.00    -0.100 OA 
HETATM   17  H   UNL     1     -11.038   6.919  66.494  1.00  0.00     0.000 HD 
BRANCH  15  18
HETATM   18  C   UNL     1      -9.447   5.943  65.424  1.00  0.00     0.328 C  
BRANCH  18  19
HETATM   19  C   UNL     1      -8.826   4.790  66.227  1.00  0.00    -0.114 C  
HETATM   20  H   UNL     1      -9.108   2.850  66.384  1.00  0.00     0.000 HD 
HETATM   21  O   UNL     1      -9.492   3.563  65.888  1.00  0.00    -0.169 OA 
BRANCH  19  22
HETATM   22  C   UNL     1      -7.314   4.671  65.972  1.00  0.00    -0.077 C  
HETATM   23  O   UNL     1      -6.558   5.437  66.908  1.00  0.00    -0.049 OA 
HETATM   24  H   UNL     1      -5.625   5.364  66.750  1.00  0.00     0.000 HD 
ENDBRANCH  19  22
ENDBRANCH  18  19
ENDBRANCH  15  18
ENDBRANCH  12  14
BRANCH  11  25
HETATM   25  C   UNL     1     -11.159  12.622  67.617  1.00  0.00    -0.263 C  
HETATM   26  O   UNL     1     -12.185  12.943  67.024  1.00  0.00    -0.391 OA 
HETATM   27  H   UNL     1      -9.318  13.196  68.399  1.00  0.00     0.000 HD 
HETATM   28  N   UNL     1     -10.130  13.513  67.870  1.00  0.00    -0.242 N  
BRANCH  28  29
HETATM   29  C   UNL     1     -10.175  14.886  67.402  1.00  0.00    -0.234 C  
BRANCH  29  30
HETATM   30  C   UNL     1     -10.844  15.780  68.437  1.00  0.00    -0.297 C  
HETATM   31  O   UNL     1     -10.020  15.856  69.603  1.00  0.00    -0.265 OA 
HETATM   32  H   UNL     1     -10.438  16.413  70.248  1.00  0.00     0.000 HD 
ENDBRANCH  29  30
ENDBRANCH  28  29
ENDBRANCH  11  25
ENDBRANCH   3   5
BRANCH   3  33
HETATM   33  C   UNL     1     -10.626   8.877  72.199  1.00  0.00    -0.253 C  
BRANCH  33  34
HETATM   34  C   UNL     1     -10.906   7.701  73.176  1.00  0.00    -0.382 C  
HETATM   35  O   UNL     1     -11.405   6.537  72.501  1.00  0.00    -0.264 OA 
HETATM   36  H   UNL     1     -11.576   5.819  73.098  1.00  0.00     0.000 HD 
BRANCH  34  37
HETATM   37  C   UNL     1      -9.653   7.283  73.966  1.00  0.00    -0.243 C  
HETATM   38  H   UNL     1      -8.614   5.630  74.299  1.00  0.00     0.000 HD 
HETATM   39  O   UNL     1      -9.387   5.888  73.811  1.00  0.00    -0.130 OA 
ENDBRANCH  34  37
ENDBRANCH  33  34
ENDBRANCH   3  33
TORSDOF 11
ENDMDL
MODEL      143
REMARK 921   NORMALIZED FREE ENERGY PREDICTED BY IDOCK:   -2.20 KCAL/MOL
REMARK 922        TOTAL FREE ENERGY PREDICTED BY IDOCK:   -4.22 KCAL/MOL
REMARK 923 INTER-LIGAND FREE ENERGY PREDICTED BY IDOCK:   -3.57 KCAL/MOL
REMARK 924 INTRA-LIGAND FREE ENERGY PREDICTED BY IDOCK:   -0.65 KCAL/MOL
REMARK 927      BINDING AFFINITY PREDICTED BY RF-SCORE:    0.00 PKD
ROOT
HETATM    1  C   UNL     1     -10.141   3.366  63.986  1.00  0.00    -0.197 C  
HETATM    2  C   UNL     1      -9.842   4.178  65.215  1.00  0.00    -0.208 C  
HETATM    3  N   UNL     1      -8.502   4.445  65.509  1.00  0.00    -0.114 N  
HETATM    4  O   UNL     1     -10.773   4.610  65.900  1.00  0.00    -0.307 OA 
ENDROOT
BRANCH   3   5
HETATM    5  C   UNL     1      -8.275   5.199  66.707  1.00  0.00    -0.108 A  
HETATM    6  I   UNL     1      -6.881   7.800  70.702  1.00  0.00    -0.042 I  
HETATM    7  C   UNL     1      -7.712   6.715  69.011  1.00  0.00    -0.109 A  
HETATM    8  C   UNL     1      -8.307   4.586  67.989  1.00  0.00    -0.094 A  
HETATM    9  I   UNL     1      -8.924   2.514  68.125  1.00  0.00    -0.254 I  
HETATM   10  C   UNL     1      -8.079   6.601  66.599  1.00  0.00    -0.110 A  
HETATM   11  C   UNL     1      -7.785   7.370  67.748  1.00  0.00    -0.112 A  
HETATM   12  C   UNL     1      -8.022   5.338  69.156  1.00  0.00    -0.089 A  
HETATM   13  I   UNL     1      -8.310   7.524  64.636  1.00  0.00     0.294 I  
BRANCH  12  14
HETATM   14  C   UNL     1      -7.961   4.649  70.485  1.00  0.00    -0.061 C  
HETATM   15  N   UNL     1      -9.037   4.805  71.337  1.00  0.00    -0.132 N  
HETATM   16  O   UNL     1      -6.974   3.986  70.787  1.00  0.00    -0.032 OA 
HETATM   17  H   UNL     1      -9.829   5.375  71.039  1.00  0.00     0.000 HD 
BRANCH  15  18
HETATM   18  C   UNL     1      -9.069   4.173  72.654  1.00  0.00    -0.109 C  
BRANCH  18  19
HETATM   19  C   UNL     1     -10.461   3.623  73.001  1.00  0.00    -0.170 C  
HETATM   20  H   UNL     1     -11.209   1.898  73.576  1.00  0.00     0.000 HD 
HETATM   21  O   UNL     1     -10.348   2.238  73.361  1.00  0.00    -0.105 OA 
BRANCH  19  22
HETATM   22  C   UNL     1     -11.119   4.424  74.139  1.00  0.00     0.012 C  
HETATM   23  O   UNL     1     -11.284   5.797  73.791  1.00  0.00    -0.401 OA 
HETATM   24  H   UNL     1     -11.690   6.291  74.493  1.00  0.00     0.000 HD 
ENDBRANCH  19  22
ENDBRANCH  18  19
ENDBRANCH  15  18
ENDBRANCH  12  14
BRANCH  11  25
HETATM   25  C   UNL     1      -7.646   8.848  67.667  1.00  0.00    -0.093 C  
HETATM   26  O   UNL     1      -6.572   9.338  67.328  1.00  0.00    -0.063 OA 
HETATM   27  H   UNL     1      -9.623   9.153  68.240  1.00  0.00     0.000 HD 
HETATM   28  N   UNL     1      -8.747   9.618  68.001  1.00  0.00    -0.119 N  
BRANCH  28  29
HETATM   29  C   UNL     1      -8.691  11.067  68.020  1.00  0.00    -0.138 C  
BRANCH  29  30
HETATM   30  C   UNL     1      -8.983  11.630  66.636  1.00  0.00    -0.189 C  
HETATM   31  O   UNL     1      -7.826  11.481  65.809  1.00  0.00    -0.359 OA 
HETATM   32  H   UNL     1      -8.008  11.832  64.945  1.00  0.00     0.000 HD 
ENDBRANCH  29  30
ENDBRANCH  28  29
ENDBRANCH  11  25
ENDBRANCH   3   5
BRANCH   3  33
HETATM   33  C   UNL     1      -7.326   3.855  64.806  1.00  0.00    -0.068 C  
BRANCH  33  34
HETATM   34  C   UNL     1      -6.837   2.463  65.292  1.00  0.00    -0.043 C  
HETATM   35  O   UNL     1      -6.897   1.471  64.257  1.00  0.00    -0.028 OA 
HETATM   36  H   UNL     1      -6.598   0.620  64.554  1.00  0.00     0.000 HD 
BRANCH  34  37
HETATM   37  C   UNL     1      -5.392   2.500  65.821  1.00  0.00    -0.008 C  
HETATM   38  H   UNL     1      -4.474   2.557  67.576  1.00  0.00     0.000 HD 
HETATM   39  O   UNL     1      -5.366   2.534  67.250  1.00  0.00    -0.015 OA 
ENDBRANCH  34  37
ENDBRANCH  33  34
ENDBRANCH   3  33
TORSDOF 11
ENDMDL
MODEL      144
REMARK 921   NORMALIZED FREE ENERGY PREDICTED BY IDOCK:   -2.00 KCAL/MOL
REMARK 922        TOTAL FREE ENERGY PREDICTED BY IDOCK:   -3.89 KCAL/MOL
REMARK 923 INTER-LIGAND FREE ENERGY PREDICTED BY IDOCK:   -3.79 KCAL/MOL
REMARK 924 INTRA-LIGAND FREE ENERGY PREDICTED BY IDOCK:   -0.10 KCAL/MOL
REMARK 927      BINDING AFFINITY PREDICTED BY RF-SCORE:    0.00 PKD
ROOT
HETATM    1  C   UNL     1      -8.129   8.964  73.489  1.00  0.00     0.542 C  
HETATM    2  C   UNL     1      -7.880   8.331  72.148  1.00  0.00    -0.128 C  
HETATM    3  N   UNL     1      -8.837   8.525  71.148  1.00  0.00    -0.162 N  
HETATM    4  O   UNL     1      -6.838   7.698  71.959  1.00  0.00    -0.059 OA 
ENDROOT
BRANCH   3   5
HETATM    5  C   UNL     1      -8.561   7.875  69.901  1.00  0.00    -0.139 A  
HETATM    6  I   UNL     1      -8.052   5.991  65.333  1.00  0.00    -0.135 I  
HETATM    7  C   UNL     1      -8.079   6.700  67.388  1.00  0.00    -0.121 A  
HETATM    8  C   UNL     1      -9.019   6.557  69.631  1.00  0.00    -0.141 A  
HETATM    9  I   UNL     1      -9.967   5.448  71.232  1.00  0.00    -0.286 I  
HETATM   10  C   UNL     1      -7.755   8.552  68.947  1.00  0.00    -0.100 A  
HETATM   11  C   UNL     1      -7.516   7.976  67.680  1.00  0.00    -0.097 A  
HETATM   12  C   UNL     1      -8.786   5.956  68.369  1.00  0.00    -0.112 A  
HETATM   13  I   UNL     1      -6.858  10.455  69.525  1.00  0.00    -0.137 I  
BRANCH  12  14
HETATM   14  C   UNL     1      -9.366   4.607  68.072  1.00  0.00    -0.135 C  
HETATM   15  N   UNL     1      -8.578   3.501  68.323  1.00  0.00    -0.089 N  
HETATM   16  O   UNL     1     -10.499   4.515  67.610  1.00  0.00     0.068 OA 
HETATM   17  H   UNL     1      -7.639   3.635  68.699  1.00  0.00     0.000 HD 
BRANCH  15  18
HETATM   18  C   UNL     1      -9.055   2.144  68.065  1.00  0.00    -0.178 C  
BRANCH  18  19
HETATM   19  C   UNL     1      -8.356   1.502  66.857  1.00  0.00    -0.082 C  
HETATM   20  H   UNL     1      -8.337   1.778  64.910  1.00  0.00     0.000 HD 
HETATM   21  O   UNL     1      -8.770   2.175  65.657  1.00  0.00    -0.109 OA 
BRANCH  19  22
HETATM   22  C   UNL     1      -6.825   1.546  67.000  1.00  0.00    -0.038 C  
HETATM   23  O   UNL     1      -6.420   2.347  68.108  1.00  0.00    -0.028 OA 
HETATM   24  H   UNL     1      -5.475   2.375  68.196  1.00  0.00     0.000 HD 
ENDBRANCH  19  22
ENDBRANCH  18  19
ENDBRANCH  15  18
ENDBRANCH  12  14
BRANCH  11  25
HETATM   25  C   UNL     1      -6.619   8.635  66.693  1.00  0.00    -0.060 C  
HETATM   26  O   UNL     1      -5.402   8.545  66.827  1.00  0.00    -0.031 OA 
HETATM   27  H   UNL     1      -8.226   9.355  65.583  1.00  0.00     0.000 HD 
HETATM   28  N   UNL     1      -7.209   9.346  65.661  1.00  0.00    -0.090 N  
BRANCH  28  29
HETATM   29  C   UNL     1      -6.420  10.080  64.690  1.00  0.00    -0.125 C  
BRANCH  29  30
HETATM   30  C   UNL     1      -6.711   9.580  63.281  1.00  0.00    -0.101 C  
HETATM   31  O   UNL     1      -5.485   9.462  62.557  1.00  0.00    -0.084 OA 
HETATM   32  H   UNL     1      -5.666   9.150  61.678  1.00  0.00     0.000 HD 
ENDBRANCH  29  30
ENDBRANCH  28  29
ENDBRANCH  11  25
ENDBRANCH   3   5
BRANCH   3  33
HETATM   33  C   UNL     1     -10.170   9.164  71.338  1.00  0.00    -0.332 C  
BRANCH  33  34
HETATM   34  C   UNL     1     -10.635  10.169  70.247  1.00  0.00    -0.264 C  
HETATM   35  O   UNL     1     -10.993   9.516  69.020  1.00  0.00    -0.353 OA 
HETATM   36  H   UNL     1     -11.277  10.130  68.354  1.00  0.00     0.000 HD 
BRANCH  34  37
HETATM   37  C   UNL     1     -11.841  11.011  70.699  1.00  0.00    -0.333 C  
HETATM   38  H   UNL     1     -13.634  10.700  71.483  1.00  0.00     0.000 HD 
HETATM   39  O   UNL     1     -12.889  10.180  71.205  1.00  0.00    -0.346 OA 
ENDBRANCH  34  37
ENDBRANCH  33  34
ENDBRANCH   3  33
TORSDOF 11
ENDMDL
MODEL      145
REMARK 921   NORMALIZED FREE ENERGY PREDICTED BY IDOCK:   -1.95 KCAL/MOL
REMARK 922        TOTAL FREE ENERGY PREDICTED BY IDOCK:   -3.81 KCAL/MOL
REMARK 923 INTER-LIGAND FREE ENERGY PREDICTED BY IDOCK:   -4.08 KCAL/MOL
REMARK 924 INTRA-LIGAND FREE ENERGY PREDICTED BY IDOCK:    0.27 KCAL/MOL
REMARK 927      BINDING AFFINITY PREDICTED BY RF-SCORE:    0.00 PKD
ROOT
HETATM    1  C   UNL     1     -11.160   7.170  66.886  1.00  0.00    -0.048 C  
HETATM    2  C   UNL     1     -10.538   8.433  67.414  1.00  0.00    -0.243 C  
HETATM    3  N   UNL     1      -9.898   9.275  66.501  1.00  0.00    -0.241 N  
HETATM    4  O   UNL     1     -10.639   8.705  68.613  1.00  0.00    -0.204 OA 
ENDROOT
BRANCH   3   5
HETATM    5  C   UNL     1      -9.300  10.450  67.064  1.00  0.00    -0.154 A  
HETATM    6  I   UNL     1      -6.999  14.631  68.442  1.00  0.00    -0.168 I  
HETATM    7  C   UNL     1      -8.111  12.805  68.048  1.00  0.00    -0.162 A  
HETATM    8  C   UNL     1      -8.138  10.375  67.879  1.00  0.00    -0.102 A  
HETATM    9  I   UNL     1      -7.399   8.418  68.442  1.00  0.00    -0.098 I  
HETATM   10  C   UNL     1      -9.931  11.703  66.848  1.00  0.00    -0.202 A  
HETATM   11  C   UNL     1      -9.337  12.892  67.328  1.00  0.00    -0.212 A  
HETATM   12  C   UNL     1      -7.529  11.553  68.377  1.00  0.00    -0.109 A  
HETATM   13  I   UNL     1     -11.855  11.721  65.819  1.00  0.00     0.800 I  
BRANCH  12  14
HETATM   14  C   UNL     1      -6.247  11.456  69.149  1.00  0.00    -0.064 C  
HETATM   15  N   UNL     1      -6.320  11.032  70.461  1.00  0.00    -0.148 N  
HETATM   16  O   UNL     1      -5.186  11.759  68.614  1.00  0.00    -0.046 OA 
HETATM   17  H   UNL     1      -7.231  10.801  70.859  1.00  0.00     0.000 HD 
BRANCH  15  18
HETATM   18  C   UNL     1      -5.126  10.907  71.294  1.00  0.00    -0.094 C  
BRANCH  18  19
HETATM   19  C   UNL     1      -5.272   9.809  72.358  1.00  0.00    -0.021 C  
HETATM   20  H   UNL     1      -5.401   9.734  74.319  1.00  0.00     0.000 HD 
HETATM   21  O   UNL     1      -5.311  10.413  73.661  1.00  0.00    -0.327 OA 
BRANCH  19  22
HETATM   22  C   UNL     1      -6.530   8.955  72.122  1.00  0.00    -0.001 C  
HETATM   23  O   UNL     1      -7.402   8.977  73.250  1.00  0.00    -0.303 OA 
HETATM   24  H   UNL     1      -8.179   8.450  73.105  1.00  0.00     0.000 HD 
ENDBRANCH  19  22
ENDBRANCH  18  19
ENDBRANCH  15  18
ENDBRANCH  12  14
BRANCH  11  25
HETATM   25  C   UNL     1     -10.016  14.206  67.172  1.00  0.00    -0.255 C  
HETATM   26  O   UNL     1     -10.601  14.702  68.130  1.00  0.00    -0.232 OA 
HETATM   27  H   UNL     1      -9.437  14.367  65.180  1.00  0.00     0.000 HD 
HETATM   28  N   UNL     1      -9.969  14.812  65.928  1.00  0.00    -0.308 N  
BRANCH  28  29
HETATM   29  C   UNL     1     -10.657  16.060  65.658  1.00  0.00    -0.377 C  
BRANCH  29  30
HETATM   30  C   UNL     1     -11.774  15.845  64.647  1.00  0.00    -0.117 C  
HETATM   31  O   UNL     1     -11.723  16.875  63.657  1.00  0.00    -0.616 OA 
HETATM   32  H   UNL     1     -12.421  16.741  63.026  1.00  0.00     0.000 HD 
ENDBRANCH  29  30
ENDBRANCH  28  29
ENDBRANCH  11  25
ENDBRANCH   3   5
BRANCH   3  33
HETATM   33  C   UNL     1      -9.627   8.955  65.070  1.00  0.00     0.428 C  
BRANCH  33  34
HETATM   34  C   UNL     1      -8.374   8.089  64.764  1.00  0.00    -0.077 C  
HETATM   35  O   UNL     1      -8.699   6.893  64.042  1.00  0.00    -0.221 OA 
HETATM   36  H   UNL     1      -7.933   6.363  63.855  1.00  0.00     0.000 HD 
BRANCH  34  37
HETATM   37  C   UNL     1      -7.316   8.855  63.949  1.00  0.00    -0.098 C  
HETATM   38  H   UNL     1      -5.361   9.173  64.016  1.00  0.00     0.000 HD 
HETATM   39  O   UNL     1      -6.014   8.700  64.519  1.00  0.00    -0.063 OA 
ENDBRANCH  34  37
ENDBRANCH  33  34
ENDBRANCH   3  33
TORSDOF 11
ENDMDL
MODEL      146
REMARK 921   NORMALIZED FREE ENERGY PREDICTED BY IDOCK:   -1.95 KCAL/MOL
REMARK 922        TOTAL FREE ENERGY PREDICTED BY IDOCK:   -3.81 KCAL/MOL
REMARK 923 INTER-LIGAND FREE ENERGY PREDICTED BY IDOCK:   -3.09 KCAL/MOL
REMARK 924 INTRA-LIGAND FREE ENERGY PREDICTED BY IDOCK:   -0.71 KCAL/MOL
REMARK 927      BINDING AFFINITY PREDICTED BY RF-SCORE:    0.00 PKD
ROOT
HETATM    1  C   UNL     1     -11.209  16.236  64.881  1.00  0.00    -0.243 C  
HETATM    2  C   UNL     1     -10.473  15.119  65.568  1.00  0.00    -0.379 C  
HETATM    3  N   UNL     1     -10.528  15.064  66.963  1.00  0.00    -0.273 N  
HETATM    4  O   UNL     1      -9.881  14.275  64.891  1.00  0.00    -0.213 OA 
ENDROOT
BRANCH   3   5
HETATM    5  C   UNL     1      -9.786  13.995  67.565  1.00  0.00    -0.232 A  
HETATM    6  I   UNL     1      -6.885  10.273  69.115  1.00  0.00    -0.092 I  
HETATM    7  C   UNL     1      -8.233  11.916  68.657  1.00  0.00    -0.072 A  
HETATM    8  C   UNL     1     -10.326  12.685  67.675  1.00  0.00    -0.220 A  
HETATM    9  I   UNL     1     -12.393  12.372  67.111  1.00  0.00     1.774 I  
HETATM   10  C   UNL     1      -8.509  14.282  68.116  1.00  0.00    -0.167 A  
HETATM   11  C   UNL     1      -7.717  13.245  68.657  1.00  0.00    -0.080 A  
HETATM   12  C   UNL     1      -9.553  11.630  68.220  1.00  0.00    -0.198 A  
HETATM   13  I   UNL     1      -7.851  16.362  68.158  1.00  0.00    -0.190 I  
BRANCH  12  14
HETATM   14  C   UNL     1     -10.105  10.237  68.232  1.00  0.00    -0.154 C  
HETATM   15  N   UNL     1     -10.735   9.807  69.384  1.00  0.00    -0.220 N  
HETATM   16  O   UNL     1      -9.977   9.518  67.247  1.00  0.00    -0.167 OA 
HETATM   17  H   UNL     1     -10.805  10.444  70.179  1.00  0.00     0.000 HD 
BRANCH  15  18
HETATM   18  C   UNL     1     -11.304   8.466  69.493  1.00  0.00     0.299 C  
BRANCH  18  19
HETATM   19  C   UNL     1     -12.283   8.344  70.670  1.00  0.00     0.109 C  
HETATM   20  H   UNL     1     -12.746   6.972  72.001  1.00  0.00     0.000 HD 
HETATM   21  O   UNL     1     -12.140   7.048  71.273  1.00  0.00    -0.322 OA 
BRANCH  19  22
HETATM   22  C   UNL     1     -12.056   9.452  71.713  1.00  0.00    -0.382 C  
HETATM   23  O   UNL     1     -10.808   9.298  72.384  1.00  0.00     0.080 OA 
HETATM   24  H   UNL     1     -10.668   9.982  73.028  1.00  0.00     0.000 HD 
ENDBRANCH  19  22
ENDBRANCH  18  19
ENDBRANCH  15  18
ENDBRANCH  12  14
BRANCH  11  25
HETATM   25  C   UNL     1      -6.408  13.534  69.302  1.00  0.00    -0.109 C  
HETATM   26  O   UNL     1      -5.404  13.649  68.607  1.00  0.00    -0.077 OA 
HETATM   27  H   UNL     1      -7.256  13.574  71.202  1.00  0.00     0.000 HD 
HETATM   28  N   UNL     1      -6.382  13.644  70.682  1.00  0.00     0.019 N  
BRANCH  28  29
HETATM   29  C   UNL     1      -5.144  13.857  71.408  1.00  0.00    -0.150 C  
BRANCH  29  30
HETATM   30  C   UNL     1      -5.212  13.202  72.780  1.00  0.00     0.132 C  
HETATM   31  O   UNL     1      -6.060  13.974  73.633  1.00  0.00    -0.394 OA 
HETATM   32  H   UNL     1      -6.102  13.565  74.490  1.00  0.00     0.000 HD 
ENDBRANCH  29  30
ENDBRANCH  28  29
ENDBRANCH  11  25
ENDBRANCH   3   5
BRANCH   3  33
HETATM   33  C   UNL     1     -11.112  16.111  67.850  1.00  0.00    -0.293 C  
BRANCH  33  34
HETATM   34  C   UNL     1     -11.291  15.750  69.350  1.00  0.00    -0.348 C  
HETATM   35  O   UNL     1     -10.876  16.812  70.221  1.00  0.00    -0.320 OA 
HETATM   36  H   UNL     1     -10.985  16.591  71.138  1.00  0.00     0.000 HD 
BRANCH  34  37
HETATM   37  C   UNL     1     -12.748  15.399  69.700  1.00  0.00     0.083 C  
HETATM   38  H   UNL     1     -13.737  13.887  70.513  1.00  0.00     0.000 HD 
HETATM   39  O   UNL     1     -12.838  14.104  70.297  1.00  0.00    -0.297 OA 
ENDBRANCH  34  37
ENDBRANCH  33  34
ENDBRANCH   3  33
TORSDOF 11
ENDMDL
MODEL      147
REMARK 921   NORMALIZED FREE ENERGY PREDICTED BY IDOCK:   -1.94 KCAL/MOL
REMARK 922        TOTAL FREE ENERGY PREDICTED BY IDOCK:   -3.79 KCAL/MOL
REMARK 923 INTER-LIGAND FREE ENERGY PREDICTED BY IDOCK:   -3.74 KCAL/MOL
REMARK 924 INTRA-LIGAND FREE ENERGY PREDICTED BY IDOCK:   -0.06 KCAL/MOL
REMARK 927      BINDING AFFINITY PREDICTED BY RF-SCORE:    0.00 PKD
ROOT
HETATM    1  C   UNL     1     -11.158  17.234  65.411  1.00  0.00     0.246 C  
HETATM    2  C   UNL     1     -10.224  16.172  65.921  1.00  0.00    -0.360 C  
HETATM    3  N   UNL     1     -10.535  15.563  67.140  1.00  0.00    -0.281 N  
HETATM    4  O   UNL     1      -9.246  15.846  65.245  1.00  0.00    -0.173 OA 
ENDROOT
BRANCH   3   5
HETATM    5  C   UNL     1      -9.597  14.578  67.591  1.00  0.00    -0.214 A  
HETATM    6  I   UNL     1      -6.000  11.320  68.652  1.00  0.00    -0.045 I  
HETATM    7  C   UNL     1      -7.661  12.700  68.400  1.00  0.00    -0.133 A  
HETATM    8  C   UNL     1      -9.836  13.188  67.417  1.00  0.00    -0.226 A  
HETATM    9  I   UNL     1     -11.761  12.563  66.645  1.00  0.00    -0.254 I  
HETATM   10  C   UNL     1      -8.436  15.013  68.284  1.00  0.00    -0.147 A  
HETATM   11  C   UNL     1      -7.454  14.080  68.684  1.00  0.00    -0.125 A  
HETATM   12  C   UNL     1      -8.868  12.233  67.816  1.00  0.00    -0.174 A  
HETATM   13  I   UNL     1      -8.257  17.135  68.758  1.00  0.00    -0.066 I  
BRANCH  12  14
HETATM   14  C   UNL     1      -9.098  10.780  67.530  1.00  0.00    -0.139 C  
HETATM   15  N   UNL     1      -8.422  10.223  66.462  1.00  0.00    -0.124 N  
HETATM   16  O   UNL     1      -9.874  10.134  68.226  1.00  0.00    -0.142 OA 
HETATM   17  H   UNL     1      -7.795  10.809  65.910  1.00  0.00     0.000 HD 
BRANCH  15  18
HETATM   18  C   UNL     1      -8.581   8.816  66.104  1.00  0.00    -0.146 C  
BRANCH  18  19
HETATM   19  C   UNL     1      -8.109   8.523  64.671  1.00  0.00    -0.153 C  
HETATM   20  H   UNL     1      -6.838   9.321  63.400  1.00  0.00     0.000 HD 
HETATM   21  O   UNL     1      -7.130   9.502  64.286  1.00  0.00    -0.099 OA 
BRANCH  19  22
HETATM   22  C   UNL     1      -7.531   7.103  64.544  1.00  0.00    -0.099 C  
HETATM   23  O   UNL     1      -6.369   7.078  63.717  1.00  0.00    -0.042 OA 
HETATM   24  H   UNL     1      -6.013   6.201  63.638  1.00  0.00     0.000 HD 
ENDBRANCH  19  22
ENDBRANCH  18  19
ENDBRANCH  15  18
ENDBRANCH  12  14
BRANCH  11  25
HETATM   25  C   UNL     1      -6.266  14.506  69.471  1.00  0.00    -0.120 C  
HETATM   26  O   UNL     1      -5.326  15.052  68.901  1.00  0.00    -0.093 OA 
HETATM   27  H   UNL     1      -7.094  13.825  71.254  1.00  0.00     0.000 HD 
HETATM   28  N   UNL     1      -6.269  14.249  70.832  1.00  0.00    -0.157 N  
BRANCH  28  29
HETATM   29  C   UNL     1      -5.129  14.564  71.672  1.00  0.00    -0.158 C  
BRANCH  29  30
HETATM   30  C   UNL     1      -5.543  14.605  73.137  1.00  0.00     0.046 C  
HETATM   31  O   UNL     1      -6.829  13.999  73.284  1.00  0.00     0.916 OA 
HETATM   32  H   UNL     1      -7.087  14.025  74.198  1.00  0.00     0.000 HD 
ENDBRANCH  29  30
ENDBRANCH  28  29
ENDBRANCH  11  25
ENDBRANCH   3   5
BRANCH   3  33
HETATM   33  C   UNL     1     -11.622  15.988  68.069  1.00  0.00    -0.119 C  
BRANCH  33  34
HETATM   34  C   UNL     1     -11.439  15.648  69.574  1.00  0.00    -0.344 C  
HETATM   35  O   UNL     1     -11.794  16.745  70.429  1.00  0.00    -0.126 OA 
HETATM   36  H   UNL     1     -11.683  16.538  71.349  1.00  0.00     0.000 HD 
BRANCH  34  37
HETATM   37  C   UNL     1     -12.274  14.429  70.007  1.00  0.00    -0.351 C  
HETATM   38  H   UNL     1     -12.821  13.553  71.697  1.00  0.00     0.000 HD 
HETATM   39  O   UNL     1     -12.306  14.306  71.430  1.00  0.00    -0.334 OA 
ENDBRANCH  34  37
ENDBRANCH  33  34
ENDBRANCH   3  33
TORSDOF 11
ENDMDL
MODEL      148
REMARK 921   NORMALIZED FREE ENERGY PREDICTED BY IDOCK:   -1.83 KCAL/MOL
REMARK 922        TOTAL FREE ENERGY PREDICTED BY IDOCK:   -3.62 KCAL/MOL
REMARK 923 INTER-LIGAND FREE ENERGY PREDICTED BY IDOCK:   -3.91 KCAL/MOL
REMARK 924 INTRA-LIGAND FREE ENERGY PREDICTED BY IDOCK:    0.29 KCAL/MOL
REMARK 927      BINDING AFFINITY PREDICTED BY RF-SCORE:    0.00 PKD
ROOT
HETATM    1  C   UNL     1     -11.559  11.601  64.973  1.00  0.00    -0.133 C  
HETATM    2  C   UNL     1     -10.771  11.268  66.210  1.00  0.00    -0.257 C  
HETATM    3  N   UNL     1      -9.544  10.620  66.045  1.00  0.00    -0.189 N  
HETATM    4  O   UNL     1     -11.204  11.602  67.315  1.00  0.00    -0.271 OA 
ENDROOT
BRANCH   3   5
HETATM    5  C   UNL     1      -8.850  10.302  67.258  1.00  0.00    -0.132 A  
HETATM    6  I   UNL     1      -5.947   9.081  71.099  1.00  0.00    -0.069 I  
HETATM    7  C   UNL     1      -7.373   9.691  69.576  1.00  0.00    -0.084 A  
HETATM    8  C   UNL     1      -9.069   9.074  67.940  1.00  0.00    -0.135 A  
HETATM    9  I   UNL     1     -10.643   7.767  67.229  1.00  0.00    -0.092 I  
HETATM   10  C   UNL     1      -7.975  11.272  67.814  1.00  0.00    -0.117 A  
HETATM   11  C   UNL     1      -7.221  10.972  68.970  1.00  0.00    -0.111 A  
HETATM   12  C   UNL     1      -8.329   8.754  69.105  1.00  0.00    -0.125 A  
HETATM   13  I   UNL     1      -7.886  13.237  66.870  1.00  0.00     0.802 I  
BRANCH  12  14
HETATM   14  C   UNL     1      -8.504   7.412  69.749  1.00  0.00    -0.136 C  
HETATM   15  N   UNL     1      -9.330   7.332  70.852  1.00  0.00    -0.159 N  
HETATM   16  O   UNL     1      -7.912   6.436  69.300  1.00  0.00    -0.107 OA 
HETATM   17  H   UNL     1      -9.791   8.178  71.190  1.00  0.00     0.000 HD 
BRANCH  15  18
HETATM   18  C   UNL     1      -9.562   6.069  71.548  1.00  0.00    -0.156 C  
BRANCH  18  19
HETATM   19  C   UNL     1     -10.977   5.981  72.139  1.00  0.00    -0.267 C  
HETATM   20  H   UNL     1     -11.782   6.095  73.929  1.00  0.00     0.000 HD 
HETATM   21  O   UNL     1     -10.907   6.149  73.564  1.00  0.00    -0.258 OA 
BRANCH  19  22
HETATM   22  C   UNL     1     -11.916   7.030  71.518  1.00  0.00    -0.334 C  
HETATM   23  O   UNL     1     -12.000   8.205  72.322  1.00  0.00    -0.337 OA 
HETATM   24  H   UNL     1     -12.580   8.852  71.938  1.00  0.00     0.000 HD 
ENDBRANCH  19  22
ENDBRANCH  18  19
ENDBRANCH  15  18
ENDBRANCH  12  14
BRANCH  11  25
HETATM   25  C   UNL     1      -6.352  11.997  69.608  1.00  0.00    -0.120 C  
HETATM   26  O   UNL     1      -5.198  11.710  69.910  1.00  0.00    -0.064 OA 
HETATM   27  H   UNL     1      -7.855  13.435  69.543  1.00  0.00     0.000 HD 
HETATM   28  N   UNL     1      -6.901  13.245  69.850  1.00  0.00     0.204 N  
BRANCH  28  29
HETATM   29  C   UNL     1      -6.157  14.289  70.529  1.00  0.00    -0.180 C  
BRANCH  29  30
HETATM   30  C   UNL     1      -5.792  15.401  69.556  1.00  0.00    -0.118 C  
HETATM   31  O   UNL     1      -6.068  16.668  70.157  1.00  0.00    -0.194 OA 
HETATM   32  H   UNL     1      -5.840  17.362  69.549  1.00  0.00     0.000 HD 
ENDBRANCH  29  30
ENDBRANCH  28  29
ENDBRANCH  11  25
ENDBRANCH   3   5
BRANCH   3  33
HETATM   33  C   UNL     1      -9.017  10.075  64.760  1.00  0.00    -0.212 C  
BRANCH  33  34
HETATM   34  C   UNL     1      -7.881   9.019  64.852  1.00  0.00    -0.119 C  
HETATM   35  O   UNL     1      -8.190   7.820  64.127  1.00  0.00    -0.296 OA 
HETATM   36  H   UNL     1      -7.495   7.174  64.183  1.00  0.00     0.000 HD 
BRANCH  34  37
HETATM   37  C   UNL     1      -6.538   9.554  64.323  1.00  0.00    -0.100 C  
HETATM   38  H   UNL     1      -4.675   9.735  64.972  1.00  0.00     0.000 HD 
HETATM   39  O   UNL     1      -5.504   9.404  65.299  1.00  0.00    -0.044 OA 
ENDBRANCH  34  37
ENDBRANCH  33  34
ENDBRANCH   3  33
TORSDOF 11
ENDMDL
MODEL      149
REMARK 921   NORMALIZED FREE ENERGY PREDICTED BY IDOCK:   -1.76 KCAL/MOL
REMARK 922        TOTAL FREE ENERGY PREDICTED BY IDOCK:   -3.50 KCAL/MOL
REMARK 923 INTER-LIGAND FREE ENERGY PREDICTED BY IDOCK:   -4.97 KCAL/MOL
REMARK 924 INTRA-LIGAND FREE ENERGY PREDICTED BY IDOCK:    1.47 KCAL/MOL
REMARK 927      BINDING AFFINITY PREDICTED BY RF-SCORE:    0.00 PKD
ROOT
HETATM    1  C   UNL     1     -11.012  10.957  64.939  1.00  0.00    -0.038 C  
HETATM    2  C   UNL     1      -9.843  11.502  65.710  1.00  0.00    -0.234 C  
HETATM    3  N   UNL     1     -10.112  12.340  66.795  1.00  0.00    -0.207 N  
HETATM    4  O   UNL     1      -8.698  11.171  65.393  1.00  0.00    -0.158 OA 
ENDROOT
BRANCH   3   5
HETATM    5  C   UNL     1      -8.959  12.852  67.476  1.00  0.00    -0.193 A  
HETATM    6  I   UNL     1      -5.340  14.704  70.331  1.00  0.00    -0.146 I  
HETATM    7  C   UNL     1      -6.756  13.837  68.927  1.00  0.00    -0.108 A  
HETATM    8  C   UNL     1      -8.465  14.160  67.221  1.00  0.00    -0.214 A  
HETATM    9  I   UNL     1      -9.360  15.305  65.615  1.00  0.00     0.607 I  
HETATM   10  C   UNL     1      -8.266  11.998  68.374  1.00  0.00    -0.151 A  
HETATM   11  C   UNL     1      -7.167  12.486  69.116  1.00  0.00     0.070 A  
HETATM   12  C   UNL     1      -7.359  14.669  67.948  1.00  0.00    -0.164 A  
HETATM   13  I   UNL     1      -8.910   9.919  68.520  1.00  0.00    -0.134 I  
BRANCH  12  14
HETATM   14  C   UNL     1      -6.921  16.086  67.735  1.00  0.00    -0.143 C  
HETATM   15  N   UNL     1      -7.635  17.081  68.373  1.00  0.00    -0.210 N  
HETATM   16  O   UNL     1      -5.966  16.328  67.005  1.00  0.00    -0.290 OA 
HETATM   17  H   UNL     1      -8.428  16.823  68.962  1.00  0.00     0.000 HD 
BRANCH  15  18
HETATM   18  C   UNL     1      -7.285  18.491  68.226  1.00  0.00    -0.264 C  
BRANCH  18  19
HETATM   19  C   UNL     1      -8.445  19.322  67.658  1.00  0.00    -0.292 C  
HETATM   20  H   UNL     1     -10.237  19.863  68.260  1.00  0.00     0.000 HD 
HETATM   21  O   UNL     1      -9.520  19.349  68.611  1.00  0.00    -0.369 OA 
BRANCH  19  22
HETATM   22  C   UNL     1      -7.999  20.753  67.308  1.00  0.00    -0.209 C  
HETATM   23  O   UNL     1      -6.628  20.973  67.634  1.00  0.00    -0.332 OA 
HETATM   24  H   UNL     1      -6.353  21.856  67.418  1.00  0.00     0.000 HD 
ENDBRANCH  19  22
ENDBRANCH  18  19
ENDBRANCH  15  18
ENDBRANCH  12  14
BRANCH  11  25
HETATM   25  C   UNL     1      -6.385  11.589  70.009  1.00  0.00    -0.116 C  
HETATM   26  O   UNL     1      -5.954  12.022  71.074  1.00  0.00    -0.342 OA 
HETATM   27  H   UNL     1      -6.577   9.979  68.705  1.00  0.00     0.000 HD 
HETATM   28  N   UNL     1      -6.162  10.291  69.583  1.00  0.00    -0.050 N  
BRANCH  28  29
HETATM   29  C   UNL     1      -5.355   9.362  70.351  1.00  0.00    -0.031 C  
BRANCH  29  30
HETATM   30  C   UNL     1      -5.169   8.059  69.586  1.00  0.00    -0.023 C  
HETATM   31  O   UNL     1      -5.314   6.956  70.484  1.00  0.00    -0.022 OA 
HETATM   32  H   UNL     1      -5.198   6.143  70.006  1.00  0.00     0.000 HD 
ENDBRANCH  29  30
ENDBRANCH  28  29
ENDBRANCH  11  25
ENDBRANCH   3   5
BRANCH   3  33
HETATM   33  C   UNL     1     -11.452  12.883  67.160  1.00  0.00    -0.336 C  
BRANCH  33  34
HETATM   34  C   UNL     1     -11.815  12.916  68.670  1.00  0.00    -0.312 C  
HETATM   35  O   UNL     1     -12.854  13.863  68.962  1.00  0.00    -0.080 OA 
HETATM   36  H   UNL     1     -13.076  13.883  69.885  1.00  0.00     0.000 HD 
BRANCH  34  37
HETATM   37  C   UNL     1     -12.273  11.543  69.194  1.00  0.00    -0.156 C  
HETATM   38  H   UNL     1     -12.048  10.449  70.830  1.00  0.00     0.000 HD 
HETATM   39  O   UNL     1     -11.766  11.297  70.507  1.00  0.00    -0.329 OA 
ENDBRANCH  34  37
ENDBRANCH  33  34
ENDBRANCH   3  33
TORSDOF 11
ENDMDL
MODEL      150
REMARK 921   NORMALIZED FREE ENERGY PREDICTED BY IDOCK:   -1.74 KCAL/MOL
REMARK 922        TOTAL FREE ENERGY PREDICTED BY IDOCK:   -3.46 KCAL/MOL
REMARK 923 INTER-LIGAND FREE ENERGY PREDICTED BY IDOCK:   -3.66 KCAL/MOL
REMARK 924 INTRA-LIGAND FREE ENERGY PREDICTED BY IDOCK:    0.19 KCAL/MOL
REMARK 927      BINDING AFFINITY PREDICTED BY RF-SCORE:    0.00 PKD
ROOT
HETATM    1  C   UNL     1     -11.234   5.290  66.202  1.00  0.00     0.336 C  
HETATM    2  C   UNL     1     -10.409   6.262  66.998  1.00  0.00    -0.240 C  
HETATM    3  N   UNL     1      -9.060   6.402  66.660  1.00  0.00    -0.141 N  
HETATM    4  O   UNL     1     -10.944   6.927  67.889  1.00  0.00    -0.227 OA 
ENDROOT
BRANCH   3   5
HETATM    5  C   UNL     1      -8.317   7.321  67.469  1.00  0.00    -0.116 A  
HETATM    6  I   UNL     1      -6.256  10.552  70.630  1.00  0.00     0.207 I  
HETATM    7  C   UNL     1      -6.944   9.109  69.157  1.00  0.00    -0.058 A  
HETATM    8  C   UNL     1      -8.084   8.660  67.051  1.00  0.00    -0.100 A  
HETATM    9  I   UNL     1      -8.690   9.235  65.053  1.00  0.00    -0.195 I  
HETATM   10  C   UNL     1      -7.751   6.852  68.684  1.00  0.00    -0.113 A  
HETATM   11  C   UNL     1      -7.070   7.743  69.543  1.00  0.00    -0.063 A  
HETATM   12  C   UNL     1      -7.397   9.569  67.893  1.00  0.00    -0.083 A  
HETATM   13  I   UNL     1      -7.913   4.725  69.140  1.00  0.00    -0.071 I  
BRANCH  12  14
HETATM   14  C   UNL     1      -7.252  11.001  67.475  1.00  0.00    -0.096 C  
HETATM   15  N   UNL     1      -8.196  11.901  67.931  1.00  0.00    -0.141 N  
HETATM   16  O   UNL     1      -6.327  11.335  66.742  1.00  0.00    -0.112 OA 
HETATM   17  H   UNL     1      -8.951  11.567  68.531  1.00  0.00     0.000 HD 
BRANCH  15  18
HETATM   18  C   UNL     1      -8.140  13.317  67.577  1.00  0.00    -0.186 C  
BRANCH  18  19
HETATM   19  C   UNL     1      -9.453  13.812  66.952  1.00  0.00    -0.262 C  
HETATM   20  H   UNL     1     -10.818  13.081  65.740  1.00  0.00     0.000 HD 
HETATM   21  O   UNL     1     -10.006  12.775  66.127  1.00  0.00    -0.258 OA 
BRANCH  19  22
HETATM   22  C   UNL     1     -10.465  14.243  68.028  1.00  0.00    -0.235 C  
HETATM   23  O   UNL     1      -9.843  14.415  69.300  1.00  0.00    -0.404 OA 
HETATM   24  H   UNL     1     -10.468  14.681  69.963  1.00  0.00     0.000 HD 
ENDBRANCH  19  22
ENDBRANCH  18  19
ENDBRANCH  15  18
ENDBRANCH  12  14
BRANCH  11  25
HETATM   25  C   UNL     1      -6.411   7.259  70.786  1.00  0.00    -0.039 C  
HETATM   26  O   UNL     1      -5.309   6.722  70.717  1.00  0.00    -0.022 OA 
HETATM   27  H   UNL     1      -7.986   7.910  71.979  1.00  0.00     0.000 HD 
HETATM   28  N   UNL     1      -7.090   7.424  71.981  1.00  0.00    -0.062 N  
BRANCH  28  29
HETATM   29  C   UNL     1      -6.561   6.925  73.236  1.00  0.00    -0.066 C  
BRANCH  29  30
HETATM   30  C   UNL     1      -7.508   5.899  73.842  1.00  0.00    -0.092 C  
HETATM   31  O   UNL     1      -8.223   5.236  72.797  1.00  0.00    -0.108 OA 
HETATM   32  H   UNL     1      -8.814   4.595  73.175  1.00  0.00     0.000 HD 
ENDBRANCH  29  30
ENDBRANCH  28  29
ENDBRANCH  11  25
ENDBRANCH   3   5
BRANCH   3  33
HETATM   33  C   UNL     1      -8.318   5.548  65.688  1.00  0.00    -0.133 C  
BRANCH  33  34
HETATM   34  C   UNL     1      -9.148   4.870  64.563  1.00  0.00    -0.053 C  
HETATM   35  O   UNL     1      -9.063   5.579  63.318  1.00  0.00    -0.329 OA 
HETATM   36  H   UNL     1      -9.571   5.164  62.631  1.00  0.00     0.000 HD 
BRANCH  34  37
HETATM   37  C   UNL     1      -8.712   3.417  64.305  1.00  0.00    -0.093 C  
HETATM   38  H   UNL     1      -8.342   1.787  65.369  1.00  0.00     0.000 HD 
HETATM   39  O   UNL     1      -8.612   2.684  65.528  1.00  0.00    -0.098 OA 
ENDBRANCH  34  37
ENDBRANCH  33  34
ENDBRANCH   3  33
TORSDOF 11
ENDMDL
MODEL      151
REMARK 921   NORMALIZED FREE ENERGY PREDICTED BY IDOCK:   -1.72 KCAL/MOL
REMARK 922        TOTAL FREE ENERGY PREDICTED BY IDOCK:   -3.43 KCAL/MOL
REMARK 923 INTER-LIGAND FREE ENERGY PREDICTED BY IDOCK:   -4.75 KCAL/MOL
REMARK 924 INTRA-LIGAND FREE ENERGY PREDICTED BY IDOCK:    1.32 KCAL/MOL
REMARK 927      BINDING AFFINITY PREDICTED BY RF-SCORE:    0.00 PKD
ROOT
HETATM    1  C   UNL     1      -8.035  19.255  66.314  1.00  0.00    -0.319 C  
HETATM    2  C   UNL     1      -7.903  17.764  66.459  1.00  0.00    -0.266 C  
HETATM    3  N   UNL     1      -8.951  17.075  67.076  1.00  0.00    -0.215 N  
HETATM    4  O   UNL     1      -6.907  17.195  66.005  1.00  0.00    -0.191 OA 
ENDROOT
BRANCH   3   5
HETATM    5  C   UNL     1      -8.758  15.661  67.211  1.00  0.00    -0.194 A  
HETATM    6  I   UNL     1      -8.630  10.760  68.008  1.00  0.00    -0.143 I  
HETATM    7  C   UNL     1      -8.509  12.873  67.509  1.00  0.00    -0.186 A  
HETATM    8  C   UNL     1      -7.810  15.124  68.124  1.00  0.00    -0.125 A  
HETATM    9  I   UNL     1      -6.491  16.491  69.163  1.00  0.00    -0.216 I  
HETATM   10  C   UNL     1      -9.493  14.792  66.363  1.00  0.00    -0.301 A  
HETATM   11  C   UNL     1      -9.384  13.391  66.511  1.00  0.00    -0.225 A  
HETATM   12  C   UNL     1      -7.678  13.722  68.285  1.00  0.00    -0.138 A  
HETATM   13  I   UNL     1     -10.730  15.682  64.801  1.00  0.00     0.349 I  
BRANCH  12  14
HETATM   14  C   UNL     1      -6.745  13.180  69.325  1.00  0.00    -0.061 C  
HETATM   15  N   UNL     1      -6.061  12.017  69.030  1.00  0.00    -0.067 N  
HETATM   16  O   UNL     1      -6.620  13.761  70.398  1.00  0.00     0.016 OA 
HETATM   17  H   UNL     1      -6.210  11.570  68.125  1.00  0.00     0.000 HD 
BRANCH  15  18
HETATM   18  C   UNL     1      -5.131  11.412  69.980  1.00  0.00    -0.067 C  
BRANCH  18  19
HETATM   19  C   UNL     1      -5.581  10.011  70.421  1.00  0.00    -0.056 C  
HETATM   20  H   UNL     1      -7.166   9.230  71.284  1.00  0.00     0.000 HD 
HETATM   21  O   UNL     1      -6.888  10.096  71.011  1.00  0.00    -0.341 OA 
BRANCH  19  22
HETATM   22  C   UNL     1      -5.585   9.020  69.244  1.00  0.00    -0.035 C  
HETATM   23  O   UNL     1      -5.267   7.696  69.668  1.00  0.00    -0.022 OA 
HETATM   24  H   UNL     1      -5.270   7.084  68.941  1.00  0.00     0.000 HD 
ENDBRANCH  19  22
ENDBRANCH  18  19
ENDBRANCH  15  18
ENDBRANCH  12  14
BRANCH  11  25
HETATM   25  C   UNL     1     -10.090  12.463  65.588  1.00  0.00    -0.257 C  
HETATM   26  O   UNL     1      -9.452  11.857  64.733  1.00  0.00    -0.107 OA 
HETATM   27  H   UNL     1     -11.932  12.840  66.480  1.00  0.00     0.000 HD 
HETATM   28  N   UNL     1     -11.462  12.338  65.727  1.00  0.00    -0.353 N  
BRANCH  28  29
HETATM   29  C   UNL     1     -12.250  11.511  64.832  1.00  0.00     0.628 C  
BRANCH  29  30
HETATM   30  C   UNL     1     -12.687  12.312  63.614  1.00  0.00    -0.411 C  
HETATM   31  O   UNL     1     -11.587  12.443  62.711  1.00  0.00    -0.493 OA 
HETATM   32  H   UNL     1     -11.860  12.943  61.951  1.00  0.00     0.000 HD 
ENDBRANCH  29  30
ENDBRANCH  28  29
ENDBRANCH  11  25
ENDBRANCH   3   5
BRANCH   3  33
HETATM   33  C   UNL     1     -10.119  17.703  67.758  1.00  0.00    -0.338 C  
BRANCH  33  34
HETATM   34  C   UNL     1     -10.047  17.837  69.304  1.00  0.00    -0.135 C  
HETATM   35  O   UNL     1     -10.573  19.089  69.768  1.00  0.00     0.025 OA 
HETATM   36  H   UNL     1     -10.530  19.172  70.713  1.00  0.00     0.000 HD 
BRANCH  34  37
HETATM   37  C   UNL     1     -10.809  16.712  70.027  1.00  0.00    -0.167 C  
HETATM   38  H   UNL     1     -11.983  15.192  69.544  1.00  0.00     0.000 HD 
HETATM   39  O   UNL     1     -11.513  15.886  69.097  1.00  0.00    -0.338 OA 
ENDBRANCH  34  37
ENDBRANCH  33  34
ENDBRANCH   3  33
TORSDOF 11
ENDMDL
MODEL      152
REMARK 921   NORMALIZED FREE ENERGY PREDICTED BY IDOCK:   -1.56 KCAL/MOL
REMARK 922        TOTAL FREE ENERGY PREDICTED BY IDOCK:   -3.17 KCAL/MOL
REMARK 923 INTER-LIGAND FREE ENERGY PREDICTED BY IDOCK:   -4.12 KCAL/MOL
REMARK 924 INTRA-LIGAND FREE ENERGY PREDICTED BY IDOCK:    0.94 KCAL/MOL
REMARK 927      BINDING AFFINITY PREDICTED BY RF-SCORE:    0.00 PKD
ROOT
HETATM    1  C   UNL     1     -12.264  15.709  68.101  1.00  0.00     0.421 C  
HETATM    2  C   UNL     1     -11.949  14.240  68.141  1.00  0.00    -0.308 C  
HETATM    3  N   UNL     1     -10.903  13.821  68.968  1.00  0.00    -0.242 N  
HETATM    4  O   UNL     1     -12.633  13.453  67.483  1.00  0.00     0.027 OA 
ENDROOT
BRANCH   3   5
HETATM    5  C   UNL     1     -10.628  12.414  68.946  1.00  0.00    -0.126 A  
HETATM    6  I   UNL     1      -9.268   7.653  69.331  1.00  0.00    -0.145 I  
HETATM    7  C   UNL     1     -10.036   9.663  69.023  1.00  0.00    -0.186 A  
HETATM    8  C   UNL     1      -9.832  11.828  67.925  1.00  0.00    -0.183 A  
HETATM    9  I   UNL     1      -9.209  13.070  66.264  1.00  0.00     0.216 I  
HETATM   10  C   UNL     1     -11.226  11.591  69.936  1.00  0.00    -0.104 A  
HETATM   11  C   UNL     1     -10.927  10.211  69.990  1.00  0.00    -0.364 A  
HETATM   12  C   UNL     1      -9.524  10.445  67.955  1.00  0.00    -0.150 A  
HETATM   13  I   UNL     1     -12.652  12.506  71.311  1.00  0.00     0.172 I  
BRANCH  12  14
HETATM   14  C   UNL     1      -8.599   9.869  66.926  1.00  0.00    -0.128 C  
HETATM   15  N   UNL     1      -9.166   9.289  65.808  1.00  0.00    -0.207 N  
HETATM   16  O   UNL     1      -7.386   9.913  67.100  1.00  0.00    -0.090 OA 
HETATM   17  H   UNL     1     -10.182   9.271  65.719  1.00  0.00     0.000 HD 
BRANCH  15  18
HETATM   18  C   UNL     1      -8.347   8.699  64.751  1.00  0.00    -0.157 C  
BRANCH  18  19
HETATM   19  C   UNL     1      -7.626   7.425  65.217  1.00  0.00    -0.098 C  
HETATM   20  H   UNL     1      -7.638   5.522  64.724  1.00  0.00     0.000 HD 
HETATM   21  O   UNL     1      -8.083   6.310  64.436  1.00  0.00    -0.124 OA 
BRANCH  19  22
HETATM   22  C   UNL     1      -6.098   7.568  65.110  1.00  0.00    -0.038 C  
HETATM   23  O   UNL     1      -5.713   8.252  63.919  1.00  0.00    -0.063 OA 
HETATM   24  H   UNL     1      -4.770   8.340  63.853  1.00  0.00     0.000 HD 
ENDBRANCH  19  22
ENDBRANCH  18  19
ENDBRANCH  15  18
ENDBRANCH  12  14
BRANCH  11  25
HETATM   25  C   UNL     1     -11.596   9.319  70.975  1.00  0.00    -0.313 C  
HETATM   26  O   UNL     1     -11.079   9.133  72.072  1.00  0.00    -0.357 OA 
HETATM   27  H   UNL     1     -13.181   8.937  69.682  1.00  0.00     0.000 HD 
HETATM   28  N   UNL     1     -12.782   8.715  70.594  1.00  0.00     0.248 N  
BRANCH  28  29
HETATM   29  C   UNL     1     -13.474   7.776  71.457  1.00  0.00    -0.327 C  
BRANCH  29  30
HETATM   30  C   UNL     1     -14.290   8.518  72.506  1.00  0.00    -0.233 C  
HETATM   31  O   UNL     1     -14.100   9.926  72.348  1.00  0.00    -0.426 OA 
HETATM   32  H   UNL     1     -14.609  10.389  73.003  1.00  0.00     0.000 HD 
ENDBRANCH  29  30
ENDBRANCH  28  29
ENDBRANCH  11  25
ENDBRANCH   3   5
BRANCH   3  33
HETATM   33  C   UNL     1      -9.956  14.719  69.690  1.00  0.00     0.057 C  
BRANCH  33  34
HETATM   34  C   UNL     1      -9.255  15.826  68.855  1.00  0.00    -0.227 C  
HETATM   35  O   UNL     1      -9.850  17.117  69.051  1.00  0.00    -0.275 OA 
HETATM   36  H   UNL     1      -9.422  17.795  68.541  1.00  0.00     0.000 HD 
BRANCH  34  37
HETATM   37  C   UNL     1      -7.755  15.948  69.181  1.00  0.00    -0.220 C  
HETATM   38  H   UNL     1      -6.316  14.798  69.910  1.00  0.00     0.000 HD 
HETATM   39  O   UNL     1      -7.242  14.723  69.708  1.00  0.00    -0.164 OA 
ENDBRANCH  34  37
ENDBRANCH  33  34
ENDBRANCH   3  33
TORSDOF 11
ENDMDL
MODEL      153
REMARK 921   NORMALIZED FREE ENERGY PREDICTED BY IDOCK:   -1.43 KCAL/MOL
REMARK 922        TOTAL FREE ENERGY PREDICTED BY IDOCK:   -2.95 KCAL/MOL
REMARK 923 INTER-LIGAND FREE ENERGY PREDICTED BY IDOCK:   -4.89 KCAL/MOL
REMARK 924 INTRA-LIGAND FREE ENERGY PREDICTED BY IDOCK:    1.94 KCAL/MOL
REMARK 927      BINDING AFFINITY PREDICTED BY RF-SCORE:    0.00 PKD
ROOT
HETATM    1  C   UNL     1      -7.074  17.121  66.527  1.00  0.00    -0.303 C  
HETATM    2  C   UNL     1      -7.854  15.863  66.791  1.00  0.00    -0.238 C  
HETATM    3  N   UNL     1      -7.413  15.027  67.820  1.00  0.00    -0.142 N  
HETATM    4  O   UNL     1      -8.866  15.625  66.127  1.00  0.00    -0.321 OA 
ENDROOT
BRANCH   3   5
HETATM    5  C   UNL     1      -8.177  13.829  68.008  1.00  0.00    -0.164 A  
HETATM    6  I   UNL     1     -10.869   9.655  68.033  1.00  0.00     0.002 I  
HETATM    7  C   UNL     1      -9.656  11.446  68.251  1.00  0.00    -0.192 A  
HETATM    8  C   UNL     1      -9.533  13.872  68.433  1.00  0.00    -0.211 A  
HETATM    9  I   UNL     1     -10.373  15.783  69.008  1.00  0.00    -0.286 I  
HETATM   10  C   UNL     1      -7.534  12.577  67.824  1.00  0.00    -0.130 A  
HETATM   11  C   UNL     1      -8.269  11.376  67.933  1.00  0.00    -0.132 A  
HETATM   12  C   UNL     1     -10.289  12.679  68.556  1.00  0.00    -0.232 A  
HETATM   13  I   UNL     1      -5.387  12.571  67.437  1.00  0.00     0.111 I  
BRANCH  12  14
HETATM   14  C   UNL     1     -11.744  12.756  68.906  1.00  0.00    -0.326 C  
HETATM   15  N   UNL     1     -12.091  13.442  70.054  1.00  0.00    -0.339 N  
HETATM   16  O   UNL     1     -12.576  12.210  68.190  1.00  0.00     0.183 OA 
HETATM   17  H   UNL     1     -11.356  13.870  70.619  1.00  0.00     0.000 HD 
BRANCH  15  18
HETATM   18  C   UNL     1     -13.483  13.570  70.479  1.00  0.00     0.626 C  
BRANCH  18  19
HETATM   19  C   UNL     1     -13.606  13.887  71.977  1.00  0.00    -0.477 C  
HETATM   20  H   UNL     1     -12.594  13.467  73.610  1.00  0.00     0.000 HD 
HETATM   21  O   UNL     1     -12.518  13.271  72.683  1.00  0.00     0.207 OA 
BRANCH  19  22
HETATM   22  C   UNL     1     -13.627  15.404  72.236  1.00  0.00    -0.503 C  
HETATM   23  O   UNL     1     -12.870  16.116  71.260  1.00  0.00    -0.541 OA 
HETATM   24  H   UNL     1     -12.883  17.052  71.419  1.00  0.00     0.000 HD 
ENDBRANCH  19  22
ENDBRANCH  18  19
ENDBRANCH  15  18
ENDBRANCH  12  14
BRANCH  11  25
HETATM   25  C   UNL     1      -7.600  10.052  67.813  1.00  0.00    -0.090 C  
HETATM   26  O   UNL     1      -7.337   9.413  68.826  1.00  0.00    -0.073 OA 
HETATM   27  H   UNL     1      -7.562  10.164  65.735  1.00  0.00     0.000 HD 
HETATM   28  N   UNL     1      -7.285   9.603  66.541  1.00  0.00    -0.089 N  
BRANCH  28  29
HETATM   29  C   UNL     1      -6.572   8.359  66.324  1.00  0.00    -0.058 C  
BRANCH  29  30
HETATM   30  C   UNL     1      -7.160   7.608  65.138  1.00  0.00    -0.060 C  
HETATM   31  O   UNL     1      -8.423   8.181  64.791  1.00  0.00    -0.299 OA 
HETATM   32  H   UNL     1      -8.790   7.713  64.050  1.00  0.00     0.000 HD 
ENDBRANCH  29  30
ENDBRANCH  28  29
ENDBRANCH  11  25
ENDBRANCH   3   5
BRANCH   3  33
HETATM   33  C   UNL     1      -6.136  15.182  68.576  1.00  0.00    -0.095 C  
BRANCH  33  34
HETATM   34  C   UNL     1      -6.245  15.570  70.076  1.00  0.00    -0.139 C  
HETATM   35  O   UNL     1      -5.379  14.785  70.908  1.00  0.00    -0.129 OA 
HETATM   36  H   UNL     1      -5.445  15.023  71.825  1.00  0.00     0.000 HD 
BRANCH  34  37
HETATM   37  C   UNL     1      -5.915  17.053  70.324  1.00  0.00    -0.022 C  
HETATM   38  H   UNL     1      -4.948  18.133  71.674  1.00  0.00     0.000 HD 
HETATM   39  O   UNL     1      -5.151  17.218  71.521  1.00  0.00    -0.435 OA 
ENDBRANCH  34  37
ENDBRANCH  33  34
ENDBRANCH   3  33
TORSDOF 11
ENDMDL
MODEL      154
REMARK 921   NORMALIZED FREE ENERGY PREDICTED BY IDOCK:   -1.22 KCAL/MOL
REMARK 922        TOTAL FREE ENERGY PREDICTED BY IDOCK:   -2.61 KCAL/MOL
REMARK 923 INTER-LIGAND FREE ENERGY PREDICTED BY IDOCK:   -4.93 KCAL/MOL
REMARK 924 INTRA-LIGAND FREE ENERGY PREDICTED BY IDOCK:    2.32 KCAL/MOL
REMARK 927      BINDING AFFINITY PREDICTED BY RF-SCORE:    0.00 PKD
ROOT
HETATM    1  C   UNL     1     -10.096  11.243  63.497  1.00  0.00    -0.443 C  
HETATM    2  C   UNL     1     -10.701  11.626  64.819  1.00  0.00    -0.309 C  
HETATM    3  N   UNL     1      -9.832  11.866  65.887  1.00  0.00    -0.233 N  
HETATM    4  O   UNL     1     -11.924  11.752  64.915  1.00  0.00    -0.177 OA 
ENDROOT
BRANCH   3   5
HETATM    5  C   UNL     1     -10.464  12.201  67.129  1.00  0.00    -0.219 A  
HETATM    6  I   UNL     1     -12.080  13.495  71.645  1.00  0.00     1.201 I  
HETATM    7  C   UNL     1     -11.597  12.924  69.603  1.00  0.00    -0.248 A  
HETATM    8  C   UNL     1     -10.920  11.196  68.025  1.00  0.00    -0.252 A  
HETATM    9  I   UNL     1     -10.841   9.129  67.383  1.00  0.00     0.431 I  
HETATM   10  C   UNL     1     -10.691  13.570  67.428  1.00  0.00    -0.263 A  
HETATM   11  C   UNL     1     -11.249  13.944  68.671  1.00  0.00    -0.298 A  
HETATM   12  C   UNL     1     -11.489  11.548  69.275  1.00  0.00    -0.370 A  
HETATM   13  I   UNL     1     -10.215  15.050  65.897  1.00  0.00    -0.425 I  
BRANCH  12  14
HETATM   14  C   UNL     1     -11.869  10.471  70.245  1.00  0.00    -0.331 C  
HETATM   15  N   UNL     1     -10.855   9.693  70.769  1.00  0.00    -0.307 N  
HETATM   16  O   UNL     1     -13.048  10.299  70.539  1.00  0.00    -0.320 OA 
HETATM   17  H   UNL     1      -9.893   9.873  70.483  1.00  0.00     0.000 HD 
BRANCH  15  18
HETATM   18  C   UNL     1     -11.127   8.618  71.721  1.00  0.00    -0.326 C  
BRANCH  18  19
HETATM   19  C   UNL     1     -11.021   7.229  71.075  1.00  0.00    -0.251 C  
HETATM   20  H   UNL     1     -12.121   6.129  69.873  1.00  0.00     0.000 HD 
HETATM   21  O   UNL     1     -12.187   6.989  70.272  1.00  0.00    -0.182 OA 
BRANCH  19  22
HETATM   22  C   UNL     1      -9.744   7.095  70.226  1.00  0.00    -0.175 C  
HETATM   23  O   UNL     1      -8.666   7.853  70.770  1.00  0.00    -0.130 OA 
HETATM   24  H   UNL     1      -7.879   7.771  70.246  1.00  0.00     0.000 HD 
ENDBRANCH  19  22
ENDBRANCH  18  19
ENDBRANCH  15  18
ENDBRANCH  12  14
BRANCH  11  25
HETATM   25  C   UNL     1     -11.559  15.367  68.976  1.00  0.00    -0.347 C  
HETATM   26  O   UNL     1     -12.702  15.683  69.293  1.00  0.00     0.086 OA 
HETATM   27  H   UNL     1      -9.593  15.958  68.638  1.00  0.00     0.000 HD 
HETATM   28  N   UNL     1     -10.530  16.287  68.871  1.00  0.00    -0.254 N  
BRANCH  28  29
HETATM   29  C   UNL     1     -10.748  17.706  69.081  1.00  0.00     0.149 C  
BRANCH  29  30
HETATM   30  C   UNL     1      -9.786  18.524  68.231  1.00  0.00    -0.363 C  
HETATM   31  O   UNL     1      -8.441  18.180  68.570  1.00  0.00    -0.299 OA 
HETATM   32  H   UNL     1      -7.841  18.691  68.040  1.00  0.00     0.000 HD 
ENDBRANCH  29  30
ENDBRANCH  28  29
ENDBRANCH  11  25
ENDBRANCH   3   5
BRANCH   3  33
HETATM   33  C   UNL     1      -8.362  11.614  65.883  1.00  0.00     0.200 C  
BRANCH  33  34
HETATM   34  C   UNL     1      -7.898  10.137  66.009  1.00  0.00    -0.122 C  
HETATM   35  O   UNL     1      -8.972   9.207  65.806  1.00  0.00    -0.167 OA 
HETATM   36  H   UNL     1      -8.688   8.304  65.883  1.00  0.00     0.000 HD 
BRANCH  34  37
HETATM   37  C   UNL     1      -6.779   9.785  65.011  1.00  0.00    -0.107 C  
HETATM   38  H   UNL     1      -6.342   8.313  63.759  1.00  0.00     0.000 HD 
HETATM   39  O   UNL     1      -7.032   8.530  64.375  1.00  0.00    -0.079 OA 
ENDBRANCH  34  37
ENDBRANCH  33  34
ENDBRANCH   3  33
TORSDOF 11
ENDMDL
MODEL      155
REMARK 921   NORMALIZED FREE ENERGY PREDICTED BY IDOCK:   -1.20 KCAL/MOL
REMARK 922        TOTAL FREE ENERGY PREDICTED BY IDOCK:   -2.59 KCAL/MOL
REMARK 923 INTER-LIGAND FREE ENERGY PREDICTED BY IDOCK:   -3.65 KCAL/MOL
REMARK 924 INTRA-LIGAND FREE ENERGY PREDICTED BY IDOCK:    1.07 KCAL/MOL
REMARK 927      BINDING AFFINITY PREDICTED BY RF-SCORE:    0.00 PKD
ROOT
HETATM    1  C   UNL     1     -10.925  11.459  64.341  1.00  0.00    -0.371 C  
HETATM    2  C   UNL     1      -9.998  11.122  65.475  1.00  0.00    -0.249 C  
HETATM    3  N   UNL     1     -10.481  11.272  66.778  1.00  0.00    -0.238 N  
HETATM    4  O   UNL     1      -8.867  10.696  65.229  1.00  0.00    -0.181 OA 
ENDROOT
BRANCH   3   5
HETATM    5  C   UNL     1      -9.545  10.964  67.819  1.00  0.00    -0.164 A  
HETATM    6  I   UNL     1      -5.885   9.793  70.966  1.00  0.00    -0.005 I  
HETATM    7  C   UNL     1      -7.608  10.375  69.776  1.00  0.00    -0.133 A  
HETATM    8  C   UNL     1      -9.586   9.723  68.511  1.00  0.00    -0.149 A  
HETATM    9  I   UNL     1     -11.235   8.376  68.116  1.00  0.00     1.438 I  
HETATM   10  C   UNL     1      -8.602  11.955  68.199  1.00  0.00    -0.165 A  
HETATM   11  C   UNL     1      -7.620  11.666  69.172  1.00  0.00     0.044 A  
HETATM   12  C   UNL     1      -8.615   9.414  69.496  1.00  0.00    -0.158 A  
HETATM   13  I   UNL     1      -8.763  13.931  67.289  1.00  0.00    -0.185 I  
BRANCH  12  14
HETATM   14  C   UNL     1      -8.616   8.061  70.140  1.00  0.00    -0.130 C  
HETATM   15  N   UNL     1      -9.301   7.919  71.331  1.00  0.00    -0.140 N  
HETATM   16  O   UNL     1      -8.012   7.132  69.614  1.00  0.00    -0.119 OA 
HETATM   17  H   UNL     1      -9.779   8.728  71.729  1.00  0.00     0.000 HD 
BRANCH  15  18
HETATM   18  C   UNL     1      -9.359   6.640  72.034  1.00  0.00    -0.142 C  
BRANCH  18  19
HETATM   19  C   UNL     1     -10.527   5.765  71.555  1.00  0.00    -0.235 C  
HETATM   20  H   UNL     1     -10.844   3.846  71.265  1.00  0.00     0.000 HD 
HETATM   21  O   UNL     1     -10.122   4.387  71.561  1.00  0.00    -0.188 OA 
BRANCH  19  22
HETATM   22  C   UNL     1     -11.778   5.963  72.428  1.00  0.00    -0.253 C  
HETATM   23  O   UNL     1     -12.034   4.826  73.250  1.00  0.00    -0.393 OA 
HETATM   24  H   UNL     1     -12.806   4.948  73.789  1.00  0.00     0.000 HD 
ENDBRANCH  19  22
ENDBRANCH  18  19
ENDBRANCH  15  18
ENDBRANCH  12  14
BRANCH  11  25
HETATM   25  C   UNL     1      -6.667  12.711  69.636  1.00  0.00     0.085 C  
HETATM   26  O   UNL     1      -6.496  12.883  70.839  1.00  0.00     0.222 OA 
HETATM   27  H   UNL     1      -6.176  13.250  67.686  1.00  0.00     0.000 HD 
HETATM   28  N   UNL     1      -6.020  13.465  68.671  1.00  0.00    -0.080 N  
BRANCH  28  29
HETATM   29  C   UNL     1      -5.125  14.551  69.023  1.00  0.00    -0.083 C  
BRANCH  29  30
HETATM   30  C   UNL     1      -5.918  15.811  69.344  1.00  0.00    -0.129 C  
HETATM   31  O   UNL     1      -5.156  16.639  70.225  1.00  0.00    -0.165 OA 
HETATM   32  H   UNL     1      -5.650  17.425  70.426  1.00  0.00     0.000 HD 
ENDBRANCH  29  30
ENDBRANCH  28  29
ENDBRANCH  11  25
ENDBRANCH   3   5
BRANCH   3  33
HETATM   33  C   UNL     1     -11.781  11.898  67.153  1.00  0.00    -0.236 C  
BRANCH  33  34
HETATM   34  C   UNL     1     -11.722  13.221  67.965  1.00  0.00    -0.359 C  
HETATM   35  O   UNL     1     -12.546  14.249  67.396  1.00  0.00    -0.531 OA 
HETATM   36  H   UNL     1     -12.510  15.058  67.892  1.00  0.00     0.000 HD 
BRANCH  34  37
HETATM   37  C   UNL     1     -12.155  13.032  69.430  1.00  0.00    -0.212 C  
HETATM   38  H   UNL     1     -12.849  11.573  70.576  1.00  0.00     0.000 HD 
HETATM   39  O   UNL     1     -12.582  11.689  69.672  1.00  0.00    -0.051 OA 
ENDBRANCH  34  37
ENDBRANCH  33  34
ENDBRANCH   3  33
TORSDOF 11
ENDMDL
MODEL      156
REMARK 921   NORMALIZED FREE ENERGY PREDICTED BY IDOCK:   -1.18 KCAL/MOL
REMARK 922        TOTAL FREE ENERGY PREDICTED BY IDOCK:   -2.55 KCAL/MOL
REMARK 923 INTER-LIGAND FREE ENERGY PREDICTED BY IDOCK:   -3.60 KCAL/MOL
REMARK 924 INTRA-LIGAND FREE ENERGY PREDICTED BY IDOCK:    1.05 KCAL/MOL
REMARK 927      BINDING AFFINITY PREDICTED BY RF-SCORE:    0.00 PKD
ROOT
HETATM    1  C   UNL     1      -6.751   9.100  62.530  1.00  0.00    -0.092 C  
HETATM    2  C   UNL     1      -6.898   9.992  63.732  1.00  0.00    -0.126 C  
HETATM    3  N   UNL     1      -7.812   9.610  64.718  1.00  0.00    -0.122 N  
HETATM    4  O   UNL     1      -6.193  10.999  63.831  1.00  0.00     0.315 OA 
ENDROOT
BRANCH   3   5
HETATM    5  C   UNL     1      -7.930  10.511  65.826  1.00  0.00    -0.158 A  
HETATM    6  I   UNL     1      -8.017  14.043  69.318  1.00  0.00     0.629 I  
HETATM    7  C   UNL     1      -8.133  12.380  67.922  1.00  0.00    -0.161 A  
HETATM    8  C   UNL     1      -7.130  10.365  66.992  1.00  0.00    -0.092 A  
HETATM    9  I   UNL     1      -5.867   8.613  67.161  1.00  0.00    -0.043 I  
HETATM   10  C   UNL     1      -8.918  11.529  65.771  1.00  0.00    -0.115 A  
HETATM   11  C   UNL     1      -9.021  12.479  66.813  1.00  0.00    -0.198 A  
HETATM   12  C   UNL     1      -7.220  11.301  68.052  1.00  0.00    -0.079 A  
HETATM   13  I   UNL     1     -10.294  11.536  64.078  1.00  0.00    -0.535 I  
BRANCH  12  14
HETATM   14  C   UNL     1      -6.295  11.184  69.225  1.00  0.00    -0.076 C  
HETATM   15  N   UNL     1      -6.681  10.364  70.267  1.00  0.00    -0.150 N  
HETATM   16  O   UNL     1      -5.244  11.816  69.241  1.00  0.00    -0.051 OA 
HETATM   17  H   UNL     1      -7.571   9.868  70.206  1.00  0.00     0.000 HD 
BRANCH  15  18
HETATM   18  C   UNL     1      -5.847  10.187  71.453  1.00  0.00     0.075 C  
BRANCH  18  19
HETATM   19  C   UNL     1      -6.044   8.809  72.102  1.00  0.00    -0.075 C  
HETATM   20  H   UNL     1      -5.348   7.865  73.680  1.00  0.00     0.000 HD 
HETATM   21  O   UNL     1      -5.226   8.717  73.279  1.00  0.00    -0.057 OA 
BRANCH  19  22
HETATM   22  C   UNL     1      -7.521   8.553  72.451  1.00  0.00    -0.038 C  
HETATM   23  O   UNL     1      -8.232   7.984  71.354  1.00  0.00    -0.100 OA 
HETATM   24  H   UNL     1      -9.143   7.826  71.570  1.00  0.00     0.000 HD 
ENDBRANCH  19  22
ENDBRANCH  18  19
ENDBRANCH  15  18
ENDBRANCH  12  14
BRANCH  11  25
HETATM   25  C   UNL     1     -10.093  13.510  66.808  1.00  0.00    -0.268 C  
HETATM   26  O   UNL     1     -11.233  13.196  66.480  1.00  0.00    -0.295 OA 
HETATM   27  H   UNL     1      -8.789  14.993  67.464  1.00  0.00     0.000 HD 
HETATM   28  N   UNL     1      -9.745  14.802  67.165  1.00  0.00    -0.229 N  
BRANCH  28  29
HETATM   29  C   UNL     1     -10.703  15.890  67.127  1.00  0.00    -0.301 C  
BRANCH  29  30
HETATM   30  C   UNL     1     -10.392  16.913  68.211  1.00  0.00    -0.335 C  
HETATM   31  O   UNL     1     -11.509  17.022  69.095  1.00  0.00    -0.095 OA 
HETATM   32  H   UNL     1     -11.315  17.660  69.772  1.00  0.00     0.000 HD 
ENDBRANCH  29  30
ENDBRANCH  28  29
ENDBRANCH  11  25
ENDBRANCH   3   5
BRANCH   3  33
HETATM   33  C   UNL     1      -8.783   8.483  64.610  1.00  0.00     0.013 C  
BRANCH  33  34
HETATM   34  C   UNL     1      -8.873   7.509  65.817  1.00  0.00    -0.090 C  
HETATM   35  O   UNL     1     -10.192   7.458  66.381  1.00  0.00    -0.469 OA 
HETATM   36  H   UNL     1     -10.247   6.862  67.118  1.00  0.00     0.000 HD 
BRANCH  34  37
HETATM   37  C   UNL     1      -8.467   6.072  65.444  1.00  0.00    -0.145 C  
HETATM   38  H   UNL     1      -8.926   4.228  66.002  1.00  0.00     0.000 HD 
HETATM   39  O   UNL     1      -9.177   5.115  66.233  1.00  0.00    -0.136 OA 
ENDBRANCH  34  37
ENDBRANCH  33  34
ENDBRANCH   3  33
TORSDOF 11
ENDMDL
MODEL      157
REMARK 921   NORMALIZED FREE ENERGY PREDICTED BY IDOCK:   -1.14 KCAL/MOL
REMARK 922        TOTAL FREE ENERGY PREDICTED BY IDOCK:   -2.49 KCAL/MOL
REMARK 923 INTER-LIGAND FREE ENERGY PREDICTED BY IDOCK:   -3.48 KCAL/MOL
REMARK 924 INTRA-LIGAND FREE ENERGY PREDICTED BY IDOCK:    0.99 KCAL/MOL
REMARK 927      BINDING AFFINITY PREDICTED BY RF-SCORE:    0.00 PKD
ROOT
HETATM    1  C   UNL     1     -11.251   6.595  67.250  1.00  0.00    -0.304 C  
HETATM    2  C   UNL     1     -10.573   7.804  67.832  1.00  0.00    -0.156 C  
HETATM    3  N   UNL     1      -9.626   8.463  67.042  1.00  0.00    -0.174 N  
HETATM    4  O   UNL     1     -10.892   8.198  68.957  1.00  0.00    -0.133 OA 
ENDROOT
BRANCH   3   5
HETATM    5  C   UNL     1      -8.993   9.592  67.658  1.00  0.00    -0.117 A  
HETATM    6  I   UNL     1      -6.458  13.550  69.264  1.00  0.00    -0.035 I  
HETATM    7  C   UNL     1      -7.707  11.847  68.747  1.00  0.00    -0.074 A  
HETATM    8  C   UNL     1      -8.013   9.431  68.675  1.00  0.00    -0.092 A  
HETATM    9  I   UNL     1      -7.641   7.441  69.443  1.00  0.00    -0.100 I  
HETATM   10  C   UNL     1      -9.411  10.895  67.279  1.00  0.00    -0.155 A  
HETATM   11  C   UNL     1      -8.764  12.033  67.811  1.00  0.00    -0.161 A  
HETATM   12  C   UNL     1      -7.356  10.558  69.228  1.00  0.00    -0.113 A  
HETATM   13  I   UNL     1     -11.104  11.075  65.914  1.00  0.00     0.395 I  
BRANCH  12  14
HETATM   14  C   UNL     1      -6.255  10.359  70.225  1.00  0.00    -0.122 C  
HETATM   15  N   UNL     1      -6.527   9.584  71.335  1.00  0.00    -0.006 N  
HETATM   16  O   UNL     1      -5.163  10.888  70.045  1.00  0.00    -0.042 OA 
HETATM   17  H   UNL     1      -7.456   9.175  71.440  1.00  0.00     0.000 HD 
BRANCH  15  18
HETATM   18  C   UNL     1      -5.518   9.333  72.362  1.00  0.00    -0.064 C  
BRANCH  18  19
HETATM   19  C   UNL     1      -5.841   8.089  73.202  1.00  0.00    -0.058 C  
HETATM   20  H   UNL     1      -5.644   7.549  75.083  1.00  0.00     0.000 HD 
HETATM   21  O   UNL     1      -5.444   8.319  74.563  1.00  0.00    -0.082 OA 
BRANCH  19  22
HETATM   22  C   UNL     1      -7.335   7.728  73.130  1.00  0.00    -0.104 C  
HETATM   23  O   UNL     1      -7.775   7.059  74.310  1.00  0.00    -0.106 OA 
HETATM   24  H   UNL     1      -8.697   6.837  74.266  1.00  0.00     0.000 HD 
ENDBRANCH  19  22
ENDBRANCH  18  19
ENDBRANCH  15  18
ENDBRANCH  12  14
BRANCH  11  25
HETATM   25  C   UNL     1      -9.232  13.406  67.481  1.00  0.00    -0.219 C  
HETATM   26  O   UNL     1      -8.705  14.019  66.557  1.00  0.00    -0.101 OA 
HETATM   27  H   UNL     1     -10.670  13.371  68.985  1.00  0.00     0.000 HD 
HETATM   28  N   UNL     1     -10.247  13.944  68.254  1.00  0.00    -0.241 N  
BRANCH  28  29
HETATM   29  C   UNL     1     -10.724  15.299  68.055  1.00  0.00    -0.268 C  
BRANCH  29  30
HETATM   30  C   UNL     1     -10.379  16.167  69.257  1.00  0.00    -0.265 C  
HETATM   31  O   UNL     1     -11.399  17.153  69.438  1.00  0.00    -0.108 OA 
HETATM   32  H   UNL     1     -11.183  17.695  70.188  1.00  0.00     0.000 HD 
ENDBRANCH  29  30
ENDBRANCH  28  29
ENDBRANCH  11  25
ENDBRANCH   3   5
BRANCH   3  33
HETATM   33  C   UNL     1      -9.100   7.977  65.734  1.00  0.00    -0.055 C  
BRANCH  33  34
HETATM   34  C   UNL     1      -7.777   8.611  65.225  1.00  0.00    -0.092 C  
HETATM   35  O   UNL     1      -6.785   7.624  64.907  1.00  0.00    -0.049 OA 
HETATM   36  H   UNL     1      -5.976   8.012  64.595  1.00  0.00     0.000 HD 
BRANCH  34  37
HETATM   37  C   UNL     1      -7.987   9.484  63.974  1.00  0.00    -0.141 C  
HETATM   38  H   UNL     1      -6.954  10.803  62.917  1.00  0.00     0.000 HD 
HETATM   39  O   UNL     1      -6.824  10.264  63.689  1.00  0.00    -0.134 OA 
ENDBRANCH  34  37
ENDBRANCH  33  34
ENDBRANCH   3  33
TORSDOF 11
ENDMDL
MODEL      158
REMARK 921   NORMALIZED FREE ENERGY PREDICTED BY IDOCK:   -1.07 KCAL/MOL
REMARK 922        TOTAL FREE ENERGY PREDICTED BY IDOCK:   -2.36 KCAL/MOL
REMARK 923 INTER-LIGAND FREE ENERGY PREDICTED BY IDOCK:   -3.95 KCAL/MOL
REMARK 924 INTRA-LIGAND FREE ENERGY PREDICTED BY IDOCK:    1.59 KCAL/MOL
REMARK 927      BINDING AFFINITY PREDICTED BY RF-SCORE:    0.00 PKD
ROOT
HETATM    1  C   UNL     1     -10.425  10.225  65.193  1.00  0.00    -0.069 C  
HETATM    2  C   UNL     1      -9.500   9.763  66.285  1.00  0.00    -0.195 C  
HETATM    3  N   UNL     1     -10.057   9.492  67.538  1.00  0.00    -0.190 N  
HETATM    4  O   UNL     1      -8.302   9.602  66.040  1.00  0.00    -0.117 OA 
ENDROOT
BRANCH   3   5
HETATM    5  C   UNL     1      -9.125   9.082  68.548  1.00  0.00    -0.133 A  
HETATM    6  I   UNL     1      -5.473   7.629  71.584  1.00  0.00    -0.035 I  
HETATM    7  C   UNL     1      -7.197   8.308  70.448  1.00  0.00    -0.044 A  
HETATM    8  C   UNL     1      -9.142   7.766  69.084  1.00  0.00    -0.145 A  
HETATM    9  I   UNL     1     -10.750   6.437  68.504  1.00  0.00    -0.390 I  
HETATM   10  C   UNL     1      -8.213  10.043  69.060  1.00  0.00    -0.124 A  
HETATM   11  C   UNL     1      -7.235   9.662  70.005  1.00  0.00    -0.119 A  
HETATM   12  C   UNL     1      -8.174   7.364  70.038  1.00  0.00    -0.131 A  
HETATM   13  I   UNL     1      -8.415  12.110  68.393  1.00  0.00     0.018 I  
BRANCH  12  14
HETATM   14  C   UNL     1      -8.148   5.943  70.513  1.00  0.00    -0.111 C  
HETATM   15  N   UNL     1      -7.647   4.988  69.650  1.00  0.00    -0.056 N  
HETATM   16  O   UNL     1      -8.575   5.662  71.628  1.00  0.00    -0.130 OA 
HETATM   17  H   UNL     1      -7.314   5.275  68.730  1.00  0.00     0.000 HD 
BRANCH  15  18
HETATM   18  C   UNL     1      -7.582   3.576  70.023  1.00  0.00    -0.044 C  
BRANCH  18  19
HETATM   19  C   UNL     1      -8.912   2.848  69.778  1.00  0.00    -0.104 C  
HETATM   20  H   UNL     1      -9.513   1.290  68.741  1.00  0.00     0.000 HD 
HETATM   21  O   UNL     1      -8.690   1.740  68.892  1.00  0.00    -0.058 OA 
BRANCH  19  22
HETATM   22  C   UNL     1      -9.546   2.368  71.095  1.00  0.00    -0.145 C  
HETATM   23  O   UNL     1      -8.836   2.856  72.232  1.00  0.00    -0.073 OA 
HETATM   24  H   UNL     1      -9.227   2.559  73.044  1.00  0.00     0.000 HD 
ENDBRANCH  19  22
ENDBRANCH  18  19
ENDBRANCH  15  18
ENDBRANCH  12  14
BRANCH  11  25
HETATM   25  C   UNL     1      -6.316  10.666  70.606  1.00  0.00    -0.011 C  
HETATM   26  O   UNL     1      -5.906  10.502  71.751  1.00  0.00    -0.306 OA 
HETATM   27  H   UNL     1      -6.317  11.828  68.879  1.00  0.00     0.000 HD 
HETATM   28  N   UNL     1      -5.973  11.766  69.837  1.00  0.00    -0.131 N  
BRANCH  28  29
HETATM   29  C   UNL     1      -5.139  12.832  70.357  1.00  0.00    -0.107 C  
BRANCH  29  30
HETATM   30  C   UNL     1      -5.958  13.773  71.228  1.00  0.00    -0.053 C  
HETATM   31  O   UNL     1      -5.773  13.430  72.604  1.00  0.00    -0.387 OA 
HETATM   32  H   UNL     1      -6.285  14.017  73.147  1.00  0.00     0.000 HD 
ENDBRANCH  29  30
ENDBRANCH  28  29
ENDBRANCH  11  25
ENDBRANCH   3   5
BRANCH   3  33
HETATM   33  C   UNL     1     -11.463   9.781  67.943  1.00  0.00     0.486 C  
BRANCH  33  34
HETATM   34  C   UNL     1     -11.732  11.140  68.647  1.00  0.00    -0.320 C  
HETATM   35  O   UNL     1     -12.244  12.131  67.744  1.00  0.00    -0.451 OA 
HETATM   36  H   UNL     1     -12.409  12.961  68.174  1.00  0.00     0.000 HD 
BRANCH  34  37
HETATM   37  C   UNL     1     -12.727  11.010  69.814  1.00  0.00     0.041 C  
HETATM   38  H   UNL     1     -12.733  10.296  71.662  1.00  0.00     0.000 HD 
HETATM   39  O   UNL     1     -12.119  10.377  70.942  1.00  0.00    -0.311 OA 
ENDBRANCH  34  37
ENDBRANCH  33  34
ENDBRANCH   3  33
TORSDOF 11
ENDMDL
MODEL      159
REMARK 921   NORMALIZED FREE ENERGY PREDICTED BY IDOCK:   -1.06 KCAL/MOL
REMARK 922        TOTAL FREE ENERGY PREDICTED BY IDOCK:   -2.35 KCAL/MOL
REMARK 923 INTER-LIGAND FREE ENERGY PREDICTED BY IDOCK:   -2.92 KCAL/MOL
REMARK 924 INTRA-LIGAND FREE ENERGY PREDICTED BY IDOCK:    0.56 KCAL/MOL
REMARK 927      BINDING AFFINITY PREDICTED BY RF-SCORE:    0.00 PKD
ROOT
HETATM    1  C   UNL     1      -8.944   9.423  62.804  1.00  0.00    -0.200 C  
HETATM    2  C   UNL     1      -8.847   9.497  64.303  1.00  0.00    -0.213 C  
HETATM    3  N   UNL     1      -8.311   8.395  64.975  1.00  0.00    -0.162 N  
HETATM    4  O   UNL     1      -9.203  10.523  64.885  1.00  0.00    -0.185 OA 
ENDROOT
BRANCH   3   5
HETATM    5  C   UNL     1      -8.268   8.509  66.403  1.00  0.00    -0.108 A  
HETATM    6  I   UNL     1      -7.638   8.503  71.330  1.00  0.00    -0.118 I  
HETATM    7  C   UNL     1      -8.062   8.684  69.205  1.00  0.00    -0.112 A  
HETATM    8  C   UNL     1      -9.217   7.849  67.230  1.00  0.00    -0.142 A  
HETATM    9  I   UNL     1     -10.878   6.831  66.284  1.00  0.00     1.977 I  
HETATM   10  C   UNL     1      -7.290   9.356  66.987  1.00  0.00    -0.087 A  
HETATM   11  C   UNL     1      -7.171   9.443  68.392  1.00  0.00    -0.076 A  
HETATM   12  C   UNL     1      -9.121   7.927  68.642  1.00  0.00    -0.136 A  
HETATM   13  I   UNL     1      -6.038  10.551  65.658  1.00  0.00    -0.048 I  
BRANCH  12  14
HETATM   14  C   UNL     1     -10.071   7.140  69.494  1.00  0.00    -0.179 C  
HETATM   15  N   UNL     1     -11.015   7.842  70.217  1.00  0.00    -0.253 N  
HETATM   16  O   UNL     1      -9.983   5.918  69.540  1.00  0.00    -0.165 OA 
HETATM   17  H   UNL     1     -11.038   8.860  70.149  1.00  0.00     0.000 HD 
BRANCH  15  18
HETATM   18  C   UNL     1     -11.983   7.164  71.077  1.00  0.00    -0.347 C  
BRANCH  18  19
HETATM   19  C   UNL     1     -13.328   7.904  71.133  1.00  0.00    -0.053 C  
HETATM   20  H   UNL     1     -15.208   7.418  71.444  1.00  0.00     0.000 HD 
HETATM   21  O   UNL     1     -14.376   6.961  71.409  1.00  0.00    -0.260 OA 
BRANCH  19  22
HETATM   22  C   UNL     1     -13.317   9.021  72.191  1.00  0.00    -0.455 C  
HETATM   23  O   UNL     1     -13.914   8.597  73.414  1.00  0.00    -0.985 OA 
HETATM   24  H   UNL     1     -13.907   9.287  74.067  1.00  0.00     0.000 HD 
ENDBRANCH  19  22
ENDBRANCH  18  19
ENDBRANCH  15  18
ENDBRANCH  12  14
BRANCH  11  25
HETATM   25  C   UNL     1      -6.200  10.376  69.025  1.00  0.00    -0.044 C  
HETATM   26  O   UNL     1      -5.152   9.936  69.490  1.00  0.00    -0.035 OA 
HETATM   27  H   UNL     1      -7.404  12.028  68.638  1.00  0.00     0.000 HD 
HETATM   28  N   UNL     1      -6.536  11.718  69.074  1.00  0.00    -0.086 N  
BRANCH  28  29
HETATM   29  C   UNL     1      -5.688  12.695  69.730  1.00  0.00    -0.112 C  
BRANCH  29  30
HETATM   30  C   UNL     1      -6.514  13.594  70.639  1.00  0.00     0.282 C  
HETATM   31  O   UNL     1      -7.341  14.444  69.842  1.00  0.00    -0.382 OA 
HETATM   32  H   UNL     1      -7.857  15.005  70.410  1.00  0.00     0.000 HD 
ENDBRANCH  29  30
ENDBRANCH  28  29
ENDBRANCH  11  25
ENDBRANCH   3   5
BRANCH   3  33
HETATM   33  C   UNL     1      -7.979   7.079  64.356  1.00  0.00    -0.101 C  
BRANCH  33  34
HETATM   34  C   UNL     1      -6.667   6.390  64.821  1.00  0.00    -0.039 C  
HETATM   35  O   UNL     1      -6.820   5.711  66.076  1.00  0.00    -0.055 OA 
HETATM   36  H   UNL     1      -6.018   5.290  66.360  1.00  0.00     0.000 HD 
BRANCH  34  37
HETATM   37  C   UNL     1      -6.146   5.366  63.796  1.00  0.00    -0.022 C  
HETATM   38  H   UNL     1      -5.582   5.350  61.897  1.00  0.00     0.000 HD 
HETATM   39  O   UNL     1      -5.903   5.982  62.529  1.00  0.00    -0.021 OA 
ENDBRANCH  34  37
ENDBRANCH  33  34
ENDBRANCH   3  33
TORSDOF 11
ENDMDL
MODEL      160
REMARK 921   NORMALIZED FREE ENERGY PREDICTED BY IDOCK:   -1.00 KCAL/MOL
REMARK 922        TOTAL FREE ENERGY PREDICTED BY IDOCK:   -2.26 KCAL/MOL
REMARK 923 INTER-LIGAND FREE ENERGY PREDICTED BY IDOCK:   -4.31 KCAL/MOL
REMARK 924 INTRA-LIGAND FREE ENERGY PREDICTED BY IDOCK:    2.05 KCAL/MOL
REMARK 927      BINDING AFFINITY PREDICTED BY RF-SCORE:    0.00 PKD
ROOT
HETATM    1  C   UNL     1     -11.353  12.071  64.300  1.00  0.00    -0.433 C  
HETATM    2  C   UNL     1     -10.269  11.846  65.316  1.00  0.00    -0.272 C  
HETATM    3  N   UNL     1     -10.481  12.324  66.612  1.00  0.00    -0.220 N  
HETATM    4  O   UNL     1      -9.254  11.223  64.994  1.00  0.00    -0.203 OA 
ENDROOT
BRANCH   3   5
HETATM    5  C   UNL     1      -9.403  12.106  67.531  1.00  0.00    -0.181 A  
HETATM    6  I   UNL     1      -5.313  11.234  70.211  1.00  0.00    -0.141 I  
HETATM    7  C   UNL     1      -7.202  11.692  69.236  1.00  0.00    -0.020 A  
HETATM    8  C   UNL     1      -9.304  10.907  68.288  1.00  0.00    -0.168 A  
HETATM    9  I   UNL     1     -10.938   9.489  68.193  1.00  0.00     0.214 I  
HETATM   10  C   UNL     1      -8.457  13.146  67.727  1.00  0.00    -0.185 A  
HETATM   11  C   UNL     1      -7.343  12.944  68.572  1.00  0.00    -0.115 A  
HETATM   12  C   UNL     1      -8.199  10.686  69.147  1.00  0.00    -0.142 A  
HETATM   13  I   UNL     1      -8.814  15.060  66.742  1.00  0.00    -0.207 I  
BRANCH  12  14
HETATM   14  C   UNL     1      -8.062   9.373  69.857  1.00  0.00    -0.138 C  
HETATM   15  N   UNL     1      -7.672   8.278  69.110  1.00  0.00    -0.095 N  
HETATM   16  O   UNL     1      -8.307   9.296  71.056  1.00  0.00    -0.255 OA 
HETATM   17  H   UNL     1      -7.490   8.396  68.113  1.00  0.00     0.000 HD 
BRANCH  15  18
HETATM   18  C   UNL     1      -7.513   6.956  69.712  1.00  0.00    -0.095 C  
BRANCH  18  19
HETATM   19  C   UNL     1      -6.941   5.931  68.721  1.00  0.00    -0.072 C  
HETATM   20  H   UNL     1      -6.449   5.912  66.818  1.00  0.00     0.000 HD 
HETATM   21  O   UNL     1      -6.802   6.546  67.431  1.00  0.00    -0.070 OA 
BRANCH  19  22
HETATM   22  C   UNL     1      -5.590   5.372  69.201  1.00  0.00    -0.011 C  
HETATM   23  O   UNL     1      -5.528   5.289  70.623  1.00  0.00    -0.004 OA 
HETATM   24  H   UNL     1      -4.694   4.944  70.919  1.00  0.00     0.000 HD 
ENDBRANCH  19  22
ENDBRANCH  18  19
ENDBRANCH  15  18
ENDBRANCH  12  14
BRANCH  11  25
HETATM   25  C   UNL     1      -6.378  14.043  68.845  1.00  0.00    -0.092 C  
HETATM   26  O   UNL     1      -5.756  14.548  67.915  1.00  0.00    -0.147 OA 
HETATM   27  H   UNL     1      -6.783  14.008  70.886  1.00  0.00     0.000 HD 
HETATM   28  N   UNL     1      -6.211  14.441  70.161  1.00  0.00    -0.157 N  
BRANCH  28  29
HETATM   29  C   UNL     1      -5.246  15.456  70.537  1.00  0.00    -0.138 C  
BRANCH  29  30
HETATM   30  C   UNL     1      -5.159  15.575  72.052  1.00  0.00     0.012 C  
HETATM   31  O   UNL     1      -5.568  14.342  72.649  1.00  0.00    -0.175 OA 
HETATM   32  H   UNL     1      -5.514  14.416  73.594  1.00  0.00     0.000 HD 
ENDBRANCH  29  30
ENDBRANCH  28  29
ENDBRANCH  11  25
ENDBRANCH   3   5
BRANCH   3  33
HETATM   33  C   UNL     1     -11.617  13.190  67.040  1.00  0.00    -0.359 C  
BRANCH  33  34
HETATM   34  C   UNL     1     -12.436  12.723  68.275  1.00  0.00     0.619 C  
HETATM   35  O   UNL     1     -12.508  11.293  68.374  1.00  0.00    -0.495 OA 
HETATM   36  H   UNL     1     -13.008  11.007  69.129  1.00  0.00     0.000 HD 
BRANCH  34  37
HETATM   37  C   UNL     1     -11.859  13.256  69.599  1.00  0.00    -0.327 C  
HETATM   38  H   UNL     1     -11.454  12.556  71.408  1.00  0.00     0.000 HD 
HETATM   39  O   UNL     1     -11.810  12.228  70.591  1.00  0.00    -0.232 OA 
ENDBRANCH  34  37
ENDBRANCH  33  34
ENDBRANCH   3  33
TORSDOF 11
ENDMDL
MODEL      161
REMARK 921   NORMALIZED FREE ENERGY PREDICTED BY IDOCK:   -0.97 KCAL/MOL
REMARK 922        TOTAL FREE ENERGY PREDICTED BY IDOCK:   -2.20 KCAL/MOL
REMARK 923 INTER-LIGAND FREE ENERGY PREDICTED BY IDOCK:   -4.36 KCAL/MOL
REMARK 924 INTRA-LIGAND FREE ENERGY PREDICTED BY IDOCK:    2.15 KCAL/MOL
REMARK 927      BINDING AFFINITY PREDICTED BY RF-SCORE:    0.00 PKD
ROOT
HETATM    1  C   UNL     1      -9.429   2.787  67.901  1.00  0.00    -0.196 C  
HETATM    2  C   UNL     1      -8.916   4.194  67.770  1.00  0.00    -0.121 C  
HETATM    3  N   UNL     1      -9.511   5.017  66.810  1.00  0.00    -0.134 N  
HETATM    4  O   UNL     1      -8.024   4.588  68.524  1.00  0.00    -0.078 OA 
ENDROOT
BRANCH   3   5
HETATM    5  C   UNL     1      -8.964   6.338  66.710  1.00  0.00    -0.125 A  
HETATM    6  I   UNL     1      -6.552  10.680  66.636  1.00  0.00    -0.128 I  
HETATM    7  C   UNL     1      -7.768   8.880  66.531  1.00  0.00    -0.099 A  
HETATM    8  C   UNL     1      -9.365   7.378  67.592  1.00  0.00    -0.133 A  
HETATM    9  I   UNL     1     -10.993   6.991  68.968  1.00  0.00    -0.023 I  
HETATM   10  C   UNL     1      -8.049   6.616  65.660  1.00  0.00    -0.125 A  
HETATM   11  C   UNL     1      -7.435   7.885  65.568  1.00  0.00    -0.079 A  
HETATM   12  C   UNL     1      -8.768   8.660  67.514  1.00  0.00    -0.135 A  
HETATM   13  I   UNL     1      -7.680   5.057  64.179  1.00  0.00    -0.100 I  
BRANCH  12  14
HETATM   14  C   UNL     1      -9.133   9.710  68.519  1.00  0.00    -0.131 C  
HETATM   15  N   UNL     1      -9.677  10.888  68.047  1.00  0.00    -0.161 N  
HETATM   16  O   UNL     1      -8.933   9.511  69.713  1.00  0.00    -0.167 OA 
HETATM   17  H   UNL     1      -9.813  11.005  67.043  1.00  0.00     0.000 HD 
BRANCH  15  18
HETATM   18  C   UNL     1     -10.063  11.971  68.949  1.00  0.00    -0.015 C  
BRANCH  18  19
HETATM   19  C   UNL     1     -11.462  12.521  68.631  1.00  0.00    -0.306 C  
HETATM   20  H   UNL     1     -12.660  12.553  67.072  1.00  0.00     0.000 HD 
HETATM   21  O   UNL     1     -11.795  12.212  67.269  1.00  0.00    -0.530 OA 
BRANCH  19  22
HETATM   22  C   UNL     1     -12.525  11.954  69.588  1.00  0.00     0.086 C  
HETATM   23  O   UNL     1     -12.088  10.745  70.206  1.00  0.00    -0.291 OA 
HETATM   24  H   UNL     1     -12.744  10.395  70.796  1.00  0.00     0.000 HD 
ENDBRANCH  19  22
ENDBRANCH  18  19
ENDBRANCH  15  18
ENDBRANCH  12  14
BRANCH  11  25
HETATM   25  C   UNL     1      -6.528   8.219  64.437  1.00  0.00    -0.066 C  
HETATM   26  O   UNL     1      -5.408   7.720  64.392  1.00  0.00    -0.029 OA 
HETATM   27  H   UNL     1      -7.947   9.458  63.552  1.00  0.00     0.000 HD 
HETATM   28  N   UNL     1      -6.993   9.105  63.480  1.00  0.00    -0.089 N  
BRANCH  28  29
HETATM   29  C   UNL     1      -6.159   9.545  62.377  1.00  0.00    -0.096 C  
BRANCH  29  30
HETATM   30  C   UNL     1      -5.859  11.033  62.497  1.00  0.00    -0.031 C  
HETATM   31  O   UNL     1      -7.082  11.771  62.428  1.00  0.00    -0.105 OA 
HETATM   32  H   UNL     1      -6.894  12.699  62.503  1.00  0.00     0.000 HD 
ENDBRANCH  29  30
ENDBRANCH  28  29
ENDBRANCH  11  25
ENDBRANCH   3   5
BRANCH   3  33
HETATM   33  C   UNL     1     -10.500   4.577  65.784  1.00  0.00    -0.233 C  
BRANCH  33  34
HETATM   34  C   UNL     1     -10.014   3.542  64.732  1.00  0.00    -0.126 C  
HETATM   35  O   UNL     1      -9.845   2.231  65.292  1.00  0.00    -0.344 OA 
HETATM   36  H   UNL     1      -9.549   1.598  64.649  1.00  0.00     0.000 HD 
BRANCH  34  37
HETATM   37  C   UNL     1     -10.979   3.419  63.539  1.00  0.00    -0.104 C  
HETATM   38  H   UNL     1     -11.372   2.117  62.099  1.00  0.00     0.000 HD 
HETATM   39  O   UNL     1     -10.777   2.192  62.836  1.00  0.00    -0.142 OA 
ENDBRANCH  34  37
ENDBRANCH  33  34
ENDBRANCH   3  33
TORSDOF 11
ENDMDL
MODEL      162
REMARK 921   NORMALIZED FREE ENERGY PREDICTED BY IDOCK:   -0.84 KCAL/MOL
REMARK 922        TOTAL FREE ENERGY PREDICTED BY IDOCK:   -1.98 KCAL/MOL
REMARK 923 INTER-LIGAND FREE ENERGY PREDICTED BY IDOCK:   -2.08 KCAL/MOL
REMARK 924 INTRA-LIGAND FREE ENERGY PREDICTED BY IDOCK:    0.10 KCAL/MOL
REMARK 927      BINDING AFFINITY PREDICTED BY RF-SCORE:    0.00 PKD
ROOT
HETATM    1  C   UNL     1     -10.804   8.930  66.583  1.00  0.00     0.188 C  
HETATM    2  C   UNL     1     -10.302   8.922  68.000  1.00  0.00    -0.219 C  
HETATM    3  N   UNL     1      -9.279   8.027  68.324  1.00  0.00    -0.135 N  
HETATM    4  O   UNL     1     -10.774   9.718  68.816  1.00  0.00    -0.216 OA 
ENDROOT
BRANCH   3   5
HETATM    5  C   UNL     1      -8.860   8.044  69.694  1.00  0.00    -0.141 A  
HETATM    6  I   UNL     1      -6.967   7.689  74.273  1.00  0.00    -0.162 I  
HETATM    7  C   UNL     1      -7.921   8.025  72.348  1.00  0.00    -0.128 A  
HETATM    8  C   UNL     1      -9.591   7.360  70.704  1.00  0.00    -0.171 A  
HETATM    9  I   UNL     1     -11.488   6.461  70.172  1.00  0.00    -0.102 I  
HETATM   10  C   UNL     1      -7.724   8.819  70.046  1.00  0.00    -0.082 A  
HETATM   11  C   UNL     1      -7.238   8.808  71.373  1.00  0.00    -0.104 A  
HETATM   12  C   UNL     1      -9.126   7.341  72.042  1.00  0.00    -0.144 A  
HETATM   13  I   UNL     1      -6.806  10.059  68.504  1.00  0.00    -0.055 I  
BRANCH  12  14
HETATM   14  C   UNL     1      -9.857   6.530  73.069  1.00  0.00    -0.166 C  
HETATM   15  N   UNL     1      -9.639   5.166  73.082  1.00  0.00    -0.141 N  
HETATM   16  O   UNL     1     -10.627   7.079  73.850  1.00  0.00    -0.371 OA 
HETATM   17  H   UNL     1      -8.995   4.759  72.403  1.00  0.00     0.000 HD 
BRANCH  15  18
HETATM   18  C   UNL     1     -10.307   4.292  74.044  1.00  0.00    -0.215 C  
BRANCH  18  19
HETATM   19  C   UNL     1     -10.157   2.806  73.681  1.00  0.00    -0.110 C  
HETATM   20  H   UNL     1     -10.391   1.703  72.070  1.00  0.00     0.000 HD 
HETATM   21  O   UNL     1     -10.483   2.622  72.294  1.00  0.00    -0.116 OA 
BRANCH  19  22
HETATM   22  C   UNL     1      -8.737   2.292  73.974  1.00  0.00    -0.066 C  
HETATM   23  O   UNL     1      -7.786   2.810  73.045  1.00  0.00    -0.049 OA 
HETATM   24  H   UNL     1      -6.909   2.493  73.226  1.00  0.00     0.000 HD 
ENDBRANCH  19  22
ENDBRANCH  18  19
ENDBRANCH  15  18
ENDBRANCH  12  14
BRANCH  11  25
HETATM   25  C   UNL     1      -6.092   9.665  71.778  1.00  0.00     0.147 C  
HETATM   26  O   UNL     1      -5.129   9.160  72.348  1.00  0.00    -0.054 OA 
HETATM   27  H   UNL     1      -6.983  11.375  70.996  1.00  0.00     0.000 HD 
HETATM   28  N   UNL     1      -6.173  11.020  71.504  1.00  0.00     0.901 N  
BRANCH  28  29
HETATM   29  C   UNL     1      -5.139  11.948  71.920  1.00  0.00     0.101 C  
BRANCH  29  30
HETATM   30  C   UNL     1      -5.718  13.344  72.103  1.00  0.00     0.337 C  
HETATM   31  O   UNL     1      -5.484  13.784  73.443  1.00  0.00    -0.424 OA 
HETATM   32  H   UNL     1      -5.845  14.655  73.557  1.00  0.00     0.000 HD 
ENDBRANCH  29  30
ENDBRANCH  28  29
ENDBRANCH  11  25
ENDBRANCH   3   5
BRANCH   3  33
HETATM   33  C   UNL     1      -8.751   6.955  67.431  1.00  0.00    -0.119 C  
BRANCH  33  34
HETATM   34  C   UNL     1      -7.688   5.995  68.032  1.00  0.00    -0.101 C  
HETATM   35  O   UNL     1      -8.273   4.807  68.583  1.00  0.00    -0.083 OA 
HETATM   36  H   UNL     1      -7.623   4.219  68.949  1.00  0.00     0.000 HD 
BRANCH  34  37
HETATM   37  C   UNL     1      -6.636   5.561  66.995  1.00  0.00    -0.056 C  
HETATM   38  H   UNL     1      -5.281   6.422  65.833  1.00  0.00     0.000 HD 
HETATM   39  O   UNL     1      -5.930   6.690  66.473  1.00  0.00    -0.026 OA 
ENDBRANCH  34  37
ENDBRANCH  33  34
ENDBRANCH   3  33
TORSDOF 11
ENDMDL
MODEL      163
REMARK 921   NORMALIZED FREE ENERGY PREDICTED BY IDOCK:   -0.72 KCAL/MOL
REMARK 922        TOTAL FREE ENERGY PREDICTED BY IDOCK:   -1.80 KCAL/MOL
REMARK 923 INTER-LIGAND FREE ENERGY PREDICTED BY IDOCK:   -2.54 KCAL/MOL
REMARK 924 INTRA-LIGAND FREE ENERGY PREDICTED BY IDOCK:    0.74 KCAL/MOL
REMARK 927      BINDING AFFINITY PREDICTED BY RF-SCORE:    0.00 PKD
ROOT
HETATM    1  C   UNL     1     -12.130  15.446  66.957  1.00  0.00     0.536 C  
HETATM    2  C   UNL     1     -11.463  14.100  67.000  1.00  0.00    -0.352 C  
HETATM    3  N   UNL     1     -10.560  13.854  68.038  1.00  0.00    -0.243 N  
HETATM    4  O   UNL     1     -11.753  13.250  66.154  1.00  0.00    -0.340 OA 
ENDROOT
BRANCH   3   5
HETATM    5  C   UNL     1      -9.933  12.565  68.013  1.00  0.00    -0.219 A  
HETATM    6  I   UNL     1      -7.935   8.070  67.324  1.00  0.00    -0.124 I  
HETATM    7  C   UNL     1      -8.701  10.040  67.833  1.00  0.00    -0.125 A  
HETATM    8  C   UNL     1     -10.556  11.425  68.590  1.00  0.00    -0.199 A  
HETATM    9  I   UNL     1     -12.389  11.707  69.709  1.00  0.00     0.062 I  
HETATM   10  C   UNL     1      -8.633  12.452  67.454  1.00  0.00    -0.181 A  
HETATM   11  C   UNL     1      -8.010  11.188  67.349  1.00  0.00    -0.125 A  
HETATM   12  C   UNL     1      -9.948  10.148  68.503  1.00  0.00    -0.177 A  
HETATM   13  I   UNL     1      -7.620  14.281  66.831  1.00  0.00     1.294 I  
BRANCH  12  14
HETATM   14  C   UNL     1     -10.670   8.945  69.028  1.00  0.00    -0.126 C  
HETATM   15  N   UNL     1     -10.827   8.838  70.396  1.00  0.00    -0.224 N  
HETATM   16  O   UNL     1     -11.086   8.092  68.250  1.00  0.00     0.141 OA 
HETATM   17  H   UNL     1     -10.453   9.572  70.998  1.00  0.00     0.000 HD 
BRANCH  15  18
HETATM   18  C   UNL     1     -11.516   7.701  71.002  1.00  0.00    -0.276 C  
BRANCH  18  19
HETATM   19  C   UNL     1     -10.619   6.935  71.986  1.00  0.00    -0.212 C  
HETATM   20  H   UNL     1      -8.687   6.726  72.285  1.00  0.00     0.000 HD 
HETATM   21  O   UNL     1      -9.241   7.199  71.677  1.00  0.00    -0.145 OA 
BRANCH  19  22
HETATM   22  C   UNL     1     -10.926   7.314  73.445  1.00  0.00    -0.244 C  
HETATM   23  O   UNL     1      -9.736   7.432  74.222  1.00  0.00    -0.416 OA 
HETATM   24  H   UNL     1      -9.925   7.666  75.123  1.00  0.00     0.000 HD 
ENDBRANCH  19  22
ENDBRANCH  18  19
ENDBRANCH  15  18
ENDBRANCH  12  14
BRANCH  11  25
HETATM   25  C   UNL     1      -6.622  11.057  66.831  1.00  0.00    -0.112 C  
HETATM   26  O   UNL     1      -5.693  11.565  67.452  1.00  0.00    -0.057 OA 
HETATM   27  H   UNL     1      -7.248   9.940  65.190  1.00  0.00     0.000 HD 
HETATM   28  N   UNL     1      -6.441  10.371  65.642  1.00  0.00    -0.118 N  
BRANCH  28  29
HETATM   29  C   UNL     1      -5.136  10.248  65.021  1.00  0.00    -0.086 C  
BRANCH  29  30
HETATM   30  C   UNL     1      -5.144   9.139  63.978  1.00  0.00    -0.058 C  
HETATM   31  O   UNL     1      -5.326   9.710  62.680  1.00  0.00    -0.082 OA 
HETATM   32  H   UNL     1      -5.332   9.018  62.029  1.00  0.00     0.000 HD 
ENDBRANCH  29  30
ENDBRANCH  28  29
ENDBRANCH  11  25
ENDBRANCH   3   5
BRANCH   3  33
HETATM   33  C   UNL     1     -10.066  14.866  69.015  1.00  0.00    -0.237 C  
BRANCH  33  34
HETATM   34  C   UNL     1     -10.702  14.850  70.432  1.00  0.00    -0.019 C  
HETATM   35  O   UNL     1      -9.806  15.342  71.439  1.00  0.00     0.647 OA 
HETATM   36  H   UNL     1     -10.195  15.333  72.306  1.00  0.00     0.000 HD 
BRANCH  34  37
HETATM   37  C   UNL     1     -11.993  15.685  70.506  1.00  0.00    -0.385 C  
HETATM   38  H   UNL     1     -13.618  15.774  71.636  1.00  0.00     0.000 HD 
HETATM   39  O   UNL     1     -12.821  15.259  71.590  1.00  0.00    -0.336 OA 
ENDBRANCH  34  37
ENDBRANCH  33  34
ENDBRANCH   3  33
TORSDOF 11
ENDMDL
MODEL      164
REMARK 921   NORMALIZED FREE ENERGY PREDICTED BY IDOCK:   -0.66 KCAL/MOL
REMARK 922        TOTAL FREE ENERGY PREDICTED BY IDOCK:   -1.70 KCAL/MOL
REMARK 923 INTER-LIGAND FREE ENERGY PREDICTED BY IDOCK:   -3.48 KCAL/MOL
REMARK 924 INTRA-LIGAND FREE ENERGY PREDICTED BY IDOCK:    1.78 KCAL/MOL
REMARK 927      BINDING AFFINITY PREDICTED BY RF-SCORE:    0.00 PKD
ROOT
HETATM    1  C   UNL     1      -9.308  10.971  64.127  1.00  0.00    -0.235 C  
HETATM    2  C   UNL     1      -8.829  10.424  65.442  1.00  0.00    -0.179 C  
HETATM    3  N   UNL     1      -9.181  11.119  66.603  1.00  0.00    -0.171 N  
HETATM    4  O   UNL     1      -8.180   9.375  65.465  1.00  0.00    -0.119 OA 
ENDROOT
BRANCH   3   5
HETATM    5  C   UNL     1      -8.673  10.568  67.825  1.00  0.00    -0.122 A  
HETATM    6  I   UNL     1      -6.433   8.446  71.718  1.00  0.00    -0.077 I  
HETATM    7  C   UNL     1      -7.558   9.476  70.168  1.00  0.00    -0.142 A  
HETATM    8  C   UNL     1      -9.225   9.388  68.395  1.00  0.00    -0.127 A  
HETATM    9  I   UNL     1     -11.006   8.545  67.495  1.00  0.00     0.908 I  
HETATM   10  C   UNL     1      -7.638  11.262  68.505  1.00  0.00    -0.123 A  
HETATM   11  C   UNL     1      -7.064  10.718  69.675  1.00  0.00    -0.136 A  
HETATM   12  C   UNL     1      -8.671   8.827  69.572  1.00  0.00    -0.138 A  
HETATM   13  I   UNL     1      -7.019  13.204  67.725  1.00  0.00    -0.148 I  
BRANCH  12  14
HETATM   14  C   UNL     1      -9.204   7.529  70.097  1.00  0.00    -0.154 C  
HETATM   15  N   UNL     1      -8.776   6.366  69.485  1.00  0.00    -0.133 N  
HETATM   16  O   UNL     1     -10.000   7.525  71.029  1.00  0.00    -0.186 OA 
HETATM   17  H   UNL     1      -8.119   6.427  68.706  1.00  0.00     0.000 HD 
BRANCH  15  18
HETATM   18  C   UNL     1      -9.241   5.053  69.924  1.00  0.00    -0.124 C  
BRANCH  18  19
HETATM   19  C   UNL     1      -8.445   3.909  69.278  1.00  0.00    -0.069 C  
HETATM   20  H   UNL     1      -7.093   3.737  67.861  1.00  0.00     0.000 HD 
HETATM   21  O   UNL     1      -7.585   4.445  68.261  1.00  0.00    -0.067 OA 
BRANCH  19  22
HETATM   22  C   UNL     1      -7.626   3.129  70.321  1.00  0.00    -0.044 C  
HETATM   23  O   UNL     1      -8.111   3.346  71.644  1.00  0.00    -0.060 OA 
HETATM   24  H   UNL     1      -7.605   2.865  72.288  1.00  0.00     0.000 HD 
ENDBRANCH  19  22
ENDBRANCH  18  19
ENDBRANCH  15  18
ENDBRANCH  12  14
BRANCH  11  25
HETATM   25  C   UNL     1      -6.028  11.462  70.440  1.00  0.00    -0.142 C  
HETATM   26  O   UNL     1      -5.158  10.841  71.044  1.00  0.00    -0.084 OA 
HETATM   27  H   UNL     1      -6.829  13.305  69.899  1.00  0.00     0.000 HD 
HETATM   28  N   UNL     1      -6.104  12.845  70.449  1.00  0.00    -0.096 N  
BRANCH  28  29
HETATM   29  C   UNL     1      -5.182  13.656  71.221  1.00  0.00    -0.171 C  
BRANCH  29  30
HETATM   30  C   UNL     1      -5.786  14.010  72.573  1.00  0.00     0.037 C  
HETATM   31  O   UNL     1      -5.697  12.879  73.443  1.00  0.00     0.157 OA 
HETATM   32  H   UNL     1      -6.074  13.100  74.286  1.00  0.00     0.000 HD 
ENDBRANCH  29  30
ENDBRANCH  28  29
ENDBRANCH  11  25
ENDBRANCH   3   5
BRANCH   3  33
HETATM   33  C   UNL     1      -9.849  12.451  66.647  1.00  0.00    -0.223 C  
BRANCH  33  34
HETATM   34  C   UNL     1     -11.180  12.549  67.443  1.00  0.00    -0.293 C  
HETATM   35  O   UNL     1     -10.967  12.586  68.861  1.00  0.00    -0.237 OA 
HETATM   36  H   UNL     1     -11.780  12.646  69.348  1.00  0.00     0.000 HD 
BRANCH  34  37
HETATM   37  C   UNL     1     -12.003  13.792  67.060  1.00  0.00    -0.413 C  
HETATM   38  H   UNL     1     -13.329  14.304  65.680  1.00  0.00     0.000 HD 
HETATM   39  O   UNL     1     -12.822  13.536  65.917  1.00  0.00    -0.375 OA 
ENDBRANCH  34  37
ENDBRANCH  33  34
ENDBRANCH   3  33
TORSDOF 11
ENDMDL
MODEL      165
REMARK 921   NORMALIZED FREE ENERGY PREDICTED BY IDOCK:   -0.45 KCAL/MOL
REMARK 922        TOTAL FREE ENERGY PREDICTED BY IDOCK:   -1.35 KCAL/MOL
REMARK 923 INTER-LIGAND FREE ENERGY PREDICTED BY IDOCK:   -2.83 KCAL/MOL
REMARK 924 INTRA-LIGAND FREE ENERGY PREDICTED BY IDOCK:    1.48 KCAL/MOL
REMARK 927      BINDING AFFINITY PREDICTED BY RF-SCORE:    0.00 PKD
ROOT
HETATM    1  C   UNL     1      -6.758   1.467  64.969  1.00  0.00    -0.027 C  
HETATM    2  C   UNL     1      -6.745   2.582  65.978  1.00  0.00    -0.039 C  
HETATM    3  N   UNL     1      -7.857   3.426  66.029  1.00  0.00    -0.081 N  
HETATM    4  O   UNL     1      -5.785   2.697  66.744  1.00  0.00    -0.020 OA 
ENDROOT
BRANCH   3   5
HETATM    5  C   UNL     1      -7.778   4.488  66.989  1.00  0.00    -0.090 A  
HETATM    6  I   UNL     1      -8.113   8.263  70.200  1.00  0.00    -0.124 I  
HETATM    7  C   UNL     1      -7.755   6.569  68.885  1.00  0.00    -0.109 A  
HETATM    8  C   UNL     1      -7.170   5.733  66.673  1.00  0.00    -0.074 A  
HETATM    9  I   UNL     1      -6.161   5.932  64.767  1.00  0.00    -0.027 I  
HETATM   10  C   UNL     1      -8.264   4.252  68.302  1.00  0.00    -0.088 A  
HETATM   11  C   UNL     1      -8.267   5.293  69.258  1.00  0.00    -0.092 A  
HETATM   12  C   UNL     1      -7.155   6.789  67.618  1.00  0.00    -0.085 A  
HETATM   13  I   UNL     1      -8.937   2.238  68.804  1.00  0.00    -0.224 I  
BRANCH  12  14
HETATM   14  C   UNL     1      -6.600   8.125  67.227  1.00  0.00    -0.058 C  
HETATM   15  N   UNL     1      -5.765   8.760  68.125  1.00  0.00    -0.038 N  
HETATM   16  O   UNL     1      -6.903   8.622  66.147  1.00  0.00    -0.071 OA 
HETATM   17  H   UNL     1      -5.554   8.305  69.014  1.00  0.00     0.000 HD 
BRANCH  15  18
HETATM   18  C   UNL     1      -5.176  10.065  67.835  1.00  0.00    -0.038 C  
BRANCH  18  19
HETATM   19  C   UNL     1      -6.236  11.173  67.741  1.00  0.00    -0.051 C  
HETATM   20  H   UNL     1      -6.553  12.917  68.593  1.00  0.00     0.000 HD 
HETATM   21  O   UNL     1      -5.898  12.231  68.651  1.00  0.00    -0.053 OA 
BRANCH  19  22
HETATM   22  C   UNL     1      -6.364  11.715  66.307  1.00  0.00     0.225 C  
HETATM   23  O   UNL     1      -7.685  11.550  65.796  1.00  0.00    -0.352 OA 
HETATM   24  H   UNL     1      -7.764  11.885  64.910  1.00  0.00     0.000 HD 
ENDBRANCH  19  22
ENDBRANCH  18  19
ENDBRANCH  15  18
ENDBRANCH  12  14
BRANCH  11  25
HETATM   25  C   UNL     1      -8.707   5.049  70.658  1.00  0.00    -0.122 C  
HETATM   26  O   UNL     1      -7.885   4.696  71.498  1.00  0.00    -0.093 OA 
HETATM   27  H   UNL     1     -10.679   5.548  70.216  1.00  0.00     0.000 HD 
HETATM   28  N   UNL     1     -10.051   5.218  70.949  1.00  0.00    -0.213 N  
BRANCH  28  29
HETATM   29  C   UNL     1     -10.588   4.939  72.267  1.00  0.00    -0.185 C  
BRANCH  29  30
HETATM   30  C   UNL     1     -11.043   6.226  72.940  1.00  0.00    -0.236 C  
HETATM   31  O   UNL     1     -10.621   6.222  74.306  1.00  0.00    -0.389 OA 
HETATM   32  H   UNL     1     -10.905   7.026  74.726  1.00  0.00     0.000 HD 
ENDBRANCH  29  30
ENDBRANCH  28  29
ENDBRANCH  11  25
ENDBRANCH   3   5
BRANCH   3  33
HETATM   33  C   UNL     1      -8.989   3.428  65.059  1.00  0.00    -0.135 C  
BRANCH  33  34
HETATM   34  C   UNL     1     -10.330   4.052  65.536  1.00  0.00    -0.041 C  
HETATM   35  O   UNL     1     -10.152   5.356  66.109  1.00  0.00    -0.259 OA 
HETATM   36  H   UNL     1     -10.972   5.737  66.400  1.00  0.00     0.000 HD 
BRANCH  34  37
HETATM   37  C   UNL     1     -11.359   4.176  64.398  1.00  0.00     0.551 C  
HETATM   38  H   UNL     1     -11.553   3.560  62.525  1.00  0.00     0.000 HD 
HETATM   39  O   UNL     1     -10.918   3.483  63.228  1.00  0.00    -0.194 OA 
ENDBRANCH  34  37
ENDBRANCH  33  34
ENDBRANCH   3  33
TORSDOF 11
ENDMDL
MODEL      166
REMARK 921   NORMALIZED FREE ENERGY PREDICTED BY IDOCK:   -0.45 KCAL/MOL
REMARK 922        TOTAL FREE ENERGY PREDICTED BY IDOCK:   -1.35 KCAL/MOL
REMARK 923 INTER-LIGAND FREE ENERGY PREDICTED BY IDOCK:   -2.22 KCAL/MOL
REMARK 924 INTRA-LIGAND FREE ENERGY PREDICTED BY IDOCK:    0.87 KCAL/MOL
REMARK 927      BINDING AFFINITY PREDICTED BY RF-SCORE:    0.00 PKD
ROOT
HETATM    1  C   UNL     1      -8.072   9.649  65.073  1.00  0.00    -0.127 C  
HETATM    2  C   UNL     1      -8.036   8.814  66.323  1.00  0.00    -0.106 C  
HETATM    3  N   UNL     1      -8.815   9.230  67.406  1.00  0.00    -0.118 N  
HETATM    4  O   UNL     1      -7.360   7.783  66.346  1.00  0.00    -0.076 OA 
ENDROOT
BRANCH   3   5
HETATM    5  C   UNL     1      -8.720   8.412  68.579  1.00  0.00    -0.136 A  
HETATM    6  I   UNL     1      -7.809   5.442  72.455  1.00  0.00    -0.103 I  
HETATM    7  C   UNL     1      -8.403   6.807  70.871  1.00  0.00    -0.128 A  
HETATM    8  C   UNL     1      -9.352   7.141  68.653  1.00  0.00    -0.134 A  
HETATM    9  I   UNL     1     -10.656   6.543  67.029  1.00  0.00    -0.369 I  
HETATM   10  C   UNL     1      -8.030   8.924  69.710  1.00  0.00    -0.100 A  
HETATM   11  C   UNL     1      -7.856   8.123  70.860  1.00  0.00    -0.091 A  
HETATM   12  C   UNL     1      -9.197   6.323  69.799  1.00  0.00    -0.150 A  
HETATM   13  I   UNL     1      -7.315  10.983  69.632  1.00  0.00     0.386 I  
BRANCH  12  14
HETATM   14  C   UNL     1      -9.788   4.945  69.813  1.00  0.00    -0.221 C  
HETATM   15  N   UNL     1      -9.265   4.015  68.936  1.00  0.00    -0.135 N  
HETATM   16  O   UNL     1     -10.712   4.682  70.575  1.00  0.00     0.089 OA 
HETATM   17  H   UNL     1      -8.502   4.290  68.316  1.00  0.00     0.000 HD 
BRANCH  15  18
HETATM   18  C   UNL     1      -9.775   2.647  68.874  1.00  0.00     0.172 C  
BRANCH  18  19
HETATM   19  C   UNL     1      -8.647   1.610  68.762  1.00  0.00    -0.059 C  
HETATM   20  H   UNL     1      -7.357   1.052  67.388  1.00  0.00     0.000 HD 
HETATM   21  O   UNL     1      -8.054   1.694  67.457  1.00  0.00    -0.063 OA 
BRANCH  19  22
HETATM   22  C   UNL     1      -7.581   1.814  69.853  1.00  0.00    -0.042 C  
HETATM   23  O   UNL     1      -6.805   2.987  69.620  1.00  0.00    -0.033 OA 
HETATM   24  H   UNL     1      -6.147   3.113  70.293  1.00  0.00     0.000 HD 
ENDBRANCH  19  22
ENDBRANCH  18  19
ENDBRANCH  15  18
ENDBRANCH  12  14
BRANCH  11  25
HETATM   25  C   UNL     1      -7.197   8.663  72.080  1.00  0.00    -0.043 C  
HETATM   26  O   UNL     1      -7.831   8.737  73.128  1.00  0.00    -0.395 OA 
HETATM   27  H   UNL     1      -5.396   8.961  71.080  1.00  0.00     0.000 HD 
HETATM   28  N   UNL     1      -5.881   9.081  71.969  1.00  0.00    -0.075 N  
BRANCH  28  29
HETATM   29  C   UNL     1      -5.175   9.685  73.083  1.00  0.00    -0.020 C  
BRANCH  29  30
HETATM   30  C   UNL     1      -5.997  10.815  73.686  1.00  0.00     1.889 C  
HETATM   31  O   UNL     1      -5.144  11.665  74.456  1.00  0.00    -0.386 OA 
HETATM   32  H   UNL     1      -5.658  12.370  74.833  1.00  0.00     0.000 HD 
ENDBRANCH  29  30
ENDBRANCH  28  29
ENDBRANCH  11  25
ENDBRANCH   3   5
BRANCH   3  33
HETATM   33  C   UNL     1      -9.553  10.522  67.498  1.00  0.00    -0.160 C  
BRANCH  33  34
HETATM   34  C   UNL     1     -11.030  10.529  67.016  1.00  0.00    -0.180 C  
HETATM   35  O   UNL     1     -11.961  10.539  68.109  1.00  0.00    -0.788 OA 
HETATM   36  H   UNL     1     -12.864  10.543  67.815  1.00  0.00     0.000 HD 
BRANCH  34  37
HETATM   37  C   UNL     1     -11.350  11.738  66.118  1.00  0.00    -0.280 C  
HETATM   38  H   UNL     1     -10.405  13.330  65.412  1.00  0.00     0.000 HD 
HETATM   39  O   UNL     1     -10.207  12.583  65.966  1.00  0.00    -0.242 OA 
ENDBRANCH  34  37
ENDBRANCH  33  34
ENDBRANCH   3  33
TORSDOF 11
ENDMDL
MODEL      167
REMARK 921   NORMALIZED FREE ENERGY PREDICTED BY IDOCK:   -0.26 KCAL/MOL
REMARK 922        TOTAL FREE ENERGY PREDICTED BY IDOCK:   -1.04 KCAL/MOL
REMARK 923 INTER-LIGAND FREE ENERGY PREDICTED BY IDOCK:   -2.20 KCAL/MOL
REMARK 924 INTRA-LIGAND FREE ENERGY PREDICTED BY IDOCK:    1.17 KCAL/MOL
REMARK 927      BINDING AFFINITY PREDICTED BY RF-SCORE:    0.00 PKD
ROOT
HETATM    1  C   UNL     1     -12.637  11.521  64.584  1.00  0.00     0.838 C  
HETATM    2  C   UNL     1     -11.653  11.822  65.680  1.00  0.00    -0.122 C  
HETATM    3  N   UNL     1     -10.678  12.791  65.431  1.00  0.00    -0.278 N  
HETATM    4  O   UNL     1     -11.754  11.242  66.764  1.00  0.00    -0.418 OA 
ENDROOT
BRANCH   3   5
HETATM    5  C   UNL     1      -9.750  13.017  66.500  1.00  0.00    -0.266 A  
HETATM    6  I   UNL     1      -6.334  14.294  69.873  1.00  0.00    -0.067 I  
HETATM    7  C   UNL     1      -7.912  13.585  68.556  1.00  0.00    -0.119 A  
HETATM    8  C   UNL     1      -8.586  12.218  66.655  1.00  0.00    -0.099 A  
HETATM    9  I   UNL     1      -8.339  10.495  65.366  1.00  0.00    -0.068 I  
HETATM   10  C   UNL     1     -10.048  14.025  67.456  1.00  0.00    -0.237 A  
HETATM   11  C   UNL     1      -9.128  14.325  68.485  1.00  0.00    -0.191 A  
HETATM   12  C   UNL     1      -7.651  12.496  67.684  1.00  0.00    -0.145 A  
HETATM   13  I   UNL     1     -11.978  15.033  67.319  1.00  0.00     0.520 I  
BRANCH  12  14
HETATM   14  C   UNL     1      -6.381  11.705  67.765  1.00  0.00    -0.067 C  
HETATM   15  N   UNL     1      -6.373  10.587  68.577  1.00  0.00    -0.050 N  
HETATM   16  O   UNL     1      -5.393  12.065  67.135  1.00  0.00    -0.108 OA 
HETATM   17  H   UNL     1      -7.221  10.337  69.087  1.00  0.00     0.000 HD 
BRANCH  15  18
HETATM   18  C   UNL     1      -5.182   9.753  68.722  1.00  0.00    -0.036 C  
BRANCH  18  19
HETATM   19  C   UNL     1      -5.524   8.325  69.173  1.00  0.00    -0.031 C  
HETATM   20  H   UNL     1      -6.199   7.472  70.812  1.00  0.00     0.000 HD 
HETATM   21  O   UNL     1      -5.987   8.355  70.532  1.00  0.00    -0.031 OA 
BRANCH  19  22
HETATM   22  C   UNL     1      -6.579   7.679  68.258  1.00  0.00    -0.054 C  
HETATM   23  O   UNL     1      -5.996   7.156  67.066  1.00  0.00    -0.031 OA 
HETATM   24  H   UNL     1      -6.647   6.758  66.502  1.00  0.00     0.000 HD 
ENDBRANCH  19  22
ENDBRANCH  18  19
ENDBRANCH  15  18
ENDBRANCH  12  14
BRANCH  11  25
HETATM   25  C   UNL     1      -9.451  15.327  69.536  1.00  0.00    -0.201 C  
HETATM   26  O   UNL     1      -8.779  16.350  69.624  1.00  0.00     0.048 OA 
HETATM   27  H   UNL     1     -11.047  14.195  70.245  1.00  0.00     0.000 HD 
HETATM   28  N   UNL     1     -10.503  15.046  70.391  1.00  0.00    -0.065 N  
BRANCH  28  29
HETATM   29  C   UNL     1     -10.852  15.927  71.490  1.00  0.00     0.381 C  
BRANCH  29  30
HETATM   30  C   UNL     1     -12.331  16.283  71.438  1.00  0.00     0.041 C  
HETATM   31  O   UNL     1     -13.060  15.200  70.856  1.00  0.00    -0.409 OA 
HETATM   32  H   UNL     1     -13.983  15.422  70.824  1.00  0.00     0.000 HD 
ENDBRANCH  29  30
ENDBRANCH  28  29
ENDBRANCH  11  25
ENDBRANCH   3   5
BRANCH   3  33
HETATM   33  C   UNL     1     -10.417  13.439  64.114  1.00  0.00    -0.181 C  
BRANCH  33  34
HETATM   34  C   UNL     1     -11.098  14.811  63.852  1.00  0.00     0.861 C  
HETATM   35  O   UNL     1     -12.504  14.785  64.136  1.00  0.00    -0.784 OA 
HETATM   36  H   UNL     1     -12.921  15.624  63.976  1.00  0.00     0.000 HD 
BRANCH  34  37
HETATM   37  C   UNL     1     -10.473  15.946  64.683  1.00  0.00     0.264 C  
HETATM   38  H   UNL     1     -10.726  17.895  64.926  1.00  0.00     0.000 HD 
HETATM   39  O   UNL     1     -11.113  17.195  64.413  1.00  0.00    -1.100 OA 
ENDBRANCH  34  37
ENDBRANCH  33  34
ENDBRANCH   3  33
TORSDOF 11
ENDMDL
MODEL      168
REMARK 921   NORMALIZED FREE ENERGY PREDICTED BY IDOCK:    0.04 KCAL/MOL
REMARK 922        TOTAL FREE ENERGY PREDICTED BY IDOCK:   -0.54 KCAL/MOL
REMARK 923 INTER-LIGAND FREE ENERGY PREDICTED BY IDOCK:   -2.36 KCAL/MOL
REMARK 924 INTRA-LIGAND FREE ENERGY PREDICTED BY IDOCK:    1.81 KCAL/MOL
REMARK 927      BINDING AFFINITY PREDICTED BY RF-SCORE:    0.00 PKD
ROOT
HETATM    1  C   UNL     1     -11.169   4.703  65.396  1.00  0.00     0.290 C  
HETATM    2  C   UNL     1     -10.257   5.423  66.349  1.00  0.00    -0.226 C  
HETATM    3  N   UNL     1      -8.894   5.461  66.042  1.00  0.00    -0.139 N  
HETATM    4  O   UNL     1     -10.732   5.982  67.340  1.00  0.00    -0.250 OA 
ENDROOT
BRANCH   3   5
HETATM    5  C   UNL     1      -8.068   6.137  67.000  1.00  0.00    -0.106 A  
HETATM    6  I   UNL     1      -5.742   8.670  70.584  1.00  0.00    -0.032 I  
HETATM    7  C   UNL     1      -6.551   7.471  68.961  1.00  0.00    -0.044 A  
HETATM    8  C   UNL     1      -7.396   7.348  66.680  1.00  0.00    -0.084 A  
HETATM    9  I   UNL     1      -7.464   8.054  64.633  1.00  0.00    -0.117 I  
HETATM   10  C   UNL     1      -7.875   5.537  68.272  1.00  0.00    -0.089 A  
HETATM   11  C   UNL     1      -7.125   6.203  69.267  1.00  0.00    -0.066 A  
HETATM   12  C   UNL     1      -6.633   8.030  67.659  1.00  0.00    -0.057 A  
HETATM   13  I   UNL     1      -8.711   3.550  68.610  1.00  0.00    -0.192 I  
BRANCH  12  14
HETATM   14  C   UNL     1      -6.018   9.356  67.328  1.00  0.00    -0.049 C  
HETATM   15  N   UNL     1      -6.476  10.464  68.014  1.00  0.00    -0.060 N  
HETATM   16  O   UNL     1      -5.149   9.430  66.466  1.00  0.00    -0.041 OA 
HETATM   17  H   UNL     1      -7.208  10.347  68.715  1.00  0.00     0.000 HD 
BRANCH  15  18
HETATM   18  C   UNL     1      -5.939  11.799  67.760  1.00  0.00    -0.057 C  
BRANCH  18  19
HETATM   19  C   UNL     1      -6.742  12.894  68.478  1.00  0.00    -0.091 C  
HETATM   20  H   UNL     1      -8.642  13.337  68.726  1.00  0.00     0.000 HD 
HETATM   21  O   UNL     1      -8.145  12.660  68.282  1.00  0.00    -0.152 OA 
BRANCH  19  22
HETATM   22  C   UNL     1      -6.409  12.948  69.979  1.00  0.00     0.014 C  
HETATM   23  O   UNL     1      -6.107  14.275  70.406  1.00  0.00    -0.157 OA 
HETATM   24  H   UNL     1      -5.902  14.309  71.332  1.00  0.00     0.000 HD 
ENDBRANCH  19  22
ENDBRANCH  18  19
ENDBRANCH  15  18
ENDBRANCH  12  14
BRANCH  11  25
HETATM   25  C   UNL     1      -6.852   5.562  70.581  1.00  0.00    -0.052 C  
HETATM   26  O   UNL     1      -5.827   4.904  70.733  1.00  0.00    -0.015 OA 
HETATM   27  H   UNL     1      -8.607   6.313  71.410  1.00  0.00     0.000 HD 
HETATM   28  N   UNL     1      -7.792   5.726  71.585  1.00  0.00    -0.107 N  
BRANCH  28  29
HETATM   29  C   UNL     1      -7.650   5.084  72.878  1.00  0.00    -0.096 C  
BRANCH  29  30
HETATM   30  C   UNL     1      -7.284   3.616  72.707  1.00  0.00    -0.050 C  
HETATM   31  O   UNL     1      -5.875   3.454  72.882  1.00  0.00    -0.007 OA 
HETATM   32  H   UNL     1      -5.647   2.538  72.776  1.00  0.00     0.000 HD 
ENDBRANCH  29  30
ENDBRANCH  28  29
ENDBRANCH  11  25
ENDBRANCH   3   5
BRANCH   3  33
HETATM   33  C   UNL     1      -8.232   4.708  64.939  1.00  0.00    -0.113 C  
BRANCH  33  34
HETATM   34  C   UNL     1      -8.002   3.187  65.159  1.00  0.00    -0.082 C  
HETATM   35  O   UNL     1      -8.140   2.432  63.947  1.00  0.00    -0.079 OA 
HETATM   36  H   UNL     1      -7.999   1.502  64.082  1.00  0.00     0.000 HD 
BRANCH  34  37
HETATM   37  C   UNL     1      -6.611   2.883  65.745  1.00  0.00    -0.036 C  
HETATM   38  H   UNL     1      -5.150   1.579  65.447  1.00  0.00     0.000 HD 
HETATM   39  O   UNL     1      -6.008   1.767  65.086  1.00  0.00    -0.016 OA 
ENDBRANCH  34  37
ENDBRANCH  33  34
ENDBRANCH   3  33
TORSDOF 11
ENDMDL
MODEL      169
REMARK 921   NORMALIZED FREE ENERGY PREDICTED BY IDOCK:    0.14 KCAL/MOL
REMARK 922        TOTAL FREE ENERGY PREDICTED BY IDOCK:   -0.39 KCAL/MOL
REMARK 923 INTER-LIGAND FREE ENERGY PREDICTED BY IDOCK:   -2.82 KCAL/MOL
REMARK 924 INTRA-LIGAND FREE ENERGY PREDICTED BY IDOCK:    2.43 KCAL/MOL
REMARK 927      BINDING AFFINITY PREDICTED BY RF-SCORE:    0.00 PKD
ROOT
HETATM    1  C   UNL     1     -10.308   4.699  65.678  1.00  0.00    -0.266 C  
HETATM    2  C   UNL     1      -9.758   5.798  66.543  1.00  0.00    -0.159 C  
HETATM    3  N   UNL     1      -8.632   6.486  66.084  1.00  0.00    -0.140 N  
HETATM    4  O   UNL     1     -10.327   6.083  67.600  1.00  0.00    -0.160 OA 
ENDROOT
BRANCH   3   5
HETATM    5  C   UNL     1      -8.134   7.505  66.962  1.00  0.00    -0.117 A  
HETATM    6  I   UNL     1      -6.910  10.911  70.364  1.00  0.00     1.107 I  
HETATM    7  C   UNL     1      -7.234   9.455  68.782  1.00  0.00    -0.073 A  
HETATM    8  C   UNL     1      -8.274   8.885  66.654  1.00  0.00    -0.111 A  
HETATM    9  I   UNL     1      -9.067   9.433  64.714  1.00  0.00    -0.004 I  
HETATM   10  C   UNL     1      -7.431   7.109  68.130  1.00  0.00    -0.099 A  
HETATM   11  C   UNL     1      -6.985   8.080  69.055  1.00  0.00    -0.058 A  
HETATM   12  C   UNL     1      -7.829   9.876  67.563  1.00  0.00    -0.098 A  
HETATM   13  I   UNL     1      -7.013   4.987  68.410  1.00  0.00    -0.059 I  
BRANCH  12  14
HETATM   14  C   UNL     1      -8.079  11.323  67.264  1.00  0.00    -0.140 C  
HETATM   15  N   UNL     1      -9.159  11.927  67.877  1.00  0.00    -0.176 N  
HETATM   16  O   UNL     1      -7.344  11.924  66.488  1.00  0.00     0.004 OA 
HETATM   17  H   UNL     1      -9.744  11.378  68.507  1.00  0.00     0.000 HD 
BRANCH  15  18
HETATM   18  C   UNL     1      -9.484  13.333  67.647  1.00  0.00    -0.211 C  
BRANCH  18  19
HETATM   19  C   UNL     1     -10.516  13.515  66.524  1.00  0.00    -0.284 C  
HETATM   20  H   UNL     1     -10.525  13.373  64.562  1.00  0.00     0.000 HD 
HETATM   21  O   UNL     1      -9.887  13.261  65.257  1.00  0.00    -0.196 OA 
BRANCH  19  22
HETATM   22  C   UNL     1     -11.732  12.592  66.717  1.00  0.00    -0.392 C  
HETATM   23  O   UNL     1     -12.490  12.460  65.516  1.00  0.00    -0.643 OA 
HETATM   24  H   UNL     1     -13.240  11.890  65.635  1.00  0.00     0.000 HD 
ENDBRANCH  19  22
ENDBRANCH  18  19
ENDBRANCH  15  18
ENDBRANCH  12  14
BRANCH  11  25
HETATM   25  C   UNL     1      -6.187   7.692  70.249  1.00  0.00    -0.033 C  
HETATM   26  O   UNL     1      -5.158   7.038  70.103  1.00  0.00    -0.014 OA 
HETATM   27  H   UNL     1      -7.499   8.654  71.546  1.00  0.00     0.000 HD 
HETATM   28  N   UNL     1      -6.658   8.081  71.492  1.00  0.00    -0.043 N  
BRANCH  28  29
HETATM   29  C   UNL     1      -5.987   7.694  72.719  1.00  0.00    -0.044 C  
BRANCH  29  30
HETATM   30  C   UNL     1      -5.494   6.257  72.626  1.00  0.00    -0.036 C  
HETATM   31  O   UNL     1      -6.615   5.375  72.536  1.00  0.00    -0.060 OA 
HETATM   32  H   UNL     1      -6.307   4.478  72.478  1.00  0.00     0.000 HD 
ENDBRANCH  29  30
ENDBRANCH  28  29
ENDBRANCH  11  25
ENDBRANCH   3   5
BRANCH   3  33
HETATM   33  C   UNL     1      -7.820   6.119  64.888  1.00  0.00    -0.108 C  
BRANCH  33  34
HETATM   34  C   UNL     1      -7.735   4.611  64.526  1.00  0.00    -0.081 C  
HETATM   35  O   UNL     1      -8.085   4.357  63.158  1.00  0.00    -0.078 OA 
HETATM   36  H   UNL     1      -8.033   3.435  62.936  1.00  0.00     0.000 HD 
BRANCH  34  37
HETATM   37  C   UNL     1      -6.331   4.027  64.767  1.00  0.00    -0.030 C  
HETATM   38  H   UNL     1      -4.866   3.242  63.689  1.00  0.00     0.000 HD 
HETATM   39  O   UNL     1      -5.732   3.603  63.540  1.00  0.00    -0.013 OA 
ENDBRANCH  34  37
ENDBRANCH  33  34
ENDBRANCH   3  33
TORSDOF 11
ENDMDL
MODEL      170
REMARK 921   NORMALIZED FREE ENERGY PREDICTED BY IDOCK:    0.63 KCAL/MOL
REMARK 922        TOTAL FREE ENERGY PREDICTED BY IDOCK:    0.43 KCAL/MOL
REMARK 923 INTER-LIGAND FREE ENERGY PREDICTED BY IDOCK:   -3.78 KCAL/MOL
REMARK 924 INTRA-LIGAND FREE ENERGY PREDICTED BY IDOCK:    4.21 KCAL/MOL
REMARK 927      BINDING AFFINITY PREDICTED BY RF-SCORE:    0.00 PKD
ROOT
HETATM    1  C   UNL     1     -12.462  15.792  68.746  1.00  0.00     0.515 C  
HETATM    2  C   UNL     1     -11.592  14.648  68.305  1.00  0.00    -0.326 C  
HETATM    3  N   UNL     1     -10.385  14.955  67.671  1.00  0.00    -0.240 N  
HETATM    4  O   UNL     1     -11.944  13.490  68.543  1.00  0.00    -0.351 OA 
ENDROOT
BRANCH   3   5
HETATM    5  C   UNL     1      -9.610  13.825  67.248  1.00  0.00    -0.237 A  
HETATM    6  I   UNL     1      -6.535  10.329  65.518  1.00  0.00    -0.078 I  
HETATM    7  C   UNL     1      -7.986  11.689  66.397  1.00  0.00     0.005 A  
HETATM    8  C   UNL     1     -10.018  13.010  66.158  1.00  0.00    -0.278 A  
HETATM    9  I   UNL     1     -11.960  13.372  65.271  1.00  0.00    -0.529 I  
HETATM   10  C   UNL     1      -8.444  13.488  67.985  1.00  0.00    -0.176 A  
HETATM   11  C   UNL     1      -7.616  12.425  67.560  1.00  0.00    -0.155 A  
HETATM   12  C   UNL     1      -9.208  11.934  65.718  1.00  0.00    -0.110 A  
HETATM   13  I   UNL     1      -8.018  14.611  69.806  1.00  0.00     0.789 I  
BRANCH  12  14
HETATM   14  C   UNL     1      -9.608  11.152  64.504  1.00  0.00    -0.250 C  
HETATM   15  N   UNL     1      -8.847  10.048  64.174  1.00  0.00    -0.201 N  
HETATM   16  O   UNL     1     -10.573  11.509  63.836  1.00  0.00    -0.324 OA 
HETATM   17  H   UNL     1      -8.049   9.801  64.759  1.00  0.00     0.000 HD 
BRANCH  15  18
HETATM   18  C   UNL     1      -9.158   9.223  63.008  1.00  0.00     0.047 C  
BRANCH  18  19
HETATM   19  C   UNL     1      -7.979   8.328  62.598  1.00  0.00    -0.159 C  
HETATM   20  H   UNL     1      -6.044   8.555  62.330  1.00  0.00     0.000 HD 
HETATM   21  O   UNL     1      -6.773   9.109  62.583  1.00  0.00    -0.095 OA 
BRANCH  19  22
HETATM   22  C   UNL     1      -7.829   7.122  63.542  1.00  0.00    -0.103 C  
HETATM   23  O   UNL     1      -6.478   6.947  63.964  1.00  0.00    -0.038 OA 
HETATM   24  H   UNL     1      -6.385   6.203  64.547  1.00  0.00     0.000 HD 
ENDBRANCH  19  22
ENDBRANCH  18  19
ENDBRANCH  15  18
ENDBRANCH  12  14
BRANCH  11  25
HETATM   25  C   UNL     1      -6.430  12.011  68.356  1.00  0.00    -0.055 C  
HETATM   26  O   UNL     1      -5.337  12.520  68.124  1.00  0.00    -0.057 OA 
HETATM   27  H   UNL     1      -7.552  10.682  69.499  1.00  0.00     0.000 HD 
HETATM   28  N   UNL     1      -6.613  11.041  69.328  1.00  0.00    -0.080 N  
BRANCH  28  29
HETATM   29  C   UNL     1      -5.506  10.523  70.109  1.00  0.00    -0.054 C  
BRANCH  29  30
HETATM   30  C   UNL     1      -5.219   9.076  69.731  1.00  0.00    -0.030 C  
HETATM   31  O   UNL     1      -6.451   8.398  69.477  1.00  0.00    -0.039 OA 
HETATM   32  H   UNL     1      -6.272   7.495  69.241  1.00  0.00     0.000 HD 
ENDBRANCH  29  30
ENDBRANCH  28  29
ENDBRANCH  11  25
ENDBRANCH   3   5
BRANCH   3  33
HETATM   33  C   UNL     1      -9.955  16.315  67.238  1.00  0.00    -0.250 C  
BRANCH  33  34
HETATM   34  C   UNL     1     -10.054  16.640  65.722  1.00  0.00    -0.277 C  
HETATM   35  O   UNL     1     -11.092  15.893  65.070  1.00  0.00    -0.396 OA 
HETATM   36  H   UNL     1     -11.153  16.091  64.143  1.00  0.00     0.000 HD 
BRANCH  34  37
HETATM   37  C   UNL     1     -10.316  18.134  65.457  1.00  0.00     0.139 C  
HETATM   38  H   UNL     1     -10.850  19.734  66.494  1.00  0.00     0.000 HD 
HETATM   39  O   UNL     1     -10.688  18.813  66.658  1.00  0.00    -0.389 OA 
ENDBRANCH  34  37
ENDBRANCH  33  34
ENDBRANCH   3  33
TORSDOF 11
ENDMDL
MODEL      171
REMARK 921   NORMALIZED FREE ENERGY PREDICTED BY IDOCK:    0.71 KCAL/MOL
REMARK 922        TOTAL FREE ENERGY PREDICTED BY IDOCK:    0.57 KCAL/MOL
REMARK 923 INTER-LIGAND FREE ENERGY PREDICTED BY IDOCK:   -2.07 KCAL/MOL
REMARK 924 INTRA-LIGAND FREE ENERGY PREDICTED BY IDOCK:    2.64 KCAL/MOL
REMARK 927      BINDING AFFINITY PREDICTED BY RF-SCORE:    0.00 PKD
ROOT
HETATM    1  C   UNL     1      -7.833  10.085  64.048  1.00  0.00    -0.150 C  
HETATM    2  C   UNL     1      -7.649   9.298  65.315  1.00  0.00    -0.099 C  
HETATM    3  N   UNL     1      -8.473   9.609  66.400  1.00  0.00    -0.122 N  
HETATM    4  O   UNL     1      -6.815   8.389  65.351  1.00  0.00    -0.065 OA 
ENDROOT
BRANCH   3   5
HETATM    5  C   UNL     1      -8.235   8.846  67.590  1.00  0.00    -0.110 A  
HETATM    6  I   UNL     1      -6.809   6.181  71.532  1.00  0.00    -0.071 I  
HETATM    7  C   UNL     1      -7.639   7.375  69.915  1.00  0.00    -0.090 A  
HETATM    8  C   UNL     1      -8.605   7.477  67.682  1.00  0.00    -0.119 A  
HETATM    9  I   UNL     1      -9.743   6.606  66.057  1.00  0.00     0.586 I  
HETATM   10  C   UNL     1      -7.674   9.503  68.717  1.00  0.00    -0.080 A  
HETATM   11  C   UNL     1      -7.361   8.772  69.884  1.00  0.00    -0.052 A  
HETATM   12  C   UNL     1      -8.308   6.725  68.845  1.00  0.00    -0.121 A  
HETATM   13  I   UNL     1      -7.378  11.662  68.606  1.00  0.00    -0.076 I  
BRANCH  12  14
HETATM   14  C   UNL     1      -8.616   5.259  68.880  1.00  0.00    -0.091 C  
HETATM   15  N   UNL     1      -9.309   4.775  69.972  1.00  0.00    -0.132 N  
HETATM   16  O   UNL     1      -8.243   4.533  67.964  1.00  0.00    -0.094 OA 
HETATM   17  H   UNL     1      -9.587   5.422  70.710  1.00  0.00     0.000 HD 
BRANCH  15  18
HETATM   18  C   UNL     1      -9.654   3.361  70.096  1.00  0.00    -0.140 C  
BRANCH  18  19
HETATM   19  C   UNL     1      -9.850   2.936  71.560  1.00  0.00    -0.125 C  
HETATM   20  H   UNL     1      -8.691   2.394  73.052  1.00  0.00     0.000 HD 
HETATM   21  O   UNL     1      -8.570   2.656  72.147  1.00  0.00    -0.065 OA 
BRANCH  19  22
HETATM   22  C   UNL     1     -10.590   4.016  72.368  1.00  0.00    -0.023 C  
HETATM   23  O   UNL     1     -10.484   3.790  73.772  1.00  0.00    -0.154 OA 
HETATM   24  H   UNL     1     -10.940   4.456  74.271  1.00  0.00     0.000 HD 
ENDBRANCH  19  22
ENDBRANCH  18  19
ENDBRANCH  15  18
ENDBRANCH  12  14
BRANCH  11  25
HETATM   25  C   UNL     1      -6.839   9.453  71.100  1.00  0.00    -0.026 C  
HETATM   26  O   UNL     1      -7.426   9.318  72.169  1.00  0.00    -0.258 OA 
HETATM   27  H   UNL     1      -5.239  10.278  70.055  1.00  0.00     0.000 HD 
HETATM   28  N   UNL     1      -5.703  10.233  70.962  1.00  0.00    -0.086 N  
BRANCH  28  29
HETATM   29  C   UNL     1      -5.157  10.991  72.072  1.00  0.00     0.112 C  
BRANCH  29  30
HETATM   30  C   UNL     1      -5.280  10.201  73.367  1.00  0.00     0.175 C  
HETATM   31  O   UNL     1      -5.227  11.100  74.478  1.00  0.00    -0.369 OA 
HETATM   32  H   UNL     1      -5.304  10.607  75.286  1.00  0.00     0.000 HD 
ENDBRANCH  29  30
ENDBRANCH  28  29
ENDBRANCH  11  25
ENDBRANCH   3   5
BRANCH   3  33
HETATM   33  C   UNL     1      -9.409  10.768  66.474  1.00  0.00    -0.168 C  
BRANCH  33  34
HETATM   34  C   UNL     1     -10.736  10.657  65.675  1.00  0.00    -0.034 C  
HETATM   35  O   UNL     1     -11.867  10.415  66.524  1.00  0.00     0.741 OA 
HETATM   36  H   UNL     1     -12.679  10.347  66.036  1.00  0.00     0.000 HD 
BRANCH  34  37
HETATM   37  C   UNL     1     -11.033  11.922  64.850  1.00  0.00    -0.313 C  
HETATM   38  H   UNL     1     -12.418  13.337  64.784  1.00  0.00     0.000 HD 
HETATM   39  O   UNL     1     -12.235  12.557  65.293  1.00  0.00    -0.454 OA 
ENDBRANCH  34  37
ENDBRANCH  33  34
ENDBRANCH   3  33
TORSDOF 11
ENDMDL
MODEL      172
REMARK 921   NORMALIZED FREE ENERGY PREDICTED BY IDOCK:    0.73 KCAL/MOL
REMARK 922        TOTAL FREE ENERGY PREDICTED BY IDOCK:    0.60 KCAL/MOL
REMARK 923 INTER-LIGAND FREE ENERGY PREDICTED BY IDOCK:   -1.94 KCAL/MOL
REMARK 924 INTRA-LIGAND FREE ENERGY PREDICTED BY IDOCK:    2.54 KCAL/MOL
REMARK 927      BINDING AFFINITY PREDICTED BY RF-SCORE:    0.00 PKD
ROOT
HETATM    1  C   UNL     1     -13.631  10.167  70.011  1.00  0.00     1.021 C  
HETATM    2  C   UNL     1     -12.302  10.576  69.441  1.00  0.00     0.083 C  
HETATM    3  N   UNL     1     -11.861  11.879  69.689  1.00  0.00    -0.328 N  
HETATM    4  O   UNL     1     -11.632   9.755  68.811  1.00  0.00     0.077 OA 
ENDROOT
BRANCH   3   5
HETATM    5  C   UNL     1     -10.601  12.223  69.099  1.00  0.00     0.018 A  
HETATM    6  I   UNL     1      -6.087  13.665  67.608  1.00  0.00     0.249 I  
HETATM    7  C   UNL     1      -8.077  12.913  68.060  1.00  0.00    -0.159 A  
HETATM    8  C   UNL     1     -10.476  13.313  68.196  1.00  0.00    -0.245 A  
HETATM    9  I   UNL     1     -12.277  14.327  67.549  1.00  0.00     0.374 I  
HETATM   10  C   UNL     1      -9.474  11.407  69.381  1.00  0.00     0.464 A  
HETATM   11  C   UNL     1      -8.201  11.751  68.874  1.00  0.00     0.054 A  
HETATM   12  C   UNL     1      -9.210  13.673  67.669  1.00  0.00    -0.213 A  
HETATM   13  I   UNL     1      -9.784   9.594  70.555  1.00  0.00     0.059 I  
BRANCH  12  14
HETATM   14  C   UNL     1      -9.087  14.888  66.800  1.00  0.00    -0.270 C  
HETATM   15  N   UNL     1      -8.825  16.094  67.419  1.00  0.00    -0.184 N  
HETATM   16  O   UNL     1      -9.231  14.790  65.586  1.00  0.00    -0.103 OA 
HETATM   17  H   UNL     1      -8.724  16.120  68.434  1.00  0.00     0.000 HD 
BRANCH  15  18
HETATM   18  C   UNL     1      -8.688  17.333  66.657  1.00  0.00    -0.257 C  
BRANCH  18  19
HETATM   19  C   UNL     1      -7.787  18.356  67.367  1.00  0.00    -0.234 C  
HETATM   20  H   UNL     1      -6.612  19.836  66.825  1.00  0.00     0.000 HD 
HETATM   21  O   UNL     1      -7.170  19.204  66.386  1.00  0.00    -0.222 OA 
BRANCH  19  22
HETATM   22  C   UNL     1      -8.577  19.196  68.386  1.00  0.00    -0.352 C  
HETATM   23  O   UNL     1      -9.985  19.073  68.194  1.00  0.00    -0.341 OA 
HETATM   24  H   UNL     1     -10.472  19.591  68.823  1.00  0.00     0.000 HD 
ENDBRANCH  19  22
ENDBRANCH  18  19
ENDBRANCH  15  18
ENDBRANCH  12  14
BRANCH  11  25
HETATM   25  C   UNL     1      -7.021  10.873  69.100  1.00  0.00    -0.096 C  
HETATM   26  O   UNL     1      -6.331  11.032  70.102  1.00  0.00    -0.136 OA 
HETATM   27  H   UNL     1      -7.374   9.803  67.350  1.00  0.00     0.000 HD 
HETATM   28  N   UNL     1      -6.742   9.910  68.144  1.00  0.00    -0.060 N  
BRANCH  28  29
HETATM   29  C   UNL     1      -5.577   9.052  68.239  1.00  0.00    -0.038 C  
BRANCH  29  30
HETATM   30  C   UNL     1      -5.685   7.895  67.257  1.00  0.00    -0.037 C  
HETATM   31  O   UNL     1      -6.771   8.135  66.359  1.00  0.00    -0.060 OA 
HETATM   32  H   UNL     1      -6.839   7.412  65.745  1.00  0.00     0.000 HD 
ENDBRANCH  29  30
ENDBRANCH  28  29
ENDBRANCH  11  25
ENDBRANCH   3   5
BRANCH   3  33
HETATM   33  C   UNL     1     -12.665  12.959  70.329  1.00  0.00     0.121 C  
BRANCH  33  34
HETATM   34  C   UNL     1     -12.133  13.539  71.669  1.00  0.00     0.383 C  
HETATM   35  O   UNL     1     -11.121  14.536  71.469  1.00  0.00    -0.330 OA 
HETATM   36  H   UNL     1     -10.796  14.891  72.288  1.00  0.00     0.000 HD 
BRANCH  34  37
HETATM   37  C   UNL     1     -13.250  14.168  72.521  1.00  0.00    -0.502 C  
HETATM   38  H   UNL     1     -15.024  13.645  73.230  1.00  0.00     0.000 HD 
HETATM   39  O   UNL     1     -14.335  13.256  72.704  1.00  0.00    -0.679 OA 
ENDBRANCH  34  37
ENDBRANCH  33  34
ENDBRANCH   3  33
TORSDOF 11
ENDMDL
MODEL      173
REMARK 921   NORMALIZED FREE ENERGY PREDICTED BY IDOCK:    0.74 KCAL/MOL
REMARK 922        TOTAL FREE ENERGY PREDICTED BY IDOCK:    0.61 KCAL/MOL
REMARK 923 INTER-LIGAND FREE ENERGY PREDICTED BY IDOCK:   -3.73 KCAL/MOL
REMARK 924 INTRA-LIGAND FREE ENERGY PREDICTED BY IDOCK:    4.34 KCAL/MOL
REMARK 927      BINDING AFFINITY PREDICTED BY RF-SCORE:    0.00 PKD
ROOT
HETATM    1  C   UNL     1     -11.005  10.858  64.808  1.00  0.00    -0.036 C  
HETATM    2  C   UNL     1      -9.854  11.398  65.610  1.00  0.00    -0.235 C  
HETATM    3  N   UNL     1     -10.147  12.267  66.666  1.00  0.00    -0.212 N  
HETATM    4  O   UNL     1      -8.705  11.038  65.343  1.00  0.00    -0.184 OA 
ENDROOT
BRANCH   3   5
HETATM    5  C   UNL     1      -9.010  12.772  67.377  1.00  0.00    -0.195 A  
HETATM    6  I   UNL     1      -5.463  14.616  70.325  1.00  0.00    -0.142 I  
HETATM    7  C   UNL     1      -6.844  13.747  68.888  1.00  0.00    -0.110 A  
HETATM    8  C   UNL     1      -8.484  14.067  67.116  1.00  0.00    -0.190 A  
HETATM    9  I   UNL     1      -9.301  15.195  65.458  1.00  0.00     0.950 I  
HETATM   10  C   UNL     1      -8.365  11.924  68.316  1.00  0.00    -0.159 A  
HETATM   11  C   UNL     1      -7.284  12.407  69.087  1.00  0.00     0.060 A  
HETATM   12  C   UNL     1      -7.397  14.570  67.872  1.00  0.00    -0.166 A  
HETATM   13  I   UNL     1      -9.051   9.859  68.477  1.00  0.00    -0.140 I  
BRANCH  12  14
HETATM   14  C   UNL     1      -6.926  15.975  67.649  1.00  0.00    -0.155 C  
HETATM   15  N   UNL     1      -7.708  16.999  68.144  1.00  0.00    -0.190 N  
HETATM   16  O   UNL     1      -5.885  16.181  67.034  1.00  0.00    -0.332 OA 
HETATM   17  H   UNL     1      -8.570  16.771  68.641  1.00  0.00     0.000 HD 
BRANCH  15  18
HETATM   18  C   UNL     1      -7.333  18.401  67.975  1.00  0.00    -0.247 C  
BRANCH  18  19
HETATM   19  C   UNL     1      -6.624  18.967  69.215  1.00  0.00    -0.283 C  
HETATM   20  H   UNL     1      -4.925  18.650  70.153  1.00  0.00     0.000 HD 
HETATM   21  O   UNL     1      -5.363  18.300  69.386  1.00  0.00    -0.190 OA 
BRANCH  19  22
HETATM   22  C   UNL     1      -6.420  20.488  69.106  1.00  0.00    -0.154 C  
HETATM   23  O   UNL     1      -6.910  20.999  67.869  1.00  0.00    -0.301 OA 
HETATM   24  H   UNL     1      -6.784  21.938  67.802  1.00  0.00     0.000 HD 
ENDBRANCH  19  22
ENDBRANCH  18  19
ENDBRANCH  15  18
ENDBRANCH  12  14
BRANCH  11  25
HETATM   25  C   UNL     1      -6.551  11.515  70.025  1.00  0.00     0.004 C  
HETATM   26  O   UNL     1      -5.939  12.003  70.970  1.00  0.00    -0.342 OA 
HETATM   27  H   UNL     1      -7.137   9.805  68.993  1.00  0.00     0.000 HD 
HETATM   28  N   UNL     1      -6.581  10.153  69.774  1.00  0.00    -0.066 N  
BRANCH  28  29
HETATM   29  C   UNL     1      -5.842   9.209  70.590  1.00  0.00    -0.041 C  
BRANCH  29  30
HETATM   30  C   UNL     1      -5.151   8.174  69.714  1.00  0.00    -0.023 C  
HETATM   31  O   UNL     1      -5.966   7.003  69.630  1.00  0.00    -0.022 OA 
HETATM   32  H   UNL     1      -5.535   6.357  69.083  1.00  0.00     0.000 HD 
ENDBRANCH  29  30
ENDBRANCH  28  29
ENDBRANCH  11  25
ENDBRANCH   3   5
BRANCH   3  33
HETATM   33  C   UNL     1     -11.489  12.843  66.967  1.00  0.00    -0.339 C  
BRANCH  33  34
HETATM   34  C   UNL     1     -12.472  13.008  65.776  1.00  0.00    -0.329 C  
HETATM   35  O   UNL     1     -13.789  13.385  66.203  1.00  0.00     1.174 OA 
HETATM   36  H   UNL     1     -14.390  13.486  65.474  1.00  0.00     0.000 HD 
BRANCH  34  37
HETATM   37  C   UNL     1     -11.991  14.058  64.758  1.00  0.00    -0.417 C  
HETATM   38  H   UNL     1     -12.099  14.361  62.803  1.00  0.00     0.000 HD 
HETATM   39  O   UNL     1     -12.396  13.713  63.431  1.00  0.00    -0.719 OA 
ENDBRANCH  34  37
ENDBRANCH  33  34
ENDBRANCH   3  33
TORSDOF 11
ENDMDL
MODEL      174
REMARK 921   NORMALIZED FREE ENERGY PREDICTED BY IDOCK:    0.90 KCAL/MOL
REMARK 922        TOTAL FREE ENERGY PREDICTED BY IDOCK:    0.87 KCAL/MOL
REMARK 923 INTER-LIGAND FREE ENERGY PREDICTED BY IDOCK:   -2.96 KCAL/MOL
REMARK 924 INTRA-LIGAND FREE ENERGY PREDICTED BY IDOCK:    3.83 KCAL/MOL
REMARK 927      BINDING AFFINITY PREDICTED BY RF-SCORE:    0.00 PKD
ROOT
HETATM    1  C   UNL     1     -10.880   7.653  66.715  1.00  0.00     0.027 C  
HETATM    2  C   UNL     1     -10.130   7.992  67.973  1.00  0.00    -0.194 C  
HETATM    3  N   UNL     1      -8.836   7.484  68.115  1.00  0.00    -0.128 N  
HETATM    4  O   UNL     1     -10.654   8.726  68.814  1.00  0.00    -0.211 OA 
ENDROOT
BRANCH   3   5
HETATM    5  C   UNL     1      -8.179   7.816  69.346  1.00  0.00    -0.131 A  
HETATM    6  I   UNL     1      -5.369   8.799  73.322  1.00  0.00    -0.081 I  
HETATM    7  C   UNL     1      -6.774   8.474  71.695  1.00  0.00    -0.079 A  
HETATM    8  C   UNL     1      -8.236   6.955  70.475  1.00  0.00    -0.120 A  
HETATM    9  I   UNL     1      -9.525   5.217  70.381  1.00  0.00    -0.275 I  
HETATM   10  C   UNL     1      -7.513   9.067  69.444  1.00  0.00    -0.077 A  
HETATM   11  C   UNL     1      -6.796   9.402  70.614  1.00  0.00    -0.104 A  
HETATM   12  C   UNL     1      -7.531   7.274  71.662  1.00  0.00    -0.085 A  
HETATM   13  I   UNL     1      -7.688  10.458  67.773  1.00  0.00    -0.089 I  
BRANCH  12  14
HETATM   14  C   UNL     1      -7.524   6.302  72.803  1.00  0.00    -0.096 C  
HETATM   15  N   UNL     1      -7.022   5.037  72.565  1.00  0.00    -0.073 N  
HETATM   16  O   UNL     1      -7.965   6.639  73.897  1.00  0.00    -0.105 OA 
HETATM   17  H   UNL     1      -6.677   4.807  71.633  1.00  0.00     0.000 HD 
BRANCH  15  18
HETATM   18  C   UNL     1      -6.975   4.021  73.614  1.00  0.00    -0.059 C  
BRANCH  18  19
HETATM   19  C   UNL     1      -7.917   2.843  73.325  1.00  0.00    -0.060 C  
HETATM   20  H   UNL     1      -9.281   2.408  71.977  1.00  0.00     0.000 HD 
HETATM   21  O   UNL     1      -8.698   3.136  72.156  1.00  0.00    -0.079 OA 
BRANCH  19  22
HETATM   22  C   UNL     1      -7.140   1.528  73.139  1.00  0.00    -0.023 C  
HETATM   23  O   UNL     1      -5.808   1.628  73.637  1.00  0.00     0.000 OA 
HETATM   24  H   UNL     1      -5.328   0.816  73.523  1.00  0.00     0.000 HD 
ENDBRANCH  19  22
ENDBRANCH  18  19
ENDBRANCH  15  18
ENDBRANCH  12  14
BRANCH  11  25
HETATM   25  C   UNL     1      -6.151  10.734  70.764  1.00  0.00    -0.002 C  
HETATM   26  O   UNL     1      -5.752  11.092  71.868  1.00  0.00    -0.207 OA 
HETATM   27  H   UNL     1      -6.361  11.160  68.738  1.00  0.00     0.000 HD 
HETATM   28  N   UNL     1      -6.044  11.528  69.635  1.00  0.00    -0.099 N  
BRANCH  28  29
HETATM   29  C   UNL     1      -5.492  12.868  69.693  1.00  0.00    -0.088 C  
BRANCH  29  30
HETATM   30  C   UNL     1      -6.020  13.711  68.540  1.00  0.00    -0.092 C  
HETATM   31  O   UNL     1      -5.202  14.874  68.389  1.00  0.00    -0.097 OA 
HETATM   32  H   UNL     1      -5.531  15.400  67.669  1.00  0.00     0.000 HD 
ENDBRANCH  29  30
ENDBRANCH  28  29
ENDBRANCH  11  25
ENDBRANCH   3   5
BRANCH   3  33
HETATM   33  C   UNL     1      -8.188   6.495  67.208  1.00  0.00    -0.113 C  
BRANCH  33  34
HETATM   34  C   UNL     1      -7.359   7.059  66.021  1.00  0.00    -0.075 C  
HETATM   35  O   UNL     1      -6.260   7.871  66.460  1.00  0.00    -0.044 OA 
HETATM   36  H   UNL     1      -5.753   8.216  65.734  1.00  0.00     0.000 HD 
BRANCH  34  37
HETATM   37  C   UNL     1      -6.791   5.948  65.120  1.00  0.00    -0.051 C  
HETATM   38  H   UNL     1      -6.808   5.467  63.198  1.00  0.00     0.000 HD 
HETATM   39  O   UNL     1      -7.159   6.153  63.754  1.00  0.00    -0.047 OA 
ENDBRANCH  34  37
ENDBRANCH  33  34
ENDBRANCH   3  33
TORSDOF 11
ENDMDL
MODEL      175
REMARK 921   NORMALIZED FREE ENERGY PREDICTED BY IDOCK:    1.04 KCAL/MOL
REMARK 922        TOTAL FREE ENERGY PREDICTED BY IDOCK:    1.10 KCAL/MOL
REMARK 923 INTER-LIGAND FREE ENERGY PREDICTED BY IDOCK:   -0.91 KCAL/MOL
REMARK 924 INTRA-LIGAND FREE ENERGY PREDICTED BY IDOCK:    2.01 KCAL/MOL
REMARK 927      BINDING AFFINITY PREDICTED BY RF-SCORE:    0.00 PKD
ROOT
HETATM    1  C   UNL     1     -10.666  16.150  70.805  1.00  0.00     0.125 C  
HETATM    2  C   UNL     1     -10.275  15.000  69.920  1.00  0.00    -0.079 C  
HETATM    3  N   UNL     1      -9.125  15.141  69.138  1.00  0.00    -0.217 N  
HETATM    4  O   UNL     1     -10.947  13.966  69.934  1.00  0.00    -0.030 OA 
ENDROOT
BRANCH   3   5
HETATM    5  C   UNL     1      -8.816  14.025  68.293  1.00  0.00    -0.184 A  
HETATM    6  I   UNL     1      -7.281  10.511  65.136  1.00  0.00     0.234 I  
HETATM    7  C   UNL     1      -8.090  11.885  66.614  1.00  0.00    -0.063 A  
HETATM    8  C   UNL     1      -9.601  13.720  67.148  1.00  0.00    -0.244 A  
HETATM    9  I   UNL     1     -11.419  14.849  66.814  1.00  0.00    -0.113 I  
HETATM   10  C   UNL     1      -7.738  13.176  68.657  1.00  0.00    -0.073 A  
HETATM   11  C   UNL     1      -7.359  12.107  67.816  1.00  0.00    -0.114 A  
HETATM   12  C   UNL     1      -9.244  12.648  66.293  1.00  0.00    -0.114 A  
HETATM   13  I   UNL     1      -6.744  13.538  70.565  1.00  0.00     1.582 I  
BRANCH  12  14
HETATM   14  C   UNL     1     -10.026  12.409  65.037  1.00  0.00    -0.197 C  
HETATM   15  N   UNL     1     -10.790  11.260  64.967  1.00  0.00    -0.256 N  
HETATM   16  O   UNL     1      -9.963  13.213  64.114  1.00  0.00    -0.288 OA 
HETATM   17  H   UNL     1     -10.799  10.620  65.762  1.00  0.00     0.000 HD 
BRANCH  15  18
HETATM   18  C   UNL     1     -11.585  10.939  63.784  1.00  0.00     1.106 C  
BRANCH  18  19
HETATM   19  C   UNL     1     -12.888  11.751  63.723  1.00  0.00    -0.186 C  
HETATM   20  H   UNL     1     -13.909  12.902  64.948  1.00  0.00     0.000 HD 
HETATM   21  O   UNL     1     -13.103  12.400  64.986  1.00  0.00    -0.678 OA 
BRANCH  19  22
HETATM   22  C   UNL     1     -12.858  12.784  62.583  1.00  0.00     1.594 C  
HETATM   23  O   UNL     1     -12.570  14.095  63.067  1.00  0.00    -1.002 OA 
HETATM   24  H   UNL     1     -12.551  14.733  62.364  1.00  0.00     0.000 HD 
ENDBRANCH  19  22
ENDBRANCH  18  19
ENDBRANCH  15  18
ENDBRANCH  12  14
BRANCH  11  25
HETATM   25  C   UNL     1      -6.278  11.164  68.212  1.00  0.00    -0.049 C  
HETATM   26  O   UNL     1      -5.281  11.054  67.504  1.00  0.00    -0.036 OA 
HETATM   27  H   UNL     1      -7.291  10.593  69.938  1.00  0.00     0.000 HD 
HETATM   28  N   UNL     1      -6.457  10.431  69.373  1.00  0.00    -0.051 N  
BRANCH  28  29
HETATM   29  C   UNL     1      -5.493   9.437  69.807  1.00  0.00    -0.033 C  
BRANCH  29  30
HETATM   30  C   UNL     1      -6.204   8.201  70.338  1.00  0.00    -0.035 C  
HETATM   31  O   UNL     1      -6.534   7.337  69.248  1.00  0.00    -0.035 OA 
HETATM   32  H   UNL     1      -6.978   6.566  69.580  1.00  0.00     0.000 HD 
ENDBRANCH  29  30
ENDBRANCH  28  29
ENDBRANCH  11  25
ENDBRANCH   3   5
BRANCH   3  33
HETATM   33  C   UNL     1      -8.338  16.397  68.973  1.00  0.00    -0.225 C  
BRANCH  33  34
HETATM   34  C   UNL     1      -8.753  17.346  67.815  1.00  0.00    -0.232 C  
HETATM   35  O   UNL     1      -8.886  16.655  66.564  1.00  0.00    -0.233 OA 
HETATM   36  H   UNL     1      -9.140  17.234  65.855  1.00  0.00     0.000 HD 
BRANCH  34  37
HETATM   37  C   UNL     1     -10.084  18.067  68.094  1.00  0.00    -0.372 C  
HETATM   38  H   UNL     1     -10.709  19.644  69.118  1.00  0.00     0.000 HD 
HETATM   39  O   UNL     1      -9.888  19.199  68.945  1.00  0.00    -0.409 OA 
ENDBRANCH  34  37
ENDBRANCH  33  34
ENDBRANCH   3  33
TORSDOF 11
ENDMDL
MODEL      176
REMARK 921   NORMALIZED FREE ENERGY PREDICTED BY IDOCK:    1.26 KCAL/MOL
REMARK 922        TOTAL FREE ENERGY PREDICTED BY IDOCK:    1.47 KCAL/MOL
REMARK 923 INTER-LIGAND FREE ENERGY PREDICTED BY IDOCK:   -3.87 KCAL/MOL
REMARK 924 INTRA-LIGAND FREE ENERGY PREDICTED BY IDOCK:    5.34 KCAL/MOL
REMARK 927      BINDING AFFINITY PREDICTED BY RF-SCORE:    0.00 PKD
ROOT
HETATM    1  C   UNL     1     -10.643   8.798  66.274  1.00  0.00     0.383 C  
HETATM    2  C   UNL     1      -9.679   8.657  67.419  1.00  0.00    -0.175 C  
HETATM    3  N   UNL     1     -10.157   8.911  68.708  1.00  0.00    -0.195 N  
HETATM    4  O   UNL     1      -8.522   8.292  67.199  1.00  0.00    -0.121 OA 
ENDROOT
BRANCH   3   5
HETATM    5  C   UNL     1      -9.189   8.788  69.757  1.00  0.00    -0.155 A  
HETATM    6  I   UNL     1      -5.453   8.110  72.960  1.00  0.00    -0.062 I  
HETATM    7  C   UNL     1      -7.192   8.533  71.725  1.00  0.00    -0.095 A  
HETATM    8  C   UNL     1      -9.289   7.772  70.746  1.00  0.00    -0.161 A  
HETATM    9  I   UNL     1     -11.063   6.531  70.773  1.00  0.00    -0.416 I  
HETATM   10  C   UNL     1      -8.147   9.749  69.835  1.00  0.00    -0.182 A  
HETATM   11  C   UNL     1      -7.134   9.624  70.812  1.00  0.00    -0.080 A  
HETATM   12  C   UNL     1      -8.288   7.631  71.740  1.00  0.00    -0.121 A  
HETATM   13  I   UNL     1      -8.200  11.437  68.454  1.00  0.00    -0.118 I  
BRANCH  12  14
HETATM   14  C   UNL     1      -8.362   6.491  72.709  1.00  0.00    -0.116 C  
HETATM   15  N   UNL     1      -9.081   5.374  72.332  1.00  0.00    -0.137 N  
HETATM   16  O   UNL     1      -7.804   6.576  73.799  1.00  0.00    -0.094 OA 
HETATM   17  H   UNL     1      -9.533   5.360  71.417  1.00  0.00     0.000 HD 
BRANCH  15  18
HETATM   18  C   UNL     1      -9.211   4.213  73.209  1.00  0.00    -0.109 C  
BRANCH  18  19
HETATM   19  C   UNL     1      -7.939   3.352  73.226  1.00  0.00    -0.070 C  
HETATM   20  H   UNL     1      -7.366   1.673  74.075  1.00  0.00     0.000 HD 
HETATM   21  O   UNL     1      -8.153   2.206  74.064  1.00  0.00    -0.052 OA 
BRANCH  19  22
HETATM   22  C   UNL     1      -7.531   2.916  71.808  1.00  0.00    -0.044 C  
HETATM   23  O   UNL     1      -6.368   3.606  71.357  1.00  0.00    -0.014 OA 
HETATM   24  H   UNL     1      -6.117   3.337  70.481  1.00  0.00     0.000 HD 
ENDBRANCH  19  22
ENDBRANCH  18  19
ENDBRANCH  15  18
ENDBRANCH  12  14
BRANCH  11  25
HETATM   25  C   UNL     1      -6.073  10.658  70.955  1.00  0.00     0.042 C  
HETATM   26  O   UNL     1      -5.245  10.554  71.854  1.00  0.00    -0.239 OA 
HETATM   27  H   UNL     1      -6.773  11.727  69.313  1.00  0.00     0.000 HD 
HETATM   28  N   UNL     1      -6.081  11.715  70.061  1.00  0.00    -0.149 N  
BRANCH  28  29
HETATM   29  C   UNL     1      -5.130  12.807  70.161  1.00  0.00    -0.094 C  
BRANCH  29  30
HETATM   30  C   UNL     1      -5.772  14.012  70.835  1.00  0.00    -0.207 C  
HETATM   31  O   UNL     1      -6.991  14.339  70.163  1.00  0.00    -0.388 OA 
HETATM   32  H   UNL     1      -7.391  15.091  70.584  1.00  0.00     0.000 HD 
ENDBRANCH  29  30
ENDBRANCH  28  29
ENDBRANCH  11  25
ENDBRANCH   3   5
BRANCH   3  33
HETATM   33  C   UNL     1     -11.498   9.474  69.040  1.00  0.00     0.286 C  
BRANCH  33  34
HETATM   34  C   UNL     1     -11.529  10.863  69.734  1.00  0.00    -0.313 C  
HETATM   35  O   UNL     1     -11.256  11.937  68.822  1.00  0.00    -0.220 OA 
HETATM   36  H   UNL     1     -11.275  12.786  69.247  1.00  0.00     0.000 HD 
BRANCH  34  37
HETATM   37  C   UNL     1     -12.883  11.153  70.407  1.00  0.00    -0.099 C  
HETATM   38  H   UNL     1     -13.584  12.316  71.850  1.00  0.00     0.000 HD 
HETATM   39  O   UNL     1     -12.748  12.137  71.435  1.00  0.00    -0.358 OA 
ENDBRANCH  34  37
ENDBRANCH  33  34
ENDBRANCH   3  33
TORSDOF 11
ENDMDL
MODEL      177
REMARK 921   NORMALIZED FREE ENERGY PREDICTED BY IDOCK:    1.33 KCAL/MOL
REMARK 922        TOTAL FREE ENERGY PREDICTED BY IDOCK:    1.58 KCAL/MOL
REMARK 923 INTER-LIGAND FREE ENERGY PREDICTED BY IDOCK:   -1.16 KCAL/MOL
REMARK 924 INTRA-LIGAND FREE ENERGY PREDICTED BY IDOCK:    2.74 KCAL/MOL
REMARK 927      BINDING AFFINITY PREDICTED BY RF-SCORE:    0.00 PKD
ROOT
HETATM    1  C   UNL     1      -9.750   1.528  67.998  1.00  0.00    -0.024 C  
HETATM    2  C   UNL     1      -9.130   2.897  68.050  1.00  0.00    -0.179 C  
HETATM    3  N   UNL     1      -9.611   3.864  67.163  1.00  0.00    -0.204 N  
HETATM    4  O   UNL     1      -8.254   3.136  68.885  1.00  0.00    -0.059 OA 
ENDROOT
BRANCH   3   5
HETATM    5  C   UNL     1      -8.965   5.141  67.239  1.00  0.00    -0.112 A  
HETATM    6  I   UNL     1      -6.277   9.276  67.826  1.00  0.00    -0.054 I  
HETATM    7  C   UNL     1      -7.584   7.588  67.418  1.00  0.00    -0.109 A  
HETATM    8  C   UNL     1      -9.420   6.153  68.128  1.00  0.00    -0.113 A  
HETATM    9  I   UNL     1     -11.256   5.811  69.225  1.00  0.00     1.066 I  
HETATM   10  C   UNL     1      -7.888   5.411  66.353  1.00  0.00    -0.100 A  
HETATM   11  C   UNL     1      -7.182   6.631  66.442  1.00  0.00    -0.072 A  
HETATM   12  C   UNL     1      -8.731   7.387  68.229  1.00  0.00    -0.122 A  
HETATM   13  I   UNL     1      -7.412   3.923  64.831  1.00  0.00    -0.078 I  
BRANCH  12  14
HETATM   14  C   UNL     1      -9.168   8.398  69.246  1.00  0.00    -0.154 C  
HETATM   15  N   UNL     1      -8.589   8.338  70.498  1.00  0.00    -0.127 N  
HETATM   16  O   UNL     1     -10.021   9.230  68.955  1.00  0.00    -0.171 OA 
HETATM   17  H   UNL     1      -7.891   7.619  70.690  1.00  0.00     0.000 HD 
BRANCH  15  18
HETATM   18  C   UNL     1      -8.950   9.280  71.556  1.00  0.00     0.161 C  
BRANCH  18  19
HETATM   19  C   UNL     1     -10.042   8.722  72.482  1.00  0.00    -0.047 C  
HETATM   20  H   UNL     1     -11.842   7.962  72.265  1.00  0.00     0.000 HD 
HETATM   21  O   UNL     1     -11.167   8.306  71.692  1.00  0.00    -0.247 OA 
BRANCH  19  22
HETATM   22  C   UNL     1      -9.519   7.553  73.334  1.00  0.00    -0.252 C  
HETATM   23  O   UNL     1     -10.071   6.306  72.916  1.00  0.00    -0.175 OA 
HETATM   24  H   UNL     1      -9.748   5.585  73.441  1.00  0.00     0.000 HD 
ENDBRANCH  19  22
ENDBRANCH  18  19
ENDBRANCH  15  18
ENDBRANCH  12  14
BRANCH  11  25
HETATM   25  C   UNL     1      -6.097   6.962  65.480  1.00  0.00    -0.036 C  
HETATM   26  O   UNL     1      -5.173   6.171  65.314  1.00  0.00    -0.013 OA 
HETATM   27  H   UNL     1      -6.984   8.773  64.969  1.00  0.00     0.000 HD 
HETATM   28  N   UNL     1      -6.173   8.175  64.816  1.00  0.00    -0.049 N  
BRANCH  28  29
HETATM   29  C   UNL     1      -5.130   8.618  63.911  1.00  0.00    -0.052 C  
BRANCH  29  30
HETATM   30  C   UNL     1      -5.340  10.076  63.529  1.00  0.00    -0.102 C  
HETATM   31  O   UNL     1      -5.257  10.890  64.702  1.00  0.00    -0.266 OA 
HETATM   32  H   UNL     1      -5.388  11.800  64.464  1.00  0.00     0.000 HD 
ENDBRANCH  29  30
ENDBRANCH  28  29
ENDBRANCH  11  25
ENDBRANCH   3   5
BRANCH   3  33
HETATM   33  C   UNL     1     -10.571   3.617  66.049  1.00  0.00     1.226 C  
BRANCH  33  34
HETATM   34  C   UNL     1      -9.968   3.264  64.661  1.00  0.00    -0.081 C  
HETATM   35  O   UNL     1      -9.827   1.848  64.471  1.00  0.00    -0.300 OA 
HETATM   36  H   UNL     1      -9.459   1.632  63.622  1.00  0.00     0.000 HD 
BRANCH  34  37
HETATM   37  C   UNL     1     -10.814   3.811  63.497  1.00  0.00    -0.147 C  
HETATM   38  H   UNL     1     -11.465   3.180  61.736  1.00  0.00     0.000 HD 
HETATM   39  O   UNL     1     -10.943   2.842  62.454  1.00  0.00    -0.167 OA 
ENDBRANCH  34  37
ENDBRANCH  33  34
ENDBRANCH   3  33
TORSDOF 11
ENDMDL
MODEL      178
REMARK 921   NORMALIZED FREE ENERGY PREDICTED BY IDOCK:    1.65 KCAL/MOL
REMARK 922        TOTAL FREE ENERGY PREDICTED BY IDOCK:    2.11 KCAL/MOL
REMARK 923 INTER-LIGAND FREE ENERGY PREDICTED BY IDOCK:   -2.26 KCAL/MOL
REMARK 924 INTRA-LIGAND FREE ENERGY PREDICTED BY IDOCK:    4.37 KCAL/MOL
REMARK 927      BINDING AFFINITY PREDICTED BY RF-SCORE:    0.00 PKD
ROOT
HETATM    1  C   UNL     1     -12.942  11.992  68.111  1.00  0.00     3.280 C  
HETATM    2  C   UNL     1     -11.557  12.496  67.815  1.00  0.00    -0.343 C  
HETATM    3  N   UNL     1     -11.105  13.611  68.525  1.00  0.00    -0.262 N  
HETATM    4  O   UNL     1     -10.856  11.900  66.994  1.00  0.00    -0.235 OA 
ENDROOT
BRANCH   3   5
HETATM    5  C   UNL     1      -9.789  14.064  68.182  1.00  0.00    -0.235 A  
HETATM    6  I   UNL     1      -5.131  15.692  67.609  1.00  0.00     0.139 I  
HETATM    7  C   UNL     1      -7.166  14.928  67.631  1.00  0.00    -0.185 A  
HETATM    8  C   UNL     1      -9.561  15.374  67.680  1.00  0.00    -0.210 A  
HETATM    9  I   UNL     1     -11.275  16.619  67.232  1.00  0.00     0.636 I  
HETATM   10  C   UNL     1      -8.707  13.151  68.290  1.00  0.00    -0.165 A  
HETATM   11  C   UNL     1      -7.386  13.577  68.026  1.00  0.00    -0.133 A  
HETATM   12  C   UNL     1      -8.245  15.822  67.402  1.00  0.00    -0.196 A  
HETATM   13  I   UNL     1      -9.158  11.079  68.806  1.00  0.00    -0.015 I  
BRANCH  12  14
HETATM   14  C   UNL     1      -8.020  17.240  66.972  1.00  0.00    -0.214 C  
HETATM   15  N   UNL     1      -8.020  18.214  67.950  1.00  0.00    -0.241 N  
HETATM   16  O   UNL     1      -7.857  17.500  65.784  1.00  0.00    -0.544 OA 
HETATM   17  H   UNL     1      -8.169  17.943  68.922  1.00  0.00     0.000 HD 
BRANCH  15  18
HETATM   18  C   UNL     1      -7.810  19.624  67.628  1.00  0.00    -0.282 C  
BRANCH  18  19
HETATM   19  C   UNL     1      -7.870  19.890  66.117  1.00  0.00    -0.326 C  
HETATM   20  H   UNL     1      -9.268  20.313  64.800  1.00  0.00     0.000 HD 
HETATM   21  O   UNL     1      -9.231  20.148  65.735  1.00  0.00    -0.233 OA 
BRANCH  19  22
HETATM   22  C   UNL     1      -6.965  21.066  65.712  1.00  0.00     0.164 C  
HETATM   23  O   UNL     1      -6.901  21.221  64.295  1.00  0.00    -0.533 OA 
HETATM   24  H   UNL     1      -6.342  21.946  64.045  1.00  0.00     0.000 HD 
ENDBRANCH  19  22
ENDBRANCH  18  19
ENDBRANCH  15  18
ENDBRANCH  12  14
BRANCH  11  25
HETATM   25  C   UNL     1      -6.248  12.620  68.066  1.00  0.00    -0.094 C  
HETATM   26  O   UNL     1      -5.328  12.806  68.857  1.00  0.00    -0.066 OA 
HETATM   27  H   UNL     1      -7.082  11.433  66.574  1.00  0.00     0.000 HD 
HETATM   28  N   UNL     1      -6.272  11.554  67.182  1.00  0.00    -0.106 N  
BRANCH  28  29
HETATM   29  C   UNL     1      -5.177  10.606  67.097  1.00  0.00    -0.041 C  
BRANCH  29  30
HETATM   30  C   UNL     1      -5.613   9.242  67.613  1.00  0.00    -0.038 C  
HETATM   31  O   UNL     1      -6.322   8.549  66.584  1.00  0.00    -0.057 OA 
HETATM   32  H   UNL     1      -6.594   7.697  66.907  1.00  0.00     0.000 HD 
ENDBRANCH  29  30
ENDBRANCH  28  29
ENDBRANCH  11  25
ENDBRANCH   3   5
BRANCH   3  33
HETATM   33  C   UNL     1     -11.933  14.455  69.434  1.00  0.00    -0.328 C  
BRANCH  33  34
HETATM   34  C   UNL     1     -11.564  14.442  70.943  1.00  0.00    -0.144 C  
HETATM   35  O   UNL     1     -10.464  15.315  71.244  1.00  0.00    -0.350 OA 
HETATM   36  H   UNL     1     -10.239  15.307  72.166  1.00  0.00     0.000 HD 
BRANCH  34  37
HETATM   37  C   UNL     1     -12.745  14.852  71.840  1.00  0.00    -0.326 C  
HETATM   38  H   UNL     1     -14.375  15.969  71.698  1.00  0.00     0.000 HD 
HETATM   39  O   UNL     1     -13.646  15.716  71.144  1.00  0.00    -0.582 OA 
ENDBRANCH  34  37
ENDBRANCH  33  34
ENDBRANCH   3  33
TORSDOF 11
ENDMDL
MODEL      179
REMARK 921   NORMALIZED FREE ENERGY PREDICTED BY IDOCK:    1.71 KCAL/MOL
REMARK 922        TOTAL FREE ENERGY PREDICTED BY IDOCK:    2.20 KCAL/MOL
REMARK 923 INTER-LIGAND FREE ENERGY PREDICTED BY IDOCK:   -1.75 KCAL/MOL
REMARK 924 INTRA-LIGAND FREE ENERGY PREDICTED BY IDOCK:    3.95 KCAL/MOL
REMARK 927      BINDING AFFINITY PREDICTED BY RF-SCORE:    0.00 PKD
ROOT
HETATM    1  C   UNL     1     -11.323  16.472  67.110  1.00  0.00     0.338 C  
HETATM    2  C   UNL     1     -10.953  15.020  67.221  1.00  0.00    -0.326 C  
HETATM    3  N   UNL     1     -10.024  14.657  68.200  1.00  0.00    -0.219 N  
HETATM    4  O   UNL     1     -11.497  14.196  66.482  1.00  0.00    -0.332 OA 
ENDROOT
BRANCH   3   5
HETATM    5  C   UNL     1      -9.688  13.264  68.242  1.00  0.00    -0.225 A  
HETATM    6  I   UNL     1      -8.735   8.410  67.795  1.00  0.00    -0.143 I  
HETATM    7  C   UNL     1      -9.032  10.527  68.192  1.00  0.00    -0.138 A  
HETATM    8  C   UNL     1     -10.501  12.324  68.931  1.00  0.00    -0.101 A  
HETATM    9  I   UNL     1     -12.157  13.065  70.114  1.00  0.00    -0.075 I  
HETATM   10  C   UNL     1      -8.479  12.839  67.631  1.00  0.00    -0.178 A  
HETATM   11  C   UNL     1      -8.146  11.467  67.590  1.00  0.00    -0.124 A  
HETATM   12  C   UNL     1     -10.183  10.943  68.911  1.00  0.00    -0.213 A  
HETATM   13  I   UNL     1      -7.142  14.364  66.825  1.00  0.00     2.580 I  
BRANCH  12  14
HETATM   14  C   UNL     1     -11.109   9.959  69.558  1.00  0.00    -0.217 C  
HETATM   15  N   UNL     1     -11.207   9.982  70.936  1.00  0.00    -0.343 N  
HETATM   16  O   UNL     1     -11.738   9.164  68.868  1.00  0.00     0.620 OA 
HETATM   17  H   UNL     1     -10.654  10.659  71.462  1.00  0.00     0.000 HD 
BRANCH  15  18
HETATM   18  C   UNL     1     -12.082   9.061  71.658  1.00  0.00    -0.352 C  
BRANCH  18  19
HETATM   19  C   UNL     1     -11.307   8.178  72.647  1.00  0.00    -0.381 C  
HETATM   20  H   UNL     1     -11.482   6.359  73.372  1.00  0.00     0.000 HD 
HETATM   21  O   UNL     1     -11.961   6.905  72.759  1.00  0.00    -0.035 OA 
BRANCH  19  22
HETATM   22  C   UNL     1      -9.842   7.996  72.216  1.00  0.00    -0.236 C  
HETATM   23  O   UNL     1      -9.741   7.520  70.876  1.00  0.00    -0.173 OA 
HETATM   24  H   UNL     1      -8.836   7.407  70.609  1.00  0.00     0.000 HD 
ENDBRANCH  19  22
ENDBRANCH  18  19
ENDBRANCH  15  18
ENDBRANCH  12  14
BRANCH  11  25
HETATM   25  C   UNL     1      -6.852  11.007  67.017  1.00  0.00    -0.109 C  
HETATM   26  O   UNL     1      -5.800  11.351  67.546  1.00  0.00    -0.049 OA 
HETATM   27  H   UNL     1      -7.803   9.930  65.512  1.00  0.00     0.000 HD 
HETATM   28  N   UNL     1      -6.897  10.212  65.884  1.00  0.00    -0.108 N  
BRANCH  28  29
HETATM   29  C   UNL     1      -5.689   9.771  65.212  1.00  0.00    -0.069 C  
BRANCH  29  30
HETATM   30  C   UNL     1      -5.281  10.770  64.139  1.00  0.00    -0.099 C  
HETATM   31  O   UNL     1      -6.297  10.830  63.135  1.00  0.00    -0.351 OA 
HETATM   32  H   UNL     1      -6.042  11.453  62.465  1.00  0.00     0.000 HD 
ENDBRANCH  29  30
ENDBRANCH  28  29
ENDBRANCH  11  25
ENDBRANCH   3   5
BRANCH   3  33
HETATM   33  C   UNL     1      -9.235  15.605  69.039  1.00  0.00    -0.243 C  
BRANCH  33  34
HETATM   34  C   UNL     1      -9.023  17.038  68.480  1.00  0.00    -0.263 C  
HETATM   35  O   UNL     1      -8.744  17.993  69.514  1.00  0.00     0.382 OA 
HETATM   36  H   UNL     1      -8.614  18.870  69.172  1.00  0.00     0.000 HD 
BRANCH  34  37
HETATM   37  C   UNL     1      -7.875  17.106  67.457  1.00  0.00    -0.175 C  
HETATM   38  H   UNL     1      -7.661  17.046  65.488  1.00  0.00     0.000 HD 
HETATM   39  O   UNL     1      -8.370  17.005  66.120  1.00  0.00    -0.391 OA 
ENDBRANCH  34  37
ENDBRANCH  33  34
ENDBRANCH   3  33
TORSDOF 11
ENDMDL
MODEL      180
REMARK 921   NORMALIZED FREE ENERGY PREDICTED BY IDOCK:    1.84 KCAL/MOL
REMARK 922        TOTAL FREE ENERGY PREDICTED BY IDOCK:    2.41 KCAL/MOL
REMARK 923 INTER-LIGAND FREE ENERGY PREDICTED BY IDOCK:   -2.42 KCAL/MOL
REMARK 924 INTRA-LIGAND FREE ENERGY PREDICTED BY IDOCK:    4.83 KCAL/MOL
REMARK 927      BINDING AFFINITY PREDICTED BY RF-SCORE:    0.00 PKD
ROOT
HETATM    1  C   UNL     1      -8.664  14.968  65.634  1.00  0.00     1.134 C  
HETATM    2  C   UNL     1      -8.840  13.829  66.600  1.00  0.00    -0.067 C  
HETATM    3  N   UNL     1      -9.228  12.590  66.082  1.00  0.00    -0.136 N  
HETATM    4  O   UNL     1      -8.607  14.007  67.798  1.00  0.00    -0.160 OA 
ENDROOT
BRANCH   3   5
HETATM    5  C   UNL     1      -9.407  11.550  67.051  1.00  0.00    -0.178 A  
HETATM    6  I   UNL     1      -9.773   8.339  70.823  1.00  0.00    -0.239 I  
HETATM    7  C   UNL     1      -9.746   9.596  69.050  1.00  0.00    -0.169 A  
HETATM    8  C   UNL     1      -8.549  10.417  67.093  1.00  0.00    -0.130 A  
HETATM    9  I   UNL     1      -7.082  10.177  65.519  1.00  0.00    -0.113 I  
HETATM   10  C   UNL     1     -10.510  11.634  67.941  1.00  0.00    -0.192 A  
HETATM   11  C   UNL     1     -10.683  10.665  68.954  1.00  0.00    -0.254 A  
HETATM   12  C   UNL     1      -8.708   9.429  68.096  1.00  0.00    -0.124 A  
HETATM   13  I   UNL     1     -11.944  13.252  67.651  1.00  0.00    -0.093 I  
BRANCH  12  14
HETATM   14  C   UNL     1      -7.729   8.298  68.184  1.00  0.00    -0.106 C  
HETATM   15  N   UNL     1      -6.801   8.331  69.206  1.00  0.00    -0.050 N  
HETATM   16  O   UNL     1      -7.763   7.393  67.356  1.00  0.00    -0.109 OA 
HETATM   17  H   UNL     1      -6.811   9.112  69.861  1.00  0.00     0.000 HD 
BRANCH  15  18
HETATM   18  C   UNL     1      -5.805   7.274  69.372  1.00  0.00    -0.026 C  
BRANCH  18  19
HETATM   19  C   UNL     1      -5.763   6.736  70.811  1.00  0.00    -0.027 C  
HETATM   20  H   UNL     1      -6.448   7.305  72.564  1.00  0.00     0.000 HD 
HETATM   21  O   UNL     1      -6.474   7.637  71.675  1.00  0.00    -0.039 OA 
BRANCH  19  22
HETATM   22  C   UNL     1      -6.357   5.320  70.903  1.00  0.00    -0.023 C  
HETATM   23  O   UNL     1      -7.737   5.301  70.544  1.00  0.00    -0.076 OA 
HETATM   24  H   UNL     1      -8.104   4.427  70.601  1.00  0.00     0.000 HD 
ENDBRANCH  19  22
ENDBRANCH  18  19
ENDBRANCH  15  18
ENDBRANCH  12  14
BRANCH  11  25
HETATM   25  C   UNL     1     -11.870  10.695  69.851  1.00  0.00    -0.315 C  
HETATM   26  O   UNL     1     -12.935  11.139  69.432  1.00  0.00    -0.010 OA 
HETATM   27  H   UNL     1     -10.810   9.838  71.424  1.00  0.00     0.000 HD 
HETATM   28  N   UNL     1     -11.710  10.229  71.145  1.00  0.00    -0.361 N  
BRANCH  28  29
HETATM   29  C   UNL     1     -12.788  10.280  72.115  1.00  0.00    -0.255 C  
BRANCH  29  30
HETATM   30  C   UNL     1     -13.891  11.212  71.636  1.00  0.00     0.646 C  
HETATM   31  O   UNL     1     -13.646  12.531  72.129  1.00  0.00    -0.500 OA 
HETATM   32  H   UNL     1     -14.335  13.113  71.830  1.00  0.00     0.000 HD 
ENDBRANCH  29  30
ENDBRANCH  28  29
ENDBRANCH  11  25
ENDBRANCH   3   5
BRANCH   3  33
HETATM   33  C   UNL     1      -9.647  12.332  64.675  1.00  0.00     0.112 C  
BRANCH  33  34
HETATM   34  C   UNL     1     -11.082  11.780  64.454  1.00  0.00    -0.334 C  
HETATM   35  O   UNL     1     -12.091  12.650  64.989  1.00  0.00    -0.394 OA 
HETATM   36  H   UNL     1     -12.968  12.313  64.854  1.00  0.00     0.000 HD 
BRANCH  34  37
HETATM   37  C   UNL     1     -11.402  11.553  62.965  1.00  0.00     0.211 C  
HETATM   38  H   UNL     1     -13.010  11.406  61.818  1.00  0.00     0.000 HD 
HETATM   39  O   UNL     1     -12.813  11.547  62.736  1.00  0.00    -0.044 OA 
ENDBRANCH  34  37
ENDBRANCH  33  34
ENDBRANCH   3  33
TORSDOF 11
ENDMDL
MODEL      181
REMARK 921   NORMALIZED FREE ENERGY PREDICTED BY IDOCK:    1.88 KCAL/MOL
REMARK 922        TOTAL FREE ENERGY PREDICTED BY IDOCK:    2.48 KCAL/MOL
REMARK 923 INTER-LIGAND FREE ENERGY PREDICTED BY IDOCK:   -2.94 KCAL/MOL
REMARK 924 INTRA-LIGAND FREE ENERGY PREDICTED BY IDOCK:    5.43 KCAL/MOL
REMARK 927      BINDING AFFINITY PREDICTED BY RF-SCORE:    0.00 PKD
ROOT
HETATM    1  C   UNL     1      -5.308   5.538  73.536  1.00  0.00    -0.023 C  
HETATM    2  C   UNL     1      -5.867   5.889  72.185  1.00  0.00    -0.031 C  
HETATM    3  N   UNL     1      -6.732   4.973  71.581  1.00  0.00    -0.045 N  
HETATM    4  O   UNL     1      -5.580   6.973  71.672  1.00  0.00    -0.035 OA 
ENDROOT
BRANCH   3   5
HETATM    5  C   UNL     1      -7.212   5.347  70.283  1.00  0.00    -0.066 A  
HETATM    6  I   UNL     1      -8.285   6.822  65.662  1.00  0.00    -0.107 I  
HETATM    7  C   UNL     1      -8.029   6.082  67.690  1.00  0.00    -0.102 A  
HETATM    8  C   UNL     1      -7.970   6.533  70.083  1.00  0.00    -0.112 A  
HETATM    9  I   UNL     1      -8.582   7.669  71.823  1.00  0.00    -0.170 I  
HETATM   10  C   UNL     1      -6.972   4.471  69.192  1.00  0.00    -0.051 A  
HETATM   11  C   UNL     1      -7.368   4.835  67.885  1.00  0.00    -0.070 A  
HETATM   12  C   UNL     1      -8.384   6.915  68.783  1.00  0.00    -0.121 A  
HETATM   13  I   UNL     1      -6.041   2.542  69.608  1.00  0.00    -0.025 I  
BRANCH  12  14
HETATM   14  C   UNL     1      -9.094   8.220  68.584  1.00  0.00    -0.140 C  
HETATM   15  N   UNL     1     -10.375   8.181  68.070  1.00  0.00    -0.234 N  
HETATM   16  O   UNL     1      -8.530   9.272  68.864  1.00  0.00    -0.124 OA 
HETATM   17  H   UNL     1     -10.793   7.277  67.846  1.00  0.00     0.000 HD 
BRANCH  15  18
HETATM   18  C   UNL     1     -11.147   9.400  67.840  1.00  0.00     0.077 C  
BRANCH  18  19
HETATM   19  C   UNL     1     -10.247  10.635  67.677  1.00  0.00    -0.194 C  
HETATM   20  H   UNL     1     -10.209  12.226  66.522  1.00  0.00     0.000 HD 
HETATM   21  O   UNL     1     -10.765  11.462  66.623  1.00  0.00    -0.247 OA 
BRANCH  19  22
HETATM   22  C   UNL     1     -10.139  11.434  68.987  1.00  0.00    -0.090 C  
HETATM   23  O   UNL     1      -9.650  12.754  68.761  1.00  0.00    -0.403 OA 
HETATM   24  H   UNL     1      -9.583  13.248  69.570  1.00  0.00     0.000 HD 
ENDBRANCH  19  22
ENDBRANCH  18  19
ENDBRANCH  15  18
ENDBRANCH  12  14
BRANCH  11  25
HETATM   25  C   UNL     1      -7.188   3.902  66.741  1.00  0.00    -0.068 C  
HETATM   26  O   UNL     1      -7.725   2.799  66.769  1.00  0.00    -0.074 OA 
HETATM   27  H   UNL     1      -6.006   5.265  65.703  1.00  0.00     0.000 HD 
HETATM   28  N   UNL     1      -6.396   4.323  65.686  1.00  0.00    -0.035 N  
BRANCH  28  29
HETATM   29  C   UNL     1      -6.105   3.460  64.556  1.00  0.00    -0.023 C  
BRANCH  29  30
HETATM   30  C   UNL     1      -5.964   4.281  63.282  1.00  0.00    -0.017 C  
HETATM   31  O   UNL     1      -5.578   5.616  63.617  1.00  0.00    -0.013 OA 
HETATM   32  H   UNL     1      -5.490   6.128  62.821  1.00  0.00     0.000 HD 
ENDBRANCH  29  30
ENDBRANCH  28  29
ENDBRANCH  11  25
ENDBRANCH   3   5
BRANCH   3  33
HETATM   33  C   UNL     1      -7.023   3.598  72.077  1.00  0.00    -0.031 C  
BRANCH  33  34
HETATM   34  C   UNL     1      -7.893   3.478  73.359  1.00  0.00    -0.070 C  
HETATM   35  O   UNL     1      -7.117   3.608  74.560  1.00  0.00    -0.049 OA 
HETATM   36  H   UNL     1      -7.649   3.534  75.343  1.00  0.00     0.000 HD 
BRANCH  34  37
HETATM   37  C   UNL     1      -9.014   4.531  73.410  1.00  0.00    -0.104 C  
HETATM   38  H   UNL     1     -10.624   4.906  74.501  1.00  0.00     0.000 HD 
HETATM   39  O   UNL     1      -9.932   4.256  74.470  1.00  0.00    -0.146 OA 
ENDBRANCH  34  37
ENDBRANCH  33  34
ENDBRANCH   3  33
TORSDOF 11
ENDMDL
MODEL      182
REMARK 921   NORMALIZED FREE ENERGY PREDICTED BY IDOCK:    2.29 KCAL/MOL
REMARK 922        TOTAL FREE ENERGY PREDICTED BY IDOCK:    3.16 KCAL/MOL
REMARK 923 INTER-LIGAND FREE ENERGY PREDICTED BY IDOCK:    0.15 KCAL/MOL
REMARK 924 INTRA-LIGAND FREE ENERGY PREDICTED BY IDOCK:    3.01 KCAL/MOL
REMARK 927      BINDING AFFINITY PREDICTED BY RF-SCORE:    0.00 PKD
ROOT
HETATM    1  C   UNL     1      -9.009   7.442  70.382  1.00  0.00    -0.150 C  
HETATM    2  C   UNL     1      -9.261   8.746  69.677  1.00  0.00    -0.150 C  
HETATM    3  N   UNL     1      -8.330   9.159  68.721  1.00  0.00    -0.120 N  
HETATM    4  O   UNL     1     -10.284   9.387  69.932  1.00  0.00    -0.195 OA 
ENDROOT
BRANCH   3   5
HETATM    5  C   UNL     1      -8.606  10.422  68.101  1.00  0.00    -0.125 A  
HETATM    6  I   UNL     1      -9.201  14.600  65.481  1.00  0.00     1.497 I  
HETATM    7  C   UNL     1      -9.110  12.850  66.769  1.00  0.00    -0.211 A  
HETATM    8  C   UNL     1      -7.970  11.617  68.533  1.00  0.00    -0.144 A  
HETATM    9  I   UNL     1      -6.723  11.539  70.303  1.00  0.00     1.310 I  
HETATM   10  C   UNL     1      -9.588  10.475  67.077  1.00  0.00    -0.173 A  
HETATM   11  C   UNL     1      -9.841  11.686  66.395  1.00  0.00    -0.233 A  
HETATM   12  C   UNL     1      -8.212  12.845  67.869  1.00  0.00    -0.165 A  
HETATM   13  I   UNL     1     -10.722   8.662  66.645  1.00  0.00     1.147 I  
BRANCH  12  14
HETATM   14  C   UNL     1      -7.453  14.071  68.276  1.00  0.00    -0.123 C  
HETATM   15  N   UNL     1      -8.178  15.141  68.762  1.00  0.00    -0.157 N  
HETATM   16  O   UNL     1      -6.233  14.103  68.159  1.00  0.00    -0.106 OA 
HETATM   17  H   UNL     1      -9.193  15.065  68.829  1.00  0.00     0.000 HD 
BRANCH  15  18
HETATM   18  C   UNL     1      -7.527  16.380  69.183  1.00  0.00    -0.228 C  
BRANCH  18  19
HETATM   19  C   UNL     1      -7.213  17.304  67.997  1.00  0.00    -0.190 C  
HETATM   20  H   UNL     1      -8.248  18.342  66.686  1.00  0.00     0.000 HD 
HETATM   21  O   UNL     1      -8.443  17.770  67.420  1.00  0.00    -0.222 OA 
BRANCH  19  22
HETATM   22  C   UNL     1      -6.332  18.491  68.421  1.00  0.00    -0.212 C  
HETATM   23  O   UNL     1      -5.421  18.129  69.458  1.00  0.00    -0.193 OA 
HETATM   24  H   UNL     1      -4.877  18.862  69.720  1.00  0.00     0.000 HD 
ENDBRANCH  19  22
ENDBRANCH  18  19
ENDBRANCH  15  18
ENDBRANCH  12  14
BRANCH  11  25
HETATM   25  C   UNL     1     -10.913  11.780  65.368  1.00  0.00    -0.297 C  
HETATM   26  O   UNL     1     -11.647  10.816  65.170  1.00  0.00     0.570 OA 
HETATM   27  H   UNL     1     -10.408  13.742  64.895  1.00  0.00     0.000 HD 
HETATM   28  N   UNL     1     -11.024  12.965  64.660  1.00  0.00    -0.314 N  
BRANCH  28  29
HETATM   29  C   UNL     1     -11.992  13.130  63.592  1.00  0.00    -0.514 C  
BRANCH  29  30
HETATM   30  C   UNL     1     -12.997  14.216  63.948  1.00  0.00     0.942 C  
HETATM   31  O   UNL     1     -12.328  15.478  64.015  1.00  0.00    -0.858 OA 
HETATM   32  H   UNL     1     -12.956  16.156  64.237  1.00  0.00     0.000 HD 
ENDBRANCH  29  30
ENDBRANCH  28  29
ENDBRANCH  11  25
ENDBRANCH   3   5
BRANCH   3  33
HETATM   33  C   UNL     1      -7.016   8.507  68.452  1.00  0.00    -0.066 C  
BRANCH  33  34
HETATM   34  C   UNL     1      -7.003   7.336  67.431  1.00  0.00    -0.079 C  
HETATM   35  O   UNL     1      -7.201   7.785  66.082  1.00  0.00    -0.071 OA 
HETATM   36  H   UNL     1      -7.192   7.069  65.458  1.00  0.00     0.000 HD 
BRANCH  34  37
HETATM   37  C   UNL     1      -5.688   6.537  67.471  1.00  0.00    -0.012 C  
HETATM   38  H   UNL     1      -4.527   5.692  68.836  1.00  0.00     0.000 HD 
HETATM   39  O   UNL     1      -5.339   6.185  68.811  1.00  0.00    -0.007 OA 
ENDBRANCH  34  37
ENDBRANCH  33  34
ENDBRANCH   3  33
TORSDOF 11
ENDMDL
MODEL      183
REMARK 921   NORMALIZED FREE ENERGY PREDICTED BY IDOCK:    2.69 KCAL/MOL
REMARK 922        TOTAL FREE ENERGY PREDICTED BY IDOCK:    3.82 KCAL/MOL
REMARK 923 INTER-LIGAND FREE ENERGY PREDICTED BY IDOCK:   -5.24 KCAL/MOL
REMARK 924 INTRA-LIGAND FREE ENERGY PREDICTED BY IDOCK:    9.06 KCAL/MOL
REMARK 927      BINDING AFFINITY PREDICTED BY RF-SCORE:    0.00 PKD
ROOT
HETATM    1  C   UNL     1     -10.001   7.986  73.351  1.00  0.00    -0.160 C  
HETATM    2  C   UNL     1     -10.194   8.236  71.882  1.00  0.00    -0.245 C  
HETATM    3  N   UNL     1      -9.117   7.978  71.030  1.00  0.00    -0.145 N  
HETATM    4  O   UNL     1     -11.291   8.621  71.469  1.00  0.00    -0.253 OA 
ENDROOT
BRANCH   3   5
HETATM    5  C   UNL     1      -9.349   8.260  69.644  1.00  0.00    -0.158 A  
HETATM    6  I   UNL     1      -9.577   9.488  64.836  1.00  0.00     0.390 I  
HETATM    7  C   UNL     1      -9.674   8.829  66.906  1.00  0.00    -0.210 A  
HETATM    8  C   UNL     1     -10.184   9.334  69.234  1.00  0.00    -0.206 A  
HETATM    9  I   UNL     1     -11.288  10.418  70.750  1.00  0.00     0.071 I  
HETATM   10  C   UNL     1      -8.776   7.399  68.671  1.00  0.00    -0.128 A  
HETATM   11  C   UNL     1      -8.924   7.682  67.295  1.00  0.00    -0.134 A  
HETATM   12  C   UNL     1     -10.353   9.632  67.859  1.00  0.00    -0.271 A  
HETATM   13  I   UNL     1      -7.730   5.615  69.365  1.00  0.00    -0.090 I  
BRANCH  12  14
HETATM   14  C   UNL     1     -11.157  10.831  67.453  1.00  0.00    -0.296 C  
HETATM   15  N   UNL     1     -10.599  11.694  66.531  1.00  0.00    -0.243 N  
HETATM   16  O   UNL     1     -12.262  11.023  67.948  1.00  0.00    -0.438 OA 
HETATM   17  H   UNL     1      -9.671  11.491  66.158  1.00  0.00     0.000 HD 
BRANCH  15  18
HETATM   18  C   UNL     1     -11.304  12.890  66.075  1.00  0.00    -0.317 C  
BRANCH  18  19
HETATM   19  C   UNL     1     -10.642  13.519  64.840  1.00  0.00    -0.397 C  
HETATM   20  H   UNL     1     -11.192  13.980  63.009  1.00  0.00     0.000 HD 
HETATM   21  O   UNL     1     -11.601  13.591  63.773  1.00  0.00    -0.357 OA 
BRANCH  19  22
HETATM   22  C   UNL     1     -10.076  14.916  65.150  1.00  0.00    -0.319 C  
HETATM   23  O   UNL     1     -11.032  15.943  64.892  1.00  0.00    -0.443 OA 
HETATM   24  H   UNL     1     -10.682  16.805  65.084  1.00  0.00     0.000 HD 
ENDBRANCH  19  22
ENDBRANCH  18  19
ENDBRANCH  15  18
ENDBRANCH  12  14
BRANCH  11  25
HETATM   25  C   UNL     1      -8.392   6.756  66.259  1.00  0.00    -0.126 C  
HETATM   26  O   UNL     1      -9.114   5.871  65.810  1.00  0.00    -0.154 OA 
HETATM   27  H   UNL     1      -6.540   7.705  66.238  1.00  0.00     0.000 HD 
HETATM   28  N   UNL     1      -7.079   6.929  65.854  1.00  0.00    -0.071 N  
BRANCH  28  29
HETATM   29  C   UNL     1      -6.449   6.036  64.901  1.00  0.00    -0.038 C  
BRANCH  29  30
HETATM   30  C   UNL     1      -7.225   6.020  63.592  1.00  0.00    -0.060 C  
HETATM   31  O   UNL     1      -8.019   4.833  63.525  1.00  0.00    -0.080 OA 
HETATM   32  H   UNL     1      -8.504   4.823  62.708  1.00  0.00     0.000 HD 
ENDBRANCH  29  30
ENDBRANCH  28  29
ENDBRANCH  11  25
ENDBRANCH   3   5
BRANCH   3  33
HETATM   33  C   UNL     1      -7.732   7.635  71.464  1.00  0.00    -0.085 C  
BRANCH  33  34
HETATM   34  C   UNL     1      -7.586   6.762  72.740  1.00  0.00    -0.091 C  
HETATM   35  O   UNL     1      -7.815   5.369  72.479  1.00  0.00    -0.100 OA 
HETATM   36  H   UNL     1      -7.725   4.835  73.259  1.00  0.00     0.000 HD 
BRANCH  34  37
HETATM   37  C   UNL     1      -6.195   6.894  73.387  1.00  0.00    -0.062 C  
HETATM   38  H   UNL     1      -4.334   6.348  72.985  1.00  0.00     0.000 HD 
HETATM   39  O   UNL     1      -5.192   6.266  72.586  1.00  0.00    -0.029 OA 
ENDBRANCH  34  37
ENDBRANCH  33  34
ENDBRANCH   3  33
TORSDOF 11
ENDMDL
MODEL      184
REMARK 921   NORMALIZED FREE ENERGY PREDICTED BY IDOCK:    2.75 KCAL/MOL
REMARK 922        TOTAL FREE ENERGY PREDICTED BY IDOCK:    3.91 KCAL/MOL
REMARK 923 INTER-LIGAND FREE ENERGY PREDICTED BY IDOCK:   -0.90 KCAL/MOL
REMARK 924 INTRA-LIGAND FREE ENERGY PREDICTED BY IDOCK:    4.81 KCAL/MOL
REMARK 927      BINDING AFFINITY PREDICTED BY RF-SCORE:    0.00 PKD
ROOT
HETATM    1  C   UNL     1      -9.375  16.764  68.800  1.00  0.00    -0.254 C  
HETATM    2  C   UNL     1      -9.698  15.309  68.599  1.00  0.00    -0.212 C  
HETATM    3  N   UNL     1      -8.691  14.377  68.863  1.00  0.00    -0.119 N  
HETATM    4  O   UNL     1     -10.834  14.981  68.248  1.00  0.00    -0.246 OA 
ENDROOT
BRANCH   3   5
HETATM    5  C   UNL     1      -9.046  13.008  68.628  1.00  0.00     0.049 A  
HETATM    6  I   UNL     1     -10.429   8.446  67.232  1.00  0.00    -0.144 I  
HETATM    7  C   UNL     1      -9.736  10.344  68.036  1.00  0.00    -0.150 A  
HETATM    8  C   UNL     1     -10.250  12.454  69.139  1.00  0.00     0.234 A  
HETATM    9  I   UNL     1     -11.454  13.660  70.476  1.00  0.00     0.864 I  
HETATM   10  C   UNL     1      -8.132  12.182  67.922  1.00  0.00    -0.153 A  
HETATM   11  C   UNL     1      -8.473  10.847  67.610  1.00  0.00    -0.123 A  
HETATM   12  C   UNL     1     -10.611  11.115  68.845  1.00  0.00    -0.239 A  
HETATM   13  I   UNL     1      -6.185  13.016  67.399  1.00  0.00     0.424 I  
BRANCH  12  14
HETATM   14  C   UNL     1     -11.933  10.584  69.309  1.00  0.00    -0.122 C  
HETATM   15  N   UNL     1     -11.924   9.503  70.169  1.00  0.00    -0.467 N  
HETATM   16  O   UNL     1     -12.973  11.101  68.915  1.00  0.00     0.328 OA 
HETATM   17  H   UNL     1     -11.029   9.106  70.459  1.00  0.00     0.000 HD 
BRANCH  15  18
HETATM   18  C   UNL     1     -13.162   8.915  70.675  1.00  0.00     0.530 C  
BRANCH  18  19
HETATM   19  C   UNL     1     -12.928   8.053  71.925  1.00  0.00    -0.312 C  
HETATM   20  H   UNL     1     -14.049   7.174  73.280  1.00  0.00     0.000 HD 
HETATM   21  O   UNL     1     -14.194   7.707  72.506  1.00  0.00     0.035 OA 
BRANCH  19  22
HETATM   22  C   UNL     1     -12.121   6.785  71.596  1.00  0.00    -0.359 C  
HETATM   23  O   UNL     1     -10.875   6.757  72.289  1.00  0.00    -0.219 OA 
HETATM   24  H   UNL     1     -10.377   5.974  72.086  1.00  0.00     0.000 HD 
ENDBRANCH  19  22
ENDBRANCH  18  19
ENDBRANCH  15  18
ENDBRANCH  12  14
BRANCH  11  25
HETATM   25  C   UNL     1      -7.504   9.945  66.932  1.00  0.00    -0.092 C  
HETATM   26  O   UNL     1      -7.439   9.937  65.707  1.00  0.00    -0.101 OA 
HETATM   27  H   UNL     1      -6.791   9.209  68.743  1.00  0.00     0.000 HD 
HETATM   28  N   UNL     1      -6.717   9.130  67.729  1.00  0.00    -0.064 N  
BRANCH  28  29
HETATM   29  C   UNL     1      -5.792   8.169  67.161  1.00  0.00    -0.042 C  
BRANCH  29  30
HETATM   30  C   UNL     1      -5.526   8.485  65.696  1.00  0.00    -0.035 C  
HETATM   31  O   UNL     1      -5.158   7.287  65.010  1.00  0.00    -0.027 OA 
HETATM   32  H   UNL     1      -4.992   7.484  64.096  1.00  0.00     0.000 HD 
ENDBRANCH  29  30
ENDBRANCH  28  29
ENDBRANCH  11  25
ENDBRANCH   3   5
BRANCH   3  33
HETATM   33  C   UNL     1      -7.267  14.701  69.167  1.00  0.00    -0.142 C  
BRANCH  33  34
HETATM   34  C   UNL     1      -6.933  15.125  70.623  1.00  0.00     0.534 C  
HETATM   35  O   UNL     1      -6.582  14.007  71.452  1.00  0.00    -0.365 OA 
HETATM   36  H   UNL     1      -6.377  14.266  72.342  1.00  0.00     0.000 HD 
BRANCH  34  37
HETATM   37  C   UNL     1      -5.776  16.139  70.689  1.00  0.00     0.016 C  
HETATM   38  H   UNL     1      -5.518  18.087  70.439  1.00  0.00     0.000 HD 
HETATM   39  O   UNL     1      -6.233  17.461  70.399  1.00  0.00     0.067 OA 
ENDBRANCH  34  37
ENDBRANCH  33  34
ENDBRANCH   3  33
TORSDOF 11
ENDMDL
MODEL      185
REMARK 921   NORMALIZED FREE ENERGY PREDICTED BY IDOCK:    2.81 KCAL/MOL
REMARK 922        TOTAL FREE ENERGY PREDICTED BY IDOCK:    4.01 KCAL/MOL
REMARK 923 INTER-LIGAND FREE ENERGY PREDICTED BY IDOCK:   -2.44 KCAL/MOL
REMARK 924 INTRA-LIGAND FREE ENERGY PREDICTED BY IDOCK:    6.46 KCAL/MOL
REMARK 927      BINDING AFFINITY PREDICTED BY RF-SCORE:    0.00 PKD
ROOT
HETATM    1  C   UNL     1      -6.635  11.155  67.773  1.00  0.00    -0.064 C  
HETATM    2  C   UNL     1      -7.114  12.496  68.253  1.00  0.00    -0.104 C  
HETATM    3  N   UNL     1      -8.422  12.873  67.934  1.00  0.00    -0.168 N  
HETATM    4  O   UNL     1      -6.366  13.201  68.935  1.00  0.00    -0.081 OA 
ENDROOT
BRANCH   3   5
HETATM    5  C   UNL     1      -8.815  14.172  68.393  1.00  0.00    -0.187 A  
HETATM    6  I   UNL     1     -10.562  18.692  69.487  1.00  0.00     2.100 I  
HETATM    7  C   UNL     1      -9.696  16.716  69.219  1.00  0.00    -0.173 A  
HETATM    8  C   UNL     1      -7.982  15.309  68.210  1.00  0.00    -0.132 A  
HETATM    9  I   UNL     1      -5.992  15.010  67.411  1.00  0.00     0.756 I  
HETATM   10  C   UNL     1     -10.038  14.300  69.103  1.00  0.00    -0.055 A  
HETATM   11  C   UNL     1     -10.495  15.573  69.512  1.00  0.00    -0.263 A  
HETATM   12  C   UNL     1      -8.416  16.595  68.618  1.00  0.00    -0.253 A  
HETATM   13  I   UNL     1     -11.141  12.481  69.588  1.00  0.00     0.455 I  
BRANCH  12  14
HETATM   14  C   UNL     1      -7.565  17.793  68.323  1.00  0.00    -0.256 C  
HETATM   15  N   UNL     1      -7.805  18.475  67.146  1.00  0.00    -0.227 N  
HETATM   16  O   UNL     1      -6.684  18.127  69.108  1.00  0.00    -0.255 OA 
HETATM   17  H   UNL     1      -8.545  18.148  66.525  1.00  0.00     0.000 HD 
BRANCH  15  18
HETATM   18  C   UNL     1      -7.027  19.654  66.771  1.00  0.00    -0.201 C  
BRANCH  18  19
HETATM   19  C   UNL     1      -6.668  19.661  65.277  1.00  0.00    -0.268 C  
HETATM   20  H   UNL     1      -6.558  21.004  63.845  1.00  0.00     0.000 HD 
HETATM   21  O   UNL     1      -6.780  20.999  64.769  1.00  0.00    -0.149 OA 
BRANCH  19  22
HETATM   22  C   UNL     1      -5.253  19.108  65.033  1.00  0.00    -0.168 C  
HETATM   23  O   UNL     1      -5.203  18.281  63.872  1.00  0.00     0.050 OA 
HETATM   24  H   UNL     1      -4.329  17.939  63.721  1.00  0.00     0.000 HD 
ENDBRANCH  19  22
ENDBRANCH  18  19
ENDBRANCH  15  18
ENDBRANCH  12  14
BRANCH  11  25
HETATM   25  C   UNL     1     -11.738  15.721  70.316  1.00  0.00    -0.358 C  
HETATM   26  O   UNL     1     -12.830  15.614  69.767  1.00  0.00    -0.068 OA 
HETATM   27  H   UNL     1     -10.667  16.036  72.072  1.00  0.00     0.000 HD 
HETATM   28  N   UNL     1     -11.601  15.994  71.667  1.00  0.00    -0.465 N  
BRANCH  28  29
HETATM   29  C   UNL     1     -12.752  16.223  72.520  1.00  0.00    -0.205 C  
BRANCH  29  30
HETATM   30  C   UNL     1     -13.777  15.113  72.342  1.00  0.00    -0.496 C  
HETATM   31  O   UNL     1     -13.110  13.908  71.958  1.00  0.00    -0.350 OA 
HETATM   32  H   UNL     1     -13.750  13.215  71.847  1.00  0.00     0.000 HD 
ENDBRANCH  29  30
ENDBRANCH  28  29
ENDBRANCH  11  25
ENDBRANCH   3   5
BRANCH   3  33
HETATM   33  C   UNL     1      -9.336  12.136  67.015  1.00  0.00    -0.201 C  
BRANCH  33  34
HETATM   34  C   UNL     1      -9.508  10.612  67.260  1.00  0.00    -0.158 C  
HETATM   35  O   UNL     1     -10.870  10.184  67.108  1.00  0.00    -0.251 OA 
HETATM   36  H   UNL     1     -10.975   9.252  67.258  1.00  0.00     0.000 HD 
BRANCH  34  37
HETATM   37  C   UNL     1      -8.642   9.763  66.311  1.00  0.00    -0.127 C  
HETATM   38  H   UNL     1      -8.151   7.857  66.087  1.00  0.00     0.000 HD 
HETATM   39  O   UNL     1      -8.685   8.381  66.672  1.00  0.00    -0.122 OA 
ENDBRANCH  34  37
ENDBRANCH  33  34
ENDBRANCH   3  33
TORSDOF 11
ENDMDL
MODEL      186
REMARK 921   NORMALIZED FREE ENERGY PREDICTED BY IDOCK:    2.82 KCAL/MOL
REMARK 922        TOTAL FREE ENERGY PREDICTED BY IDOCK:    4.03 KCAL/MOL
REMARK 923 INTER-LIGAND FREE ENERGY PREDICTED BY IDOCK:   -0.40 KCAL/MOL
REMARK 924 INTRA-LIGAND FREE ENERGY PREDICTED BY IDOCK:    4.43 KCAL/MOL
REMARK 927      BINDING AFFINITY PREDICTED BY RF-SCORE:    0.00 PKD
ROOT
HETATM    1  C   UNL     1     -13.022  11.667  68.849  1.00  0.00     2.006 C  
HETATM    2  C   UNL     1     -11.663  12.194  68.482  1.00  0.00    -0.330 C  
HETATM    3  N   UNL     1     -11.185  13.306  69.182  1.00  0.00    -0.264 N  
HETATM    4  O   UNL     1     -11.002  11.619  67.614  1.00  0.00    -0.211 OA 
ENDROOT
BRANCH   3   5
HETATM    5  C   UNL     1      -9.897  13.782  68.771  1.00  0.00    -0.088 A  
HETATM    6  I   UNL     1      -5.341  15.583  67.951  1.00  0.00    -0.035 I  
HETATM    7  C   UNL     1      -7.328  14.711  68.092  1.00  0.00    -0.125 A  
HETATM    8  C   UNL     1      -9.744  15.018  68.086  1.00  0.00    -0.215 A  
HETATM    9  I   UNL     1     -11.528  16.083  67.473  1.00  0.00     0.473 I  
HETATM   10  C   UNL     1      -8.764  12.958  69.004  1.00  0.00     0.505 A  
HETATM   11  C   UNL     1      -7.469  13.420  68.676  1.00  0.00    -0.104 A  
HETATM   12  C   UNL     1      -8.456  15.498  67.742  1.00  0.00    -0.159 A  
HETATM   13  I   UNL     1      -9.093  10.959  69.812  1.00  0.00     1.396 I  
BRANCH  12  14
HETATM   14  C   UNL     1      -8.313  16.850  67.112  1.00  0.00    -0.193 C  
HETATM   15  N   UNL     1      -8.717  17.946  67.849  1.00  0.00    -0.247 N  
HETATM   16  O   UNL     1      -7.863  16.952  65.976  1.00  0.00    -0.376 OA 
HETATM   17  H   UNL     1      -9.093  17.804  68.787  1.00  0.00     0.000 HD 
BRANCH  15  18
HETATM   18  C   UNL     1      -8.618  19.305  67.320  1.00  0.00    -0.292 C  
BRANCH  18  19
HETATM   19  C   UNL     1      -9.885  20.129  67.594  1.00  0.00    -0.429 C  
HETATM   20  H   UNL     1     -11.626  20.396  66.720  1.00  0.00     0.000 HD 
HETATM   21  O   UNL     1     -10.843  19.886  66.551  1.00  0.00    -0.430 OA 
BRANCH  19  22
HETATM   22  C   UNL     1     -10.490  19.798  68.969  1.00  0.00     0.043 C  
HETATM   23  O   UNL     1      -9.851  20.526  70.016  1.00  0.00     0.341 OA 
HETATM   24  H   UNL     1     -10.224  20.321  70.865  1.00  0.00     0.000 HD 
ENDBRANCH  19  22
ENDBRANCH  18  19
ENDBRANCH  15  18
ENDBRANCH  12  14
BRANCH  11  25
HETATM   25  C   UNL     1      -6.277  12.547  68.847  1.00  0.00    -0.080 C  
HETATM   26  O   UNL     1      -5.154  13.021  68.704  1.00  0.00    -0.061 OA 
HETATM   27  H   UNL     1      -7.449  10.885  69.290  1.00  0.00     0.000 HD 
HETATM   28  N   UNL     1      -6.494  11.213  69.148  1.00  0.00    -0.065 N  
BRANCH  28  29
HETATM   29  C   UNL     1      -5.399  10.268  69.267  1.00  0.00    -0.038 C  
BRANCH  29  30
HETATM   30  C   UNL     1      -5.364   9.666  70.665  1.00  0.00    -0.045 C  
HETATM   31  O   UNL     1      -5.898   8.341  70.625  1.00  0.00    -0.032 OA 
HETATM   32  H   UNL     1      -5.876   7.966  71.498  1.00  0.00     0.000 HD 
ENDBRANCH  29  30
ENDBRANCH  28  29
ENDBRANCH  11  25
ENDBRANCH   3   5
BRANCH   3  33
HETATM   33  C   UNL     1     -11.971  14.125  70.148  1.00  0.00    -0.332 C  
BRANCH  33  34
HETATM   34  C   UNL     1     -11.187  15.161  71.000  1.00  0.00    -0.285 C  
HETATM   35  O   UNL     1     -11.556  16.513  70.692  1.00  0.00    -0.531 OA 
HETATM   36  H   UNL     1     -11.077  17.146  71.213  1.00  0.00     0.000 HD 
BRANCH  34  37
HETATM   37  C   UNL     1     -11.390  14.953  72.511  1.00  0.00     0.167 C  
HETATM   38  H   UNL     1     -12.894  14.950  73.802  1.00  0.00     0.000 HD 
HETATM   39  O   UNL     1     -12.769  15.078  72.868  1.00  0.00    -0.361 OA 
ENDBRANCH  34  37
ENDBRANCH  33  34
ENDBRANCH   3  33
TORSDOF 11
ENDMDL
MODEL      187
REMARK 921   NORMALIZED FREE ENERGY PREDICTED BY IDOCK:    3.48 KCAL/MOL
REMARK 922        TOTAL FREE ENERGY PREDICTED BY IDOCK:    5.11 KCAL/MOL
REMARK 923 INTER-LIGAND FREE ENERGY PREDICTED BY IDOCK:   -1.39 KCAL/MOL
REMARK 924 INTRA-LIGAND FREE ENERGY PREDICTED BY IDOCK:    6.51 KCAL/MOL
REMARK 927      BINDING AFFINITY PREDICTED BY RF-SCORE:    0.00 PKD
ROOT
HETATM    1  C   UNL     1      -9.535   4.987  66.507  1.00  0.00    -0.151 C  
HETATM    2  C   UNL     1      -9.088   6.239  67.210  1.00  0.00    -0.116 C  
HETATM    3  N   UNL     1      -8.487   7.238  66.439  1.00  0.00    -0.123 N  
HETATM    4  O   UNL     1      -9.294   6.364  68.419  1.00  0.00    -0.123 OA 
ENDROOT
BRANCH   3   5
HETATM    5  C   UNL     1      -8.056   8.396  67.165  1.00  0.00    -0.104 A  
HETATM    6  I   UNL     1      -7.046  12.301  70.066  1.00  0.00     1.966 I  
HETATM    7  C   UNL     1      -7.281  10.630  68.694  1.00  0.00    -0.090 A  
HETATM    8  C   UNL     1      -8.303   9.711  66.683  1.00  0.00    -0.123 A  
HETATM    9  I   UNL     1      -9.159   9.939  64.707  1.00  0.00    -0.313 I  
HETATM   10  C   UNL     1      -7.310   8.211  68.359  1.00  0.00    -0.094 A  
HETATM   11  C   UNL     1      -6.926   9.324  69.139  1.00  0.00    -0.058 A  
HETATM   12  C   UNL     1      -7.921  10.842  67.445  1.00  0.00    -0.113 A  
HETATM   13  I   UNL     1      -6.731   6.179  68.904  1.00  0.00    -0.066 I  
BRANCH  12  14
HETATM   14  C   UNL     1      -8.282  12.215  66.965  1.00  0.00    -0.164 C  
HETATM   15  N   UNL     1      -7.408  13.246  67.253  1.00  0.00    -0.346 N  
HETATM   16  O   UNL     1      -9.329  12.394  66.352  1.00  0.00    -0.232 OA 
HETATM   17  H   UNL     1      -6.555  13.042  67.775  1.00  0.00     0.000 HD 
BRANCH  15  18
HETATM   18  C   UNL     1      -7.674  14.618  66.829  1.00  0.00     0.423 C  
BRANCH  18  19
HETATM   19  C   UNL     1      -7.738  15.591  68.016  1.00  0.00    -0.127 C  
HETATM   20  H   UNL     1      -7.192  17.448  68.367  1.00  0.00     0.000 HD 
HETATM   21  O   UNL     1      -7.153  16.846  67.633  1.00  0.00    -0.133 OA 
BRANCH  19  22
HETATM   22  C   UNL     1      -9.183  15.797  68.503  1.00  0.00    -0.198 C  
HETATM   23  O   UNL     1      -9.614  14.729  69.345  1.00  0.00    -0.378 OA 
HETATM   24  H   UNL     1     -10.505  14.856  69.645  1.00  0.00     0.000 HD 
ENDBRANCH  19  22
ENDBRANCH  18  19
ENDBRANCH  15  18
ENDBRANCH  12  14
BRANCH  11  25
HETATM   25  C   UNL     1      -6.085   9.156  70.355  1.00  0.00    -0.043 C  
HETATM   26  O   UNL     1      -5.213   9.982  70.607  1.00  0.00    -0.038 OA 
HETATM   27  H   UNL     1      -7.083   7.416  70.910  1.00  0.00     0.000 HD 
HETATM   28  N   UNL     1      -6.320   8.048  71.151  1.00  0.00    -0.034 N  
BRANCH  28  29
HETATM   29  C   UNL     1      -5.509   7.760  72.320  1.00  0.00    -0.036 C  
BRANCH  29  30
HETATM   30  C   UNL     1      -6.166   8.318  73.574  1.00  0.00    -0.104 C  
HETATM   31  O   UNL     1      -6.135   9.746  73.532  1.00  0.00    -0.127 OA 
HETATM   32  H   UNL     1      -6.545  10.094  74.315  1.00  0.00     0.000 HD 
ENDBRANCH  29  30
ENDBRANCH  28  29
ENDBRANCH  11  25
ENDBRANCH   3   5
BRANCH   3  33
HETATM   33  C   UNL     1      -8.093   7.109  65.007  1.00  0.00    -0.119 C  
BRANCH  33  34
HETATM   34  C   UNL     1      -6.851   6.231  64.691  1.00  0.00    -0.047 C  
HETATM   35  O   UNL     1      -5.857   6.299  65.723  1.00  0.00    -0.023 OA 
HETATM   36  H   UNL     1      -5.098   5.762  65.530  1.00  0.00     0.000 HD 
BRANCH  34  37
HETATM   37  C   UNL     1      -7.215   4.749  64.488  1.00  0.00    -0.062 C  
HETATM   38  H   UNL     1      -8.456   3.685  63.369  1.00  0.00     0.000 HD 
HETATM   39  O   UNL     1      -8.231   4.600  63.494  1.00  0.00    -0.094 OA 
ENDBRANCH  34  37
ENDBRANCH  33  34
ENDBRANCH   3  33
TORSDOF 11
ENDMDL
MODEL      188
REMARK 921   NORMALIZED FREE ENERGY PREDICTED BY IDOCK:    3.51 KCAL/MOL
REMARK 922        TOTAL FREE ENERGY PREDICTED BY IDOCK:    5.16 KCAL/MOL
REMARK 923 INTER-LIGAND FREE ENERGY PREDICTED BY IDOCK:    0.03 KCAL/MOL
REMARK 924 INTRA-LIGAND FREE ENERGY PREDICTED BY IDOCK:    5.13 KCAL/MOL
REMARK 927      BINDING AFFINITY PREDICTED BY RF-SCORE:    0.00 PKD
ROOT
HETATM    1  C   UNL     1     -11.770   5.234  65.097  1.00  0.00     2.228 C  
HETATM    2  C   UNL     1     -10.895   5.511  66.288  1.00  0.00    -0.057 C  
HETATM    3  N   UNL     1      -9.523   5.658  66.067  1.00  0.00    -0.143 N  
HETATM    4  O   UNL     1     -11.408   5.635  67.403  1.00  0.00     0.304 OA 
ENDROOT
BRANCH   3   5
HETATM    5  C   UNL     1      -8.735   5.893  67.241  1.00  0.00    -0.108 A  
HETATM    6  I   UNL     1      -6.544   6.687  71.628  1.00  0.00    -0.055 I  
HETATM    7  C   UNL     1      -7.288   6.310  69.620  1.00  0.00    -0.080 A  
HETATM    8  C   UNL     1      -8.215   7.181  67.542  1.00  0.00    -0.117 A  
HETATM    9  I   UNL     1      -8.451   8.756  66.074  1.00  0.00    -0.191 I  
HETATM   10  C   UNL     1      -8.421   4.791  68.080  1.00  0.00    -0.102 A  
HETATM   11  C   UNL     1      -7.705   4.991  69.281  1.00  0.00    -0.075 A  
HETATM   12  C   UNL     1      -7.488   7.404  68.738  1.00  0.00    -0.101 A  
HETATM   13  I   UNL     1      -9.018   2.797  67.424  1.00  0.00    -0.188 I  
BRANCH  12  14
HETATM   14  C   UNL     1      -7.038   8.791  69.083  1.00  0.00    -0.063 C  
HETATM   15  N   UNL     1      -7.990   9.792  69.089  1.00  0.00    -0.097 N  
HETATM   16  O   UNL     1      -5.857   9.007  69.336  1.00  0.00    -0.034 OA 
HETATM   17  H   UNL     1      -8.957   9.559  68.862  1.00  0.00     0.000 HD 
BRANCH  15  18
HETATM   18  C   UNL     1      -7.647  11.175  69.412  1.00  0.00    -0.008 C  
BRANCH  18  19
HETATM   19  C   UNL     1      -7.360  12.011  68.155  1.00  0.00    -0.094 C  
HETATM   20  H   UNL     1      -7.935  13.750  67.440  1.00  0.00     0.000 HD 
HETATM   21  O   UNL     1      -8.112  13.233  68.217  1.00  0.00    -0.145 OA 
BRANCH  19  22
HETATM   22  C   UNL     1      -5.858  12.309  68.004  1.00  0.00    -0.064 C  
HETATM   23  O   UNL     1      -5.385  13.174  69.034  1.00  0.00    -0.068 OA 
HETATM   24  H   UNL     1      -4.458  13.357  68.940  1.00  0.00     0.000 HD 
ENDBRANCH  19  22
ENDBRANCH  18  19
ENDBRANCH  15  18
ENDBRANCH  12  14
BRANCH  11  25
HETATM   25  C   UNL     1      -7.305   3.842  70.138  1.00  0.00    -0.042 C  
HETATM   26  O   UNL     1      -6.208   3.317  69.973  1.00  0.00    -0.026 OA 
HETATM   27  H   UNL     1      -9.094   3.901  71.199  1.00  0.00     0.000 HD 
HETATM   28  N   UNL     1      -8.213   3.401  71.086  1.00  0.00    -0.065 N  
BRANCH  28  29
HETATM   29  C   UNL     1      -7.944   2.246  71.922  1.00  0.00    -0.048 C  
BRANCH  29  30
HETATM   30  C   UNL     1      -9.210   1.803  72.641  1.00  0.00    -0.073 C  
HETATM   31  O   UNL     1     -10.326   2.540  72.137  1.00  0.00    -0.139 OA 
HETATM   32  H   UNL     1     -11.116   2.263  72.586  1.00  0.00     0.000 HD 
ENDBRANCH  29  30
ENDBRANCH  28  29
ENDBRANCH  11  25
ENDBRANCH   3   5
BRANCH   3  33
HETATM   33  C   UNL     1      -8.820   5.398  64.778  1.00  0.00    -0.020 C  
BRANCH  33  34
HETATM   34  C   UNL     1      -9.182   4.088  64.026  1.00  0.00    -0.146 C  
HETATM   35  O   UNL     1      -8.666   2.921  64.681  1.00  0.00    -0.098 OA 
HETATM   36  H   UNL     1      -8.888   2.120  64.221  1.00  0.00     0.000 HD 
BRANCH  34  37
HETATM   37  C   UNL     1     -10.702   3.903  63.868  1.00  0.00    -0.194 C  
HETATM   38  H   UNL     1     -12.031   2.448  64.074  1.00  0.00     0.000 HD 
HETATM   39  O   UNL     1     -11.093   2.562  64.172  1.00  0.00     0.134 OA 
ENDBRANCH  34  37
ENDBRANCH  33  34
ENDBRANCH   3  33
TORSDOF 11
ENDMDL
MODEL      189
REMARK 921   NORMALIZED FREE ENERGY PREDICTED BY IDOCK:    3.95 KCAL/MOL
REMARK 922        TOTAL FREE ENERGY PREDICTED BY IDOCK:    5.88 KCAL/MOL
REMARK 923 INTER-LIGAND FREE ENERGY PREDICTED BY IDOCK:    3.96 KCAL/MOL
REMARK 924 INTRA-LIGAND FREE ENERGY PREDICTED BY IDOCK:    1.92 KCAL/MOL
REMARK 927      BINDING AFFINITY PREDICTED BY RF-SCORE:    0.00 PKD
ROOT
HETATM    1  C   UNL     1     -11.303   7.788  66.193  1.00  0.00     3.514 C  
HETATM    2  C   UNL     1     -10.565   8.335  67.383  1.00  0.00    -0.253 C  
HETATM    3  N   UNL     1      -9.177   8.174  67.419  1.00  0.00    -0.136 N  
HETATM    4  O   UNL     1     -11.188   8.933  68.263  1.00  0.00     0.169 OA 
ENDROOT
BRANCH   3   5
HETATM    5  C   UNL     1      -8.529   8.689  68.589  1.00  0.00    -0.130 A  
HETATM    6  I   UNL     1      -5.749  10.417  72.325  1.00  0.00     1.167 I  
HETATM    7  C   UNL     1      -7.152   9.730  70.813  1.00  0.00    -0.024 A  
HETATM    8  C   UNL     1      -8.323   7.882  69.741  1.00  0.00    -0.127 A  
HETATM    9  I   UNL     1      -9.202   5.904  69.784  1.00  0.00    -0.186 I  
HETATM   10  C   UNL     1      -8.149  10.057  68.607  1.00  0.00    -0.102 A  
HETATM   11  C   UNL     1      -7.448  10.586  69.714  1.00  0.00    -0.127 A  
HETATM   12  C   UNL     1      -7.628   8.394  70.865  1.00  0.00    -0.079 A  
HETATM   13  I   UNL     1      -8.734  11.310  66.920  1.00  0.00    -0.173 I  
BRANCH  12  14
HETATM   14  C   UNL     1      -7.333   7.494  72.027  1.00  0.00    -0.069 C  
HETATM   15  N   UNL     1      -6.835   6.235  71.752  1.00  0.00    -0.063 N  
HETATM   16  O   UNL     1      -7.547   7.880  73.171  1.00  0.00    -0.110 OA 
HETATM   17  H   UNL     1      -6.685   5.961  70.780  1.00  0.00     0.000 HD 
BRANCH  15  18
HETATM   18  C   UNL     1      -6.518   5.286  72.817  1.00  0.00    -0.060 C  
BRANCH  18  19
HETATM   19  C   UNL     1      -6.085   3.919  72.267  1.00  0.00    -0.009 C  
HETATM   20  H   UNL     1      -5.733   2.132  73.008  1.00  0.00     0.000 HD 
HETATM   21  O   UNL     1      -6.001   2.978  73.348  1.00  0.00    -0.007 OA 
BRANCH  19  22
HETATM   22  C   UNL     1      -7.052   3.411  71.183  1.00  0.00    -0.033 C  
HETATM   23  O   UNL     1      -6.398   2.553  70.251  1.00  0.00    -0.023 OA 
HETATM   24  H   UNL     1      -6.995   2.239  69.583  1.00  0.00     0.000 HD 
ENDBRANCH  19  22
ENDBRANCH  18  19
ENDBRANCH  15  18
ENDBRANCH  12  14
BRANCH  11  25
HETATM   25  C   UNL     1      -7.102  12.032  69.784  1.00  0.00     0.402 C  
HETATM   26  O   UNL     1      -7.979  12.853  70.036  1.00  0.00     1.798 OA 
HETATM   27  H   UNL     1      -5.096  11.660  69.373  1.00  0.00     0.000 HD 
HETATM   28  N   UNL     1      -5.787  12.391  69.541  1.00  0.00    -0.092 N  
BRANCH  28  29
HETATM   29  C   UNL     1      -5.365  13.779  69.519  1.00  0.00    -0.085 C  
BRANCH  29  30
HETATM   30  C   UNL     1      -5.311  14.296  68.088  1.00  0.00    -0.120 C  
HETATM   31  O   UNL     1      -6.501  13.908  67.398  1.00  0.00    -0.323 OA 
HETATM   32  H   UNL     1      -6.468  14.231  66.505  1.00  0.00     0.000 HD 
ENDBRANCH  29  30
ENDBRANCH  28  29
ENDBRANCH  11  25
ENDBRANCH   3   5
BRANCH   3  33
HETATM   33  C   UNL     1      -8.374   7.358  66.463  1.00  0.00    -0.124 C  
BRANCH  33  34
HETATM   34  C   UNL     1      -8.748   5.857  66.325  1.00  0.00    -0.136 C  
HETATM   35  O   UNL     1      -9.592   5.606  65.192  1.00  0.00    -0.351 OA 
HETATM   36  H   UNL     1      -9.821   4.688  65.108  1.00  0.00     0.000 HD 
BRANCH  34  37
HETATM   37  C   UNL     1      -7.510   4.952  66.196  1.00  0.00    -0.086 C  
HETATM   38  H   UNL     1      -6.341   3.889  67.391  1.00  0.00     0.000 HD 
HETATM   39  O   UNL     1      -7.105   4.447  67.471  1.00  0.00    -0.062 OA 
ENDBRANCH  34  37
ENDBRANCH  33  34
ENDBRANCH   3  33
TORSDOF 11
ENDMDL
MODEL      190
REMARK 921   NORMALIZED FREE ENERGY PREDICTED BY IDOCK:    5.31 KCAL/MOL
REMARK 922        TOTAL FREE ENERGY PREDICTED BY IDOCK:    8.11 KCAL/MOL
REMARK 923 INTER-LIGAND FREE ENERGY PREDICTED BY IDOCK:   -6.44 KCAL/MOL
REMARK 924 INTRA-LIGAND FREE ENERGY PREDICTED BY IDOCK:   14.55 KCAL/MOL
REMARK 927      BINDING AFFINITY PREDICTED BY RF-SCORE:    0.00 PKD
ROOT
HETATM    1  C   UNL     1      -7.849   5.277  70.917  1.00  0.00    -0.098 C  
HETATM    2  C   UNL     1      -8.097   6.063  69.660  1.00  0.00    -0.107 C  
HETATM    3  N   UNL     1      -8.804   7.264  69.772  1.00  0.00    -0.142 N  
HETATM    4  O   UNL     1      -7.646   5.653  68.588  1.00  0.00    -0.085 OA 
ENDROOT
BRANCH   3   5
HETATM    5  C   UNL     1      -9.034   7.957  68.538  1.00  0.00    -0.133 A  
HETATM    6  I   UNL     1      -9.239  10.555  64.309  1.00  0.00    -0.337 I  
HETATM    7  C   UNL     1      -9.356   9.327  66.100  1.00  0.00    -0.212 A  
HETATM    8  C   UNL     1      -9.784   9.164  68.492  1.00  0.00    -0.155 A  
HETATM    9  I   UNL     1     -10.767   9.835  70.301  1.00  0.00    -0.389 I  
HETATM   10  C   UNL     1      -8.552   7.379  67.335  1.00  0.00    -0.118 A  
HETATM   11  C   UNL     1      -8.698   8.063  66.107  1.00  0.00    -0.177 A  
HETATM   12  C   UNL     1      -9.950   9.864  67.272  1.00  0.00    -0.245 A  
HETATM   13  I   UNL     1      -7.647   5.396  67.437  1.00  0.00    -0.089 I  
BRANCH  12  14
HETATM   14  C   UNL     1     -10.656  11.186  67.266  1.00  0.00    -0.239 C  
HETATM   15  N   UNL     1      -9.887  12.323  67.122  1.00  0.00    -0.201 N  
HETATM   16  O   UNL     1     -11.875  11.229  67.398  1.00  0.00    -0.590 OA 
HETATM   17  H   UNL     1      -8.875  12.230  67.025  1.00  0.00     0.000 HD 
BRANCH  15  18
HETATM   18  C   UNL     1     -10.484  13.657  67.106  1.00  0.00    -0.264 C  
BRANCH  18  19
HETATM   19  C   UNL     1      -9.527  14.729  67.647  1.00  0.00    -0.204 C  
HETATM   20  H   UNL     1      -8.733  16.399  66.976  1.00  0.00     0.000 HD 
HETATM   21  O   UNL     1      -9.326  15.736  66.642  1.00  0.00    -0.224 OA 
BRANCH  19  22
HETATM   22  C   UNL     1     -10.059  15.362  68.944  1.00  0.00    -0.219 C  
HETATM   23  O   UNL     1     -11.438  15.061  69.151  1.00  0.00    -0.268 OA 
HETATM   24  H   UNL     1     -11.767  15.451  69.952  1.00  0.00     0.000 HD 
ENDBRANCH  19  22
ENDBRANCH  18  19
ENDBRANCH  15  18
ENDBRANCH  12  14
BRANCH  11  25
HETATM   25  C   UNL     1      -8.263   7.444  64.826  1.00  0.00    -0.057 C  
HETATM   26  O   UNL     1      -7.745   8.144  63.962  1.00  0.00    -0.122 OA 
HETATM   27  H   UNL     1      -8.883   5.552  65.430  1.00  0.00     0.000 HD 
HETATM   28  N   UNL     1      -8.481   6.087  64.660  1.00  0.00    -0.063 N  
BRANCH  28  29
HETATM   29  C   UNL     1      -8.154   5.406  63.422  1.00  0.00    -0.106 C  
BRANCH  29  30
HETATM   30  C   UNL     1      -8.937   4.105  63.307  1.00  0.00    -0.119 C  
HETATM   31  O   UNL     1     -10.337   4.393  63.291  1.00  0.00    -0.401 OA 
HETATM   32  H   UNL     1     -10.825   3.581  63.219  1.00  0.00     0.000 HD 
ENDBRANCH  29  30
ENDBRANCH  28  29
ENDBRANCH  11  25
ENDBRANCH   3   5
BRANCH   3  33
HETATM   33  C   UNL     1      -9.484   7.758  71.003  1.00  0.00    -0.155 C  
BRANCH  33  34
HETATM   34  C   UNL     1     -10.699   6.938  71.518  1.00  0.00    -0.223 C  
HETATM   35  O   UNL     1     -11.180   6.003  70.541  1.00  0.00    -0.323 OA 
HETATM   36  H   UNL     1     -11.923   5.501  70.855  1.00  0.00     0.000 HD 
BRANCH  34  37
HETATM   37  C   UNL     1     -10.376   6.150  72.800  1.00  0.00    -0.199 C  
HETATM   38  H   UNL     1      -9.411   6.455  74.503  1.00  0.00     0.000 HD 
HETATM   39  O   UNL     1      -9.611   6.942  73.712  1.00  0.00    -0.180 OA 
ENDBRANCH  34  37
ENDBRANCH  33  34
ENDBRANCH   3  33
TORSDOF 11
ENDMDL
MODEL      191
REMARK 921   NORMALIZED FREE ENERGY PREDICTED BY IDOCK:    5.50 KCAL/MOL
REMARK 922        TOTAL FREE ENERGY PREDICTED BY IDOCK:    8.43 KCAL/MOL
REMARK 923 INTER-LIGAND FREE ENERGY PREDICTED BY IDOCK:    0.74 KCAL/MOL
REMARK 924 INTRA-LIGAND FREE ENERGY PREDICTED BY IDOCK:    7.69 KCAL/MOL
REMARK 927      BINDING AFFINITY PREDICTED BY RF-SCORE:    0.00 PKD
ROOT
HETATM    1  C   UNL     1     -11.931   8.606  72.008  1.00  0.00    -0.442 C  
HETATM    2  C   UNL     1     -11.149   8.175  70.799  1.00  0.00    -0.259 C  
HETATM    3  N   UNL     1     -10.134   9.021  70.344  1.00  0.00    -0.194 N  
HETATM    4  O   UNL     1     -11.395   7.087  70.272  1.00  0.00    -0.285 OA 
ENDROOT
BRANCH   3   5
HETATM    5  C   UNL     1      -9.440   8.573  69.173  1.00  0.00    -0.154 A  
HETATM    6  I   UNL     1      -7.535   6.651  65.007  1.00  0.00    -0.109 I  
HETATM    7  C   UNL     1      -8.193   7.647  66.824  1.00  0.00    -0.124 A  
HETATM    8  C   UNL     1      -8.356   7.657  69.255  1.00  0.00    -0.134 A  
HETATM    9  I   UNL     1      -7.618   7.108  71.216  1.00  0.00    -0.081 I  
HETATM   10  C   UNL     1      -9.814   9.114  67.914  1.00  0.00    -0.169 A  
HETATM   11  C   UNL     1      -9.202   8.648  66.729  1.00  0.00    -0.211 A  
HETATM   12  C   UNL     1      -7.723   7.181  68.080  1.00  0.00    -0.117 A  
HETATM   13  I   UNL     1     -11.299  10.712  67.882  1.00  0.00     0.104 I  
BRANCH  12  14
HETATM   14  C   UNL     1      -6.651   6.139  68.186  1.00  0.00    -0.058 C  
HETATM   15  N   UNL     1      -6.965   4.854  67.792  1.00  0.00    -0.060 N  
HETATM   16  O   UNL     1      -5.545   6.441  68.624  1.00  0.00    -0.014 OA 
HETATM   17  H   UNL     1      -7.904   4.656  67.444  1.00  0.00     0.000 HD 
BRANCH  15  18
HETATM   18  C   UNL     1      -5.987   3.770  67.859  1.00  0.00    -0.027 C  
BRANCH  18  19
HETATM   19  C   UNL     1      -5.602   3.247  66.467  1.00  0.00    -0.021 C  
HETATM   20  H   UNL     1      -6.114   1.733  65.322  1.00  0.00     0.000 HD 
HETATM   21  O   UNL     1      -6.353   2.056  66.183  1.00  0.00    -0.023 OA 
BRANCH  19  22
HETATM   22  C   UNL     1      -5.841   4.308  65.378  1.00  0.00    -0.022 C  
HETATM   23  O   UNL     1      -6.830   3.888  64.440  1.00  0.00    -0.043 OA 
HETATM   24  H   UNL     1      -6.977   4.543  63.768  1.00  0.00     0.000 HD 
ENDBRANCH  19  22
ENDBRANCH  18  19
ENDBRANCH  15  18
ENDBRANCH  12  14
BRANCH  11  25
HETATM   25  C   UNL     1      -9.529   9.250  65.408  1.00  0.00    -0.210 C  
HETATM   26  O   UNL     1      -8.905   8.898  64.412  1.00  0.00    -0.136 OA 
HETATM   27  H   UNL     1     -11.036  10.431  66.223  1.00  0.00     0.000 HD 
HETATM   28  N   UNL     1     -10.529  10.207  65.367  1.00  0.00    -0.109 N  
BRANCH  28  29
HETATM   29  C   UNL     1     -10.873  10.901  64.141  1.00  0.00    -0.027 C  
BRANCH  29  30
HETATM   30  C   UNL     1     -10.858  12.407  64.358  1.00  0.00    -0.337 C  
HETATM   31  O   UNL     1      -9.528  12.899  64.182  1.00  0.00    -0.431 OA 
HETATM   32  H   UNL     1      -9.518  13.840  64.317  1.00  0.00     0.000 HD 
ENDBRANCH  29  30
ENDBRANCH  28  29
ENDBRANCH  11  25
ENDBRANCH   3   5
BRANCH   3  33
HETATM   33  C   UNL     1      -9.863  10.398  70.848  1.00  0.00     1.523 C  
BRANCH  33  34
HETATM   34  C   UNL     1      -8.416  10.939  70.687  1.00  0.00     3.097 C  
HETATM   35  O   UNL     1      -7.442  10.088  71.311  1.00  0.00    -0.149 OA 
HETATM   36  H   UNL     1      -6.557  10.418  71.213  1.00  0.00     0.000 HD 
BRANCH  34  37
HETATM   37  C   UNL     1      -8.012  11.108  69.211  1.00  0.00     0.025 C  
HETATM   38  H   UNL     1      -6.728  10.295  67.941  1.00  0.00     0.000 HD 
HETATM   39  O   UNL     1      -6.977  10.190  68.852  1.00  0.00    -0.059 OA 
ENDBRANCH  34  37
ENDBRANCH  33  34
ENDBRANCH   3  33
TORSDOF 11
ENDMDL
MODEL      192
REMARK 921   NORMALIZED FREE ENERGY PREDICTED BY IDOCK:    7.29 KCAL/MOL
REMARK 922        TOTAL FREE ENERGY PREDICTED BY IDOCK:   11.37 KCAL/MOL
REMARK 923 INTER-LIGAND FREE ENERGY PREDICTED BY IDOCK:   -2.95 KCAL/MOL
REMARK 924 INTRA-LIGAND FREE ENERGY PREDICTED BY IDOCK:   14.31 KCAL/MOL
REMARK 927      BINDING AFFINITY PREDICTED BY RF-SCORE:    0.00 PKD
ROOT
HETATM    1  C   UNL     1      -5.274   5.537  73.562  1.00  0.00    -0.022 C  
HETATM    2  C   UNL     1      -5.714   6.123  72.249  1.00  0.00    -0.036 C  
HETATM    3  N   UNL     1      -6.574   5.363  71.452  1.00  0.00    -0.039 N  
HETATM    4  O   UNL     1      -5.339   7.255  71.933  1.00  0.00    -0.035 OA 
ENDROOT
BRANCH   3   5
HETATM    5  C   UNL     1      -6.938   5.960  70.201  1.00  0.00    -0.069 A  
HETATM    6  I   UNL     1      -7.590   7.997  65.718  1.00  0.00    -0.096 I  
HETATM    7  C   UNL     1      -7.538   7.090  67.693  1.00  0.00    -0.110 A  
HETATM    8  C   UNL     1      -7.241   7.345  70.097  1.00  0.00    -0.070 A  
HETATM    9  I   UNL     1      -7.355   8.513  71.917  1.00  0.00    -0.005 I  
HETATM   10  C   UNL     1      -7.058   5.123  69.060  1.00  0.00    -0.057 A  
HETATM   11  C   UNL     1      -7.348   5.682  67.795  1.00  0.00    -0.077 A  
HETATM   12  C   UNL     1      -7.541   7.926  68.840  1.00  0.00    -0.100 A  
HETATM   13  I   UNL     1      -6.846   2.970  69.337  1.00  0.00    -0.037 I  
BRANCH  12  14
HETATM   14  C   UNL     1      -7.756   9.406  68.740  1.00  0.00    -0.080 C  
HETATM   15  N   UNL     1      -7.264  10.050  67.622  1.00  0.00    -0.087 N  
HETATM   16  O   UNL     1      -8.339  10.002  69.639  1.00  0.00    -0.156 OA 
HETATM   17  H   UNL     1      -6.778   9.507  66.909  1.00  0.00     0.000 HD 
BRANCH  15  18
HETATM   18  C   UNL     1      -7.424  11.491  67.435  1.00  0.00    -0.127 C  
BRANCH  18  19
HETATM   19  C   UNL     1      -7.707  12.220  68.757  1.00  0.00    -0.016 C  
HETATM   20  H   UNL     1      -6.908  12.277  70.553  1.00  0.00     0.000 HD 
HETATM   21  O   UNL     1      -6.733  11.826  69.735  1.00  0.00    -0.093 OA 
BRANCH  19  22
HETATM   22  C   UNL     1      -7.700  13.748  68.574  1.00  0.00    -0.138 C  
HETATM   23  O   UNL     1      -7.502  14.427  69.812  1.00  0.00    -0.372 OA 
HETATM   24  H   UNL     1      -7.497  15.370  69.699  1.00  0.00     0.000 HD 
ENDBRANCH  19  22
ENDBRANCH  18  19
ENDBRANCH  15  18
ENDBRANCH  12  14
BRANCH  11  25
HETATM   25  C   UNL     1      -7.546   4.817  66.601  1.00  0.00    -0.087 C  
HETATM   26  O   UNL     1      -6.899   5.035  65.581  1.00  0.00    -0.058 OA 
HETATM   27  H   UNL     1      -8.962   3.645  67.578  1.00  0.00     0.000 HD 
HETATM   28  N   UNL     1      -8.481   3.799  66.691  1.00  0.00    -0.104 N  
BRANCH  28  29
HETATM   29  C   UNL     1      -8.795   2.946  65.561  1.00  0.00    -0.131 C  
BRANCH  29  30
HETATM   30  C   UNL     1      -9.096   1.530  66.029  1.00  0.00    -0.046 C  
HETATM   31  O   UNL     1      -9.503   1.559  67.399  1.00  0.00    -0.337 OA 
HETATM   32  H   UNL     1      -9.691   0.675  67.692  1.00  0.00     0.000 HD 
ENDBRANCH  29  30
ENDBRANCH  28  29
ENDBRANCH  11  25
ENDBRANCH   3   5
BRANCH   3  33
HETATM   33  C   UNL     1      -6.966   3.947  71.706  1.00  0.00    -0.027 C  
BRANCH  33  34
HETATM   34  C   UNL     1      -7.800   3.661  72.985  1.00  0.00    -0.067 C  
HETATM   35  O   UNL     1      -6.975   3.470  74.144  1.00  0.00    -0.044 OA 
HETATM   36  H   UNL     1      -7.485   3.296  74.926  1.00  0.00     0.000 HD 
BRANCH  34  37
HETATM   37  C   UNL     1      -8.796   4.791  73.301  1.00  0.00    -0.107 C  
HETATM   38  H   UNL     1      -9.120   6.661  72.732  1.00  0.00     0.000 HD 
HETATM   39  O   UNL     1      -8.505   5.964  72.537  1.00  0.00    -0.117 OA 
ENDBRANCH  34  37
ENDBRANCH  33  34
ENDBRANCH   3  33
TORSDOF 11
ENDMDL
MODEL      193
REMARK 921   NORMALIZED FREE ENERGY PREDICTED BY IDOCK:    7.34 KCAL/MOL
REMARK 922        TOTAL FREE ENERGY PREDICTED BY IDOCK:   11.45 KCAL/MOL
REMARK 923 INTER-LIGAND FREE ENERGY PREDICTED BY IDOCK:   10.40 KCAL/MOL
REMARK 924 INTRA-LIGAND FREE ENERGY PREDICTED BY IDOCK:    1.05 KCAL/MOL
REMARK 927      BINDING AFFINITY PREDICTED BY RF-SCORE:    0.00 PKD
ROOT
HETATM    1  C   UNL     1     -11.444  15.427  63.416  1.00  0.00     2.044 C  
HETATM    2  C   UNL     1     -11.372  15.623  64.905  1.00  0.00    -0.315 C  
HETATM    3  N   UNL     1     -10.346  14.975  65.597  1.00  0.00    -0.325 N  
HETATM    4  O   UNL     1     -12.185  16.365  65.460  1.00  0.00     1.534 OA 
ENDROOT
BRANCH   3   5
HETATM    5  C   UNL     1     -10.343  15.175  67.017  1.00  0.00    -0.271 A  
HETATM    6  I   UNL     1      -9.808  15.521  71.943  1.00  0.00     6.077 I  
HETATM    7  C   UNL     1     -10.209  15.532  69.806  1.00  0.00    -0.294 A  
HETATM    8  C   UNL     1     -11.226  14.460  67.870  1.00  0.00    -0.286 A  
HETATM    9  I   UNL     1     -12.744  13.208  66.965  1.00  0.00     2.458 I  
HETATM   10  C   UNL     1      -9.477  16.159  67.562  1.00  0.00    -0.223 A  
HETATM   11  C   UNL     1      -9.394  16.339  68.961  1.00  0.00    -0.254 A  
HETATM   12  C   UNL     1     -11.166  14.628  69.276  1.00  0.00    -0.306 A  
HETATM   13  I   UNL     1      -8.343  17.410  66.180  1.00  0.00     0.097 I  
BRANCH  12  14
HETATM   14  C   UNL     1     -12.037  13.789  70.161  1.00  0.00    -0.359 C  
HETATM   15  N   UNL     1     -11.724  12.450  70.284  1.00  0.00    -0.546 N  
HETATM   16  O   UNL     1     -12.996  14.295  70.734  1.00  0.00    -0.344 OA 
HETATM   17  H   UNL     1     -10.920  12.079  69.777  1.00  0.00     0.000 HD 
BRANCH  15  18
HETATM   18  C   UNL     1     -12.514  11.551  71.123  1.00  0.00    -0.337 C  
BRANCH  18  19
HETATM   19  C   UNL     1     -13.046  10.342  70.339  1.00  0.00    -0.035 C  
HETATM   20  H   UNL     1     -12.287   8.963  69.160  1.00  0.00     0.000 HD 
HETATM   21  O   UNL     1     -11.958   9.711  69.645  1.00  0.00     0.141 OA 
BRANCH  19  22
HETATM   22  C   UNL     1     -13.753   9.335  71.262  1.00  0.00    -0.189 C  
HETATM   23  O   UNL     1     -13.682   9.732  72.630  1.00  0.00    -0.681 OA 
HETATM   24  H   UNL     1     -14.118   9.111  73.200  1.00  0.00     0.000 HD 
ENDBRANCH  19  22
ENDBRANCH  18  19
ENDBRANCH  15  18
ENDBRANCH  12  14
BRANCH  11  25
HETATM   25  C   UNL     1      -8.546  17.410  69.549  1.00  0.00     0.661 C  
HETATM   26  O   UNL     1      -7.874  17.171  70.548  1.00  0.00     2.671 OA 
HETATM   27  H   UNL     1      -9.117  18.781  68.091  1.00  0.00     0.000 HD 
HETATM   28  N   UNL     1      -8.567  18.654  68.940  1.00  0.00    -0.231 N  
BRANCH  28  29
HETATM   29  C   UNL     1      -7.828  19.781  69.478  1.00  0.00     0.177 C  
BRANCH  29  30
HETATM   30  C   UNL     1      -6.409  19.799  68.928  1.00  0.00    -0.295 C  
HETATM   31  O   UNL     1      -5.518  20.296  69.929  1.00  0.00    -0.238 OA 
HETATM   32  H   UNL     1      -4.632  20.307  69.585  1.00  0.00     0.000 HD 
ENDBRANCH  29  30
ENDBRANCH  28  29
ENDBRANCH  11  25
ENDBRANCH   3   5
BRANCH   3  33
HETATM   33  C   UNL     1      -9.409  13.969  65.019  1.00  0.00     1.002 C  
BRANCH  33  34
HETATM   34  C   UNL     1      -9.918  12.505  64.919  1.00  0.00    -0.167 C  
HETATM   35  O   UNL     1      -9.925  12.019  63.569  1.00  0.00    -0.434 OA 
HETATM   36  H   UNL     1     -10.235  11.123  63.508  1.00  0.00     0.000 HD 
BRANCH  34  37
HETATM   37  C   UNL     1      -9.075  11.531  65.763  1.00  0.00    -0.154 C  
HETATM   38  H   UNL     1      -8.363  11.429  67.609  1.00  0.00     0.000 HD 
HETATM   39  O   UNL     1      -8.884  12.030  67.088  1.00  0.00    -0.174 OA 
ENDBRANCH  34  37
ENDBRANCH  33  34
ENDBRANCH   3  33
TORSDOF 11
ENDMDL
MODEL      194
REMARK 921   NORMALIZED FREE ENERGY PREDICTED BY IDOCK:    7.90 KCAL/MOL
REMARK 922        TOTAL FREE ENERGY PREDICTED BY IDOCK:   12.37 KCAL/MOL
REMARK 923 INTER-LIGAND FREE ENERGY PREDICTED BY IDOCK:    7.42 KCAL/MOL
REMARK 924 INTRA-LIGAND FREE ENERGY PREDICTED BY IDOCK:    4.95 KCAL/MOL
REMARK 927      BINDING AFFINITY PREDICTED BY RF-SCORE:    0.00 PKD
ROOT
HETATM    1  C   UNL     1      -6.359  18.575  64.122  1.00  0.00     1.420 C  
HETATM    2  C   UNL     1      -6.704  17.347  64.918  1.00  0.00     2.802 C  
HETATM    3  N   UNL     1      -7.870  17.378  65.688  1.00  0.00     0.213 N  
HETATM    4  O   UNL     1      -5.982  16.351  64.843  1.00  0.00     4.546 OA 
ENDROOT
BRANCH   3   5
HETATM    5  C   UNL     1      -8.135  16.191  66.447  1.00  0.00    -0.270 A  
HETATM    6  I   UNL     1      -9.418  12.440  69.440  1.00  0.00     1.993 I  
HETATM    7  C   UNL     1      -8.762  13.921  67.989  1.00  0.00    -0.183 A  
HETATM    8  C   UNL     1      -7.180  15.662  67.356  1.00  0.00    -0.208 A  
HETATM    9  I   UNL     1      -5.210  16.560  67.420  1.00  0.00    -0.070 I  
HETATM   10  C   UNL     1      -9.358  15.504  66.228  1.00  0.00    -0.320 A  
HETATM   11  C   UNL     1      -9.687  14.371  67.004  1.00  0.00    -0.256 A  
HETATM   12  C   UNL     1      -7.485  14.521  68.140  1.00  0.00    -0.126 A  
HETATM   13  I   UNL     1     -10.663  16.213  64.629  1.00  0.00     1.077 I  
BRANCH  12  14
HETATM   14  C   UNL     1      -6.501  14.042  69.165  1.00  0.00    -0.113 C  
HETATM   15  N   UNL     1      -6.132  12.711  69.125  1.00  0.00    -0.085 N  
HETATM   16  O   UNL     1      -6.065  14.820  70.006  1.00  0.00    -0.127 OA 
HETATM   17  H   UNL     1      -6.533  12.106  68.409  1.00  0.00     0.000 HD 
BRANCH  15  18
HETATM   18  C   UNL     1      -5.181  12.151  70.082  1.00  0.00    -0.097 C  
BRANCH  18  19
HETATM   19  C   UNL     1      -5.652  10.801  70.646  1.00  0.00    -0.114 C  
HETATM   20  H   UNL     1      -6.503  10.168  72.301  1.00  0.00     0.000 HD 
HETATM   21  O   UNL     1      -6.213  11.002  71.953  1.00  0.00     0.586 OA 
BRANCH  19  22
HETATM   22  C   UNL     1      -6.676  10.126  69.717  1.00  0.00    -0.096 C  
HETATM   23  O   UNL     1      -6.560   8.704  69.749  1.00  0.00    -0.041 OA 
HETATM   24  H   UNL     1      -7.192   8.287  69.176  1.00  0.00     0.000 HD 
ENDBRANCH  19  22
ENDBRANCH  18  19
ENDBRANCH  15  18
ENDBRANCH  12  14
BRANCH  11  25
HETATM   25  C   UNL     1     -10.930  13.596  66.743  1.00  0.00    -0.292 C  
HETATM   26  O   UNL     1     -11.577  13.154  67.688  1.00  0.00    -0.306 OA 
HETATM   27  H   UNL     1     -10.738  13.815  64.682  1.00  0.00     0.000 HD 
HETATM   28  N   UNL     1     -11.297  13.392  65.423  1.00  0.00    -0.290 N  
BRANCH  28  29
HETATM   29  C   UNL     1     -12.453  12.593  65.066  1.00  0.00    -0.487 C  
BRANCH  29  30
HETATM   30  C   UNL     1     -12.396  12.201  63.596  1.00  0.00    -0.568 C  
HETATM   31  O   UNL     1     -12.455  13.379  62.788  1.00  0.00    -0.782 OA 
HETATM   32  H   UNL     1     -12.420  13.135  61.871  1.00  0.00     0.000 HD 
ENDBRANCH  29  30
ENDBRANCH  28  29
ENDBRANCH  11  25
ENDBRANCH   3   5
BRANCH   3  33
HETATM   33  C   UNL     1      -8.720  18.580  65.927  1.00  0.00     0.210 C  
BRANCH  33  34
HETATM   34  C   UNL     1      -8.001  19.956  65.974  1.00  0.00    -0.314 C  
HETATM   35  O   UNL     1      -8.894  21.048  65.708  1.00  0.00     0.348 OA 
HETATM   36  H   UNL     1      -8.455  21.890  65.737  1.00  0.00     0.000 HD 
BRANCH  34  37
HETATM   37  C   UNL     1      -7.329  20.222  67.333  1.00  0.00    -0.306 C  
HETATM   38  H   UNL     1      -7.737  19.938  69.251  1.00  0.00     0.000 HD 
HETATM   39  O   UNL     1      -8.152  19.774  68.412  1.00  0.00    -0.324 OA 
ENDBRANCH  34  37
ENDBRANCH  33  34
ENDBRANCH   3  33
TORSDOF 11
ENDMDL
MODEL      195
REMARK 921   NORMALIZED FREE ENERGY PREDICTED BY IDOCK:    8.56 KCAL/MOL
REMARK 922        TOTAL FREE ENERGY PREDICTED BY IDOCK:   13.45 KCAL/MOL
REMARK 923 INTER-LIGAND FREE ENERGY PREDICTED BY IDOCK:    2.38 KCAL/MOL
REMARK 924 INTRA-LIGAND FREE ENERGY PREDICTED BY IDOCK:   11.07 KCAL/MOL
REMARK 927      BINDING AFFINITY PREDICTED BY RF-SCORE:    0.00 PKD
ROOT
HETATM    1  C   UNL     1     -11.186   7.950  65.993  1.00  0.00     3.576 C  
HETATM    2  C   UNL     1     -10.275   8.975  66.609  1.00  0.00    -0.263 C  
HETATM    3  N   UNL     1      -9.515   8.589  67.716  1.00  0.00    -0.143 N  
HETATM    4  O   UNL     1     -10.197  10.099  66.107  1.00  0.00    -0.242 OA 
ENDROOT
BRANCH   3   5
HETATM    5  C   UNL     1      -8.686   9.614  68.279  1.00  0.00    -0.120 A  
HETATM    6  I   UNL     1      -6.253  13.222  70.674  1.00  0.00     0.824 I  
HETATM    7  C   UNL     1      -7.123  11.614  69.498  1.00  0.00     0.056 A  
HETATM    8  C   UNL     1      -8.620  10.914  67.708  1.00  0.00    -0.128 A  
HETATM    9  I   UNL     1      -9.636  11.266  65.828  1.00  0.00    -0.287 I  
HETATM   10  C   UNL     1      -7.868   9.290  69.393  1.00  0.00    -0.083 A  
HETATM   11  C   UNL     1      -7.089  10.288  70.019  1.00  0.00    -0.161 A  
HETATM   12  C   UNL     1      -7.840  11.930  68.314  1.00  0.00    -0.141 A  
HETATM   13  I   UNL     1      -7.808   7.212  70.055  1.00  0.00    -0.117 I  
BRANCH  12  14
HETATM   14  C   UNL     1      -7.867  13.319  67.753  1.00  0.00    -0.157 C  
HETATM   15  N   UNL     1      -8.901  14.148  68.142  1.00  0.00    -0.176 N  
HETATM   16  O   UNL     1      -6.997  13.680  66.967  1.00  0.00    -0.008 OA 
HETATM   17  H   UNL     1      -9.604  13.793  68.791  1.00  0.00     0.000 HD 
BRANCH  15  18
HETATM   18  C   UNL     1      -9.014  15.518  67.648  1.00  0.00    -0.184 C  
BRANCH  18  19
HETATM   19  C   UNL     1     -10.406  15.816  67.071  1.00  0.00    -0.292 C  
HETATM   20  H   UNL     1     -11.737  17.253  67.233  1.00  0.00     0.000 HD 
HETATM   21  O   UNL     1     -10.876  17.069  67.590  1.00  0.00    -0.331 OA 
BRANCH  19  22
HETATM   22  C   UNL     1     -10.387  15.842  65.532  1.00  0.00    -0.404 C  
HETATM   23  O   UNL     1     -10.335  14.527  64.982  1.00  0.00    -0.404 OA 
HETATM   24  H   UNL     1     -10.324  14.543  64.033  1.00  0.00     0.000 HD 
ENDBRANCH  19  22
ENDBRANCH  18  19
ENDBRANCH  15  18
ENDBRANCH  12  14
BRANCH  11  25
HETATM   25  C   UNL     1      -6.173   9.956  71.143  1.00  0.00     0.017 C  
HETATM   26  O   UNL     1      -5.130   9.350  70.915  1.00  0.00    -0.027 OA 
HETATM   27  H   UNL     1      -7.416  10.869  72.540  1.00  0.00     0.000 HD 
HETATM   28  N   UNL     1      -6.555  10.337  72.418  1.00  0.00     1.820 N  
BRANCH  28  29
HETATM   29  C   UNL     1      -5.763   9.998  73.586  1.00  0.00     0.571 C  
BRANCH  29  30
HETATM   30  C   UNL     1      -6.332   8.767  74.277  1.00  0.00    -0.084 C  
HETATM   31  O   UNL     1      -6.050   7.608  73.490  1.00  0.00    -0.058 OA 
HETATM   32  H   UNL     1      -6.405   6.840  73.921  1.00  0.00     0.000 HD 
ENDBRANCH  29  30
ENDBRANCH  28  29
ENDBRANCH  11  25
ENDBRANCH   3   5
BRANCH   3  33
HETATM   33  C   UNL     1      -9.647   7.298  68.450  1.00  0.00    -0.139 C  
BRANCH  33  34
HETATM   34  C   UNL     1     -11.048   6.953  69.027  1.00  0.00    -0.136 C  
HETATM   35  O   UNL     1     -11.034   5.752  69.813  1.00  0.00    -0.357 OA 
HETATM   36  H   UNL     1     -11.890   5.541  70.166  1.00  0.00     0.000 HD 
BRANCH  34  37
HETATM   37  C   UNL     1     -11.615   8.081  69.907  1.00  0.00     0.270 C  
HETATM   38  H   UNL     1     -12.527   8.257  71.657  1.00  0.00     0.000 HD 
HETATM   39  O   UNL     1     -12.176   7.561  71.114  1.00  0.00    -0.314 OA 
ENDBRANCH  34  37
ENDBRANCH  33  34
ENDBRANCH   3  33
TORSDOF 11
ENDMDL
MODEL      196
REMARK 921   NORMALIZED FREE ENERGY PREDICTED BY IDOCK:    8.98 KCAL/MOL
REMARK 922        TOTAL FREE ENERGY PREDICTED BY IDOCK:   14.15 KCAL/MOL
REMARK 923 INTER-LIGAND FREE ENERGY PREDICTED BY IDOCK:   -1.49 KCAL/MOL
REMARK 924 INTRA-LIGAND FREE ENERGY PREDICTED BY IDOCK:   15.64 KCAL/MOL
REMARK 927      BINDING AFFINITY PREDICTED BY RF-SCORE:    0.00 PKD
ROOT
HETATM    1  C   UNL     1     -11.727  10.939  65.781  1.00  0.00     1.180 C  
HETATM    2  C   UNL     1     -10.528  11.146  66.663  1.00  0.00    -0.250 C  
HETATM    3  N   UNL     1     -10.215  12.455  67.039  1.00  0.00    -0.219 N  
HETATM    4  O   UNL     1      -9.885  10.169  67.055  1.00  0.00    -0.176 OA 
ENDROOT
BRANCH   3   5
HETATM    5  C   UNL     1      -9.047  12.596  67.858  1.00  0.00    -0.200 A  
HETATM    6  I   UNL     1      -5.384  13.034  71.184  1.00  0.00    -0.028 I  
HETATM    7  C   UNL     1      -6.820  12.822  69.566  1.00  0.00     0.104 A  
HETATM    8  C   UNL     1      -8.420  13.857  68.049  1.00  0.00    -0.173 A  
HETATM    9  I   UNL     1      -9.137  15.548  66.901  1.00  0.00    -0.340 I  
HETATM   10  C   UNL     1      -8.475  11.429  68.431  1.00  0.00    -0.155 A  
HETATM   11  C   UNL     1      -7.365  11.533  69.298  1.00  0.00    -0.009 A  
HETATM   12  C   UNL     1      -7.301  13.984  68.909  1.00  0.00    -0.113 A  
HETATM   13  I   UNL     1      -9.320   9.494  67.882  1.00  0.00    -0.157 I  
BRANCH  12  14
HETATM   14  C   UNL     1      -6.721  15.340  69.175  1.00  0.00    -0.135 C  
HETATM   15  N   UNL     1      -7.553  16.297  69.723  1.00  0.00     0.166 N  
HETATM   16  O   UNL     1      -5.550  15.571  68.895  1.00  0.00    -0.100 OA 
HETATM   17  H   UNL     1      -8.523  16.054  69.927  1.00  0.00     0.000 HD 
BRANCH  15  18
HETATM   18  C   UNL     1      -7.079  17.648  70.017  1.00  0.00     0.952 C  
BRANCH  18  19
HETATM   19  C   UNL     1      -5.690  17.919  69.420  1.00  0.00    -0.221 C  
HETATM   20  H   UNL     1      -4.884  17.913  67.627  1.00  0.00     0.000 HD 
HETATM   21  O   UNL     1      -5.743  17.745  67.996  1.00  0.00    -0.148 OA 
BRANCH  19  22
HETATM   22  C   UNL     1      -5.188  19.330  69.774  1.00  0.00    -0.196 C  
HETATM   23  O   UNL     1      -6.260  20.265  69.863  1.00  0.00    -0.347 OA 
HETATM   24  H   UNL     1      -5.950  21.136  70.081  1.00  0.00     0.000 HD 
ENDBRANCH  19  22
ENDBRANCH  18  19
ENDBRANCH  15  18
ENDBRANCH  12  14
BRANCH  11  25
HETATM   25  C   UNL     1      -6.709  10.319  69.854  1.00  0.00    -0.125 C  
HETATM   26  O   UNL     1      -5.974   9.646  69.137  1.00  0.00    -0.035 OA 
HETATM   27  H   UNL     1      -7.565  10.608  71.728  1.00  0.00     0.000 HD 
HETATM   28  N   UNL     1      -6.975   9.990  71.172  1.00  0.00     0.292 N  
BRANCH  28  29
HETATM   29  C   UNL     1      -6.437   8.789  71.784  1.00  0.00    -0.073 C  
BRANCH  29  30
HETATM   30  C   UNL     1      -5.201   9.119  72.608  1.00  0.00    -0.072 C  
HETATM   31  O   UNL     1      -5.483  10.227  73.467  1.00  0.00    -0.313 OA 
HETATM   32  H   UNL     1      -4.711  10.432  73.981  1.00  0.00     0.000 HD 
ENDBRANCH  29  30
ENDBRANCH  28  29
ENDBRANCH  11  25
ENDBRANCH   3   5
BRANCH   3  33
HETATM   33  C   UNL     1     -10.864  13.688  66.508  1.00  0.00    -0.283 C  
BRANCH  33  34
HETATM   34  C   UNL     1     -11.747  14.503  67.492  1.00  0.00    -0.386 C  
HETATM   35  O   UNL     1     -13.073  14.718  66.987  1.00  0.00     0.687 OA 
HETATM   36  H   UNL     1     -13.613  15.216  67.589  1.00  0.00     0.000 HD 
BRANCH  34  37
HETATM   37  C   UNL     1     -11.874  13.825  68.868  1.00  0.00    -0.360 C  
HETATM   38  H   UNL     1     -11.460  14.252  70.757  1.00  0.00     0.000 HD 
HETATM   39  O   UNL     1     -11.382  14.672  69.908  1.00  0.00    -0.255 OA 
ENDBRANCH  34  37
ENDBRANCH  33  34
ENDBRANCH   3  33
TORSDOF 11
ENDMDL
MODEL      197
REMARK 921   NORMALIZED FREE ENERGY PREDICTED BY IDOCK:    9.29 KCAL/MOL
REMARK 922        TOTAL FREE ENERGY PREDICTED BY IDOCK:   14.66 KCAL/MOL
REMARK 923 INTER-LIGAND FREE ENERGY PREDICTED BY IDOCK:    0.84 KCAL/MOL
REMARK 924 INTRA-LIGAND FREE ENERGY PREDICTED BY IDOCK:   13.82 KCAL/MOL
REMARK 927      BINDING AFFINITY PREDICTED BY RF-SCORE:    0.00 PKD
ROOT
HETATM    1  C   UNL     1     -10.249   3.527  64.441  1.00  0.00    -0.172 C  
HETATM    2  C   UNL     1      -9.933   4.458  65.578  1.00  0.00    -0.230 C  
HETATM    3  N   UNL     1      -9.404   5.713  65.264  1.00  0.00     0.093 N  
HETATM    4  O   UNL     1     -10.178   4.110  66.736  1.00  0.00    -0.113 OA 
ENDROOT
BRANCH   3   5
HETATM    5  C   UNL     1      -9.096   6.548  66.388  1.00  0.00    -0.155 A  
HETATM    6  I   UNL     1      -8.578   9.726  70.171  1.00  0.00     0.104 I  
HETATM    7  C   UNL     1      -8.620   8.221  68.602  1.00  0.00    -0.133 A  
HETATM    8  C   UNL     1      -8.146   7.600  66.294  1.00  0.00    -0.112 A  
HETATM    9  I   UNL     1      -6.997   7.791  64.468  1.00  0.00    -0.068 I  
HETATM   10  C   UNL     1      -9.715   6.264  67.634  1.00  0.00    -0.119 A  
HETATM   11  C   UNL     1      -9.491   7.103  68.748  1.00  0.00    -0.141 A  
HETATM   12  C   UNL     1      -7.900   8.451  67.400  1.00  0.00    -0.099 A  
HETATM   13  I   UNL     1     -10.954   4.474  67.782  1.00  0.00     4.170 I  
BRANCH  12  14
HETATM   14  C   UNL     1      -6.970   9.616  67.247  1.00  0.00    -0.085 C  
HETATM   15  N   UNL     1      -7.531  10.874  67.134  1.00  0.00    -0.103 N  
HETATM   16  O   UNL     1      -5.758   9.432  67.212  1.00  0.00    -0.041 OA 
HETATM   17  H   UNL     1      -8.546  10.969  67.160  1.00  0.00     0.000 HD 
BRANCH  15  18
HETATM   18  C   UNL     1      -6.706  12.070  66.980  1.00  0.00    -0.099 C  
BRANCH  18  19
HETATM   19  C   UNL     1      -6.979  13.109  68.078  1.00  0.00    -0.116 C  
HETATM   20  H   UNL     1      -6.719  13.227  70.024  1.00  0.00     0.000 HD 
HETATM   21  O   UNL     1      -6.550  12.584  69.345  1.00  0.00    -0.112 OA 
BRANCH  19  22
HETATM   22  C   UNL     1      -6.274  14.445  67.782  1.00  0.00    -0.136 C  
HETATM   23  O   UNL     1      -5.129  14.633  68.611  1.00  0.00    -0.087 OA 
HETATM   24  H   UNL     1      -4.694  15.457  68.428  1.00  0.00     0.000 HD 
ENDBRANCH  19  22
ENDBRANCH  18  19
ENDBRANCH  15  18
ENDBRANCH  12  14
BRANCH  11  25
HETATM   25  C   UNL     1     -10.074   6.785  70.079  1.00  0.00    -0.184 C  
HETATM   26  O   UNL     1      -9.448   6.073  70.859  1.00  0.00    -0.165 OA 
HETATM   27  H   UNL     1     -11.778   7.917  69.700  1.00  0.00     0.000 HD 
HETATM   28  N   UNL     1     -11.324   7.302  70.375  1.00  0.00    -0.283 N  
BRANCH  28  29
HETATM   29  C   UNL     1     -12.005   6.992  71.618  1.00  0.00    -0.329 C  
BRANCH  29  30
HETATM   30  C   UNL     1     -11.972   8.191  72.556  1.00  0.00    -0.350 C  
HETATM   31  O   UNL     1     -13.300   8.687  72.740  1.00  0.00    -0.658 OA 
HETATM   32  H   UNL     1     -13.279   9.435  73.325  1.00  0.00     0.000 HD 
ENDBRANCH  29  30
ENDBRANCH  28  29
ENDBRANCH  11  25
ENDBRANCH   3   5
BRANCH   3  33
HETATM   33  C   UNL     1      -8.965   6.154  63.909  1.00  0.00     0.779 C  
BRANCH  33  34
HETATM   34  C   UNL     1      -7.694   5.481  63.323  1.00  0.00    -0.084 C  
HETATM   35  O   UNL     1      -6.751   5.114  64.341  1.00  0.00    -0.044 OA 
HETATM   36  H   UNL     1      -5.974   4.702  63.983  1.00  0.00     0.000 HD 
BRANCH  34  37
HETATM   37  C   UNL     1      -8.021   4.215  62.510  1.00  0.00    -0.066 C  
HETATM   38  H   UNL     1      -7.084   2.576  61.911  1.00  0.00     0.000 HD 
HETATM   39  O   UNL     1      -6.882   3.357  62.413  1.00  0.00    -0.026 OA 
ENDBRANCH  34  37
ENDBRANCH  33  34
ENDBRANCH   3  33
TORSDOF 11
ENDMDL
MODEL      198
REMARK 921   NORMALIZED FREE ENERGY PREDICTED BY IDOCK:    9.70 KCAL/MOL
REMARK 922        TOTAL FREE ENERGY PREDICTED BY IDOCK:   15.32 KCAL/MOL
REMARK 923 INTER-LIGAND FREE ENERGY PREDICTED BY IDOCK:    7.20 KCAL/MOL
REMARK 924 INTRA-LIGAND FREE ENERGY PREDICTED BY IDOCK:    8.12 KCAL/MOL
REMARK 927      BINDING AFFINITY PREDICTED BY RF-SCORE:    0.00 PKD
ROOT
HETATM    1  C   UNL     1     -10.747   7.074  68.887  1.00  0.00    -0.227 C  
HETATM    2  C   UNL     1     -11.241   8.472  68.640  1.00  0.00     0.523 C  
HETATM    3  N   UNL     1     -10.548   9.524  69.246  1.00  0.00    -0.216 N  
HETATM    4  O   UNL     1     -12.205   8.653  67.892  1.00  0.00     3.623 OA 
ENDROOT
BRANCH   3   5
HETATM    5  C   UNL     1     -11.080  10.832  68.999  1.00  0.00    -0.253 A  
HETATM    6  I   UNL     1     -12.324  15.560  68.119  1.00  0.00     1.525 I  
HETATM    7  C   UNL     1     -12.004  13.437  68.467  1.00  0.00    -0.328 A  
HETATM    8  C   UNL     1     -11.650  11.612  70.041  1.00  0.00    -0.255 A  
HETATM    9  I   UNL     1     -11.905  10.700  71.989  1.00  0.00     2.779 I  
HETATM   10  C   UNL     1     -11.087  11.320  67.665  1.00  0.00    -0.277 A  
HETATM   11  C   UNL     1     -11.539  12.630  67.389  1.00  0.00    -0.421 A  
HETATM   12  C   UNL     1     -12.116  12.926  69.786  1.00  0.00    -0.312 A  
HETATM   13  I   UNL     1     -10.447   9.972  66.073  1.00  0.00     0.229 I  
BRANCH  12  14
HETATM   14  C   UNL     1     -12.620  13.766  70.920  1.00  0.00    -0.356 C  
HETATM   15  N   UNL     1     -13.433  14.839  70.611  1.00  0.00    -0.587 N  
HETATM   16  O   UNL     1     -12.296  13.499  72.072  1.00  0.00    -0.028 OA 
HETATM   17  H   UNL     1     -13.664  15.022  69.634  1.00  0.00     0.000 HD 
BRANCH  15  18
HETATM   18  C   UNL     1     -13.972  15.717  71.647  1.00  0.00    -0.302 C  
BRANCH  18  19
HETATM   19  C   UNL     1     -12.868  16.483  72.391  1.00  0.00     0.577 C  
HETATM   20  H   UNL     1     -11.972  16.354  74.136  1.00  0.00     0.000 HD 
HETATM   21  O   UNL     1     -12.655  15.879  73.676  1.00  0.00    -0.478 OA 
BRANCH  19  22
HETATM   22  C   UNL     1     -11.558  16.514  71.585  1.00  0.00    -0.125 C  
HETATM   23  O   UNL     1     -11.780  16.899  70.230  1.00  0.00    -0.036 OA 
HETATM   24  H   UNL     1     -10.972  16.918  69.732  1.00  0.00     0.000 HD 
ENDBRANCH  19  22
ENDBRANCH  18  19
ENDBRANCH  15  18
ENDBRANCH  12  14
BRANCH  11  25
HETATM   25  C   UNL     1     -11.621  13.135  65.993  1.00  0.00    -0.353 C  
HETATM   26  O   UNL     1     -12.626  13.735  65.624  1.00  0.00    -0.491 OA 
HETATM   27  H   UNL     1      -9.724  12.415  65.529  1.00  0.00     0.000 HD 
HETATM   28  N   UNL     1     -10.547  12.887  65.154  1.00  0.00    -0.294 N  
BRANCH  28  29
HETATM   29  C   UNL     1     -10.560  13.280  63.758  1.00  0.00     0.145 C  
BRANCH  29  30
HETATM   30  C   UNL     1      -9.621  12.397  62.948  1.00  0.00     1.362 C  
HETATM   31  O   UNL     1      -8.321  12.413  63.543  1.00  0.00     1.282 OA 
HETATM   32  H   UNL     1      -7.735  11.863  63.038  1.00  0.00     0.000 HD 
ENDBRANCH  29  30
ENDBRANCH  28  29
ENDBRANCH  11  25
ENDBRANCH   3   5
BRANCH   3  33
HETATM   33  C   UNL     1      -9.461   9.377  70.256  1.00  0.00    -0.251 C  
BRANCH  33  34
HETATM   34  C   UNL     1      -8.419  10.526  70.346  1.00  0.00     1.217 C  
HETATM   35  O   UNL     1      -7.314  10.196  71.200  1.00  0.00    -0.243 OA 
HETATM   36  H   UNL     1      -6.677  10.898  71.256  1.00  0.00     0.000 HD 
BRANCH  34  37
HETATM   37  C   UNL     1      -7.848  10.911  68.970  1.00  0.00    -0.138 C  
HETATM   38  H   UNL     1      -7.453  10.019  67.246  1.00  0.00     0.000 HD 
HETATM   39  O   UNL     1      -7.805   9.781  68.095  1.00  0.00    -0.085 OA 
ENDBRANCH  34  37
ENDBRANCH  33  34
ENDBRANCH   3  33
TORSDOF 11
ENDMDL
MODEL      199
REMARK 921   NORMALIZED FREE ENERGY PREDICTED BY IDOCK:    9.95 KCAL/MOL
REMARK 922        TOTAL FREE ENERGY PREDICTED BY IDOCK:   15.73 KCAL/MOL
REMARK 923 INTER-LIGAND FREE ENERGY PREDICTED BY IDOCK:   13.14 KCAL/MOL
REMARK 924 INTRA-LIGAND FREE ENERGY PREDICTED BY IDOCK:    2.59 KCAL/MOL
REMARK 927      BINDING AFFINITY PREDICTED BY RF-SCORE:    0.00 PKD
ROOT
HETATM    1  C   UNL     1     -11.532  16.754  67.034  1.00  0.00     0.709 C  
HETATM    2  C   UNL     1     -11.256  15.286  66.873  1.00  0.00    -0.256 C  
HETATM    3  N   UNL     1     -10.404  14.678  67.800  1.00  0.00    -0.236 N  
HETATM    4  O   UNL     1     -11.807  14.659  65.965  1.00  0.00    -0.352 OA 
ENDROOT
BRANCH   3   5
HETATM    5  C   UNL     1     -10.154  13.284  67.582  1.00  0.00    -0.229 A  
HETATM    6  I   UNL     1      -9.466   8.553  66.232  1.00  0.00    -0.204 I  
HETATM    7  C   UNL     1      -9.660  10.569  67.023  1.00  0.00    -0.173 A  
HETATM    8  C   UNL     1     -11.060  12.287  68.035  1.00  0.00    -0.239 A  
HETATM    9  I   UNL     1     -12.735  12.898  69.264  1.00  0.00     1.759 I  
HETATM   10  C   UNL     1      -8.939  12.902  66.954  1.00  0.00    -0.210 A  
HETATM   11  C   UNL     1      -8.686  11.544  66.659  1.00  0.00    -0.182 A  
HETATM   12  C   UNL     1     -10.824  10.917  67.757  1.00  0.00    -0.309 A  
HETATM   13  I   UNL     1      -7.470  14.457  66.525  1.00  0.00     3.062 I  
BRANCH  12  14
HETATM   14  C   UNL     1     -11.843   9.894  68.156  1.00  0.00     1.232 C  
HETATM   15  N   UNL     1     -12.398   9.999  69.416  1.00  0.00    -0.188 N  
HETATM   16  O   UNL     1     -12.146   8.996  67.377  1.00  0.00     3.201 OA 
HETATM   17  H   UNL     1     -12.102  10.760  70.028  1.00  0.00     0.000 HD 
BRANCH  15  18
HETATM   18  C   UNL     1     -13.398   9.048  69.896  1.00  0.00     2.469 C  
BRANCH  18  19
HETATM   19  C   UNL     1     -13.197   8.689  71.376  1.00  0.00    -0.236 C  
HETATM   20  H   UNL     1     -13.215   7.048  72.459  1.00  0.00     0.000 HD 
HETATM   21  O   UNL     1     -13.339   7.270  71.544  1.00  0.00    -0.379 OA 
BRANCH  19  22
HETATM   22  C   UNL     1     -11.825   9.158  71.891  1.00  0.00    -0.369 C  
HETATM   23  O   UNL     1     -10.777   8.819  70.985  1.00  0.00    -0.204 OA 
HETATM   24  H   UNL     1      -9.930   9.108  71.303  1.00  0.00     0.000 HD 
ENDBRANCH  19  22
ENDBRANCH  18  19
ENDBRANCH  15  18
ENDBRANCH  12  14
BRANCH  11  25
HETATM   25  C   UNL     1      -7.391  11.115  66.066  1.00  0.00     0.045 C  
HETATM   26  O   UNL     1      -7.217  11.217  64.855  1.00  0.00     0.448 OA 
HETATM   27  H   UNL     1      -6.622  10.571  67.922  1.00  0.00     0.000 HD 
HETATM   28  N   UNL     1      -6.432  10.596  66.920  1.00  0.00    -0.078 N  
BRANCH  28  29
HETATM   29  C   UNL     1      -5.165  10.088  66.429  1.00  0.00    -0.043 C  
BRANCH  29  30
HETATM   30  C   UNL     1      -5.139   8.568  66.495  1.00  0.00    -0.027 C  
HETATM   31  O   UNL     1      -5.440   8.145  67.827  1.00  0.00    -0.032 OA 
HETATM   32  H   UNL     1      -5.424   7.196  67.868  1.00  0.00     0.000 HD 
ENDBRANCH  29  30
ENDBRANCH  28  29
ENDBRANCH  11  25
ENDBRANCH   3   5
BRANCH   3  33
HETATM   33  C   UNL     1      -9.606  15.390  68.840  1.00  0.00    -0.220 C  
BRANCH  33  34
HETATM   34  C   UNL     1      -9.134  14.556  70.063  1.00  0.00     0.982 C  
HETATM   35  O   UNL     1      -8.274  15.303  70.934  1.00  0.00     0.942 OA 
HETATM   36  H   UNL     1      -7.985  14.794  71.682  1.00  0.00     0.000 HD 
BRANCH  34  37
HETATM   37  C   UNL     1     -10.311  14.031  70.905  1.00  0.00     2.754 C  
HETATM   38  H   UNL     1     -11.990  14.741  71.681  1.00  0.00     0.000 HD 
HETATM   39  O   UNL     1     -11.263  15.065  71.161  1.00  0.00    -0.297 OA 
ENDBRANCH  34  37
ENDBRANCH  33  34
ENDBRANCH   3  33
TORSDOF 11
ENDMDL
MODEL      200
REMARK 921   NORMALIZED FREE ENERGY PREDICTED BY IDOCK:   11.13 KCAL/MOL
REMARK 922        TOTAL FREE ENERGY PREDICTED BY IDOCK:   17.68 KCAL/MOL
REMARK 923 INTER-LIGAND FREE ENERGY PREDICTED BY IDOCK:    2.29 KCAL/MOL
REMARK 924 INTRA-LIGAND FREE ENERGY PREDICTED BY IDOCK:   15.38 KCAL/MOL
REMARK 927      BINDING AFFINITY PREDICTED BY RF-SCORE:    0.00 PKD
ROOT
HETATM    1  C   UNL     1      -6.370  15.457  70.554  1.00  0.00     0.122 C  
HETATM    2  C   UNL     1      -6.740  14.201  69.814  1.00  0.00    -0.065 C  
HETATM    3  N   UNL     1      -7.881  14.232  69.009  1.00  0.00    -0.091 N  
HETATM    4  O   UNL     1      -6.018  13.206  69.908  1.00  0.00    -0.121 OA 
ENDROOT
BRANCH   3   5
HETATM    5  C   UNL     1      -8.201  13.000  68.350  1.00  0.00    -0.123 A  
HETATM    6  I   UNL     1      -9.848   8.745  66.385  1.00  0.00    -0.168 I  
HETATM    7  C   UNL     1      -8.955  10.599  67.087  1.00  0.00    -0.136 A  
HETATM    8  C   UNL     1      -7.612  11.769  68.749  1.00  0.00    -0.104 A  
HETATM    9  I   UNL     1      -6.045  11.813  70.243  1.00  0.00     0.268 I  
HETATM   10  C   UNL     1      -9.077  13.035  67.233  1.00  0.00    -0.209 A  
HETATM   11  C   UNL     1      -9.470  11.835  66.599  1.00  0.00    -0.215 A  
HETATM   12  C   UNL     1      -7.986  10.554  68.123  1.00  0.00    -0.111 A  
HETATM   13  I   UNL     1      -9.734  14.982  66.502  1.00  0.00    -0.348 I  
BRANCH  12  14
HETATM   14  C   UNL     1      -7.429   9.258  68.629  1.00  0.00    -0.080 C  
HETATM   15  N   UNL     1      -8.304   8.376  69.233  1.00  0.00    -0.120 N  
HETATM   16  O   UNL     1      -6.232   9.017  68.510  1.00  0.00    -0.048 OA 
HETATM   17  H   UNL     1      -9.289   8.631  69.314  1.00  0.00     0.000 HD 
BRANCH  15  18
HETATM   18  C   UNL     1      -7.856   7.089  69.758  1.00  0.00    -0.115 C  
BRANCH  18  19
HETATM   19  C   UNL     1      -7.417   7.182  71.227  1.00  0.00    -0.080 C  
HETATM   20  H   UNL     1      -8.040   8.111  72.844  1.00  0.00     0.000 HD 
HETATM   21  O   UNL     1      -8.311   8.053  71.936  1.00  0.00    -0.111 OA 
BRANCH  19  22
HETATM   22  C   UNL     1      -7.374   5.796  71.894  1.00  0.00    -0.093 C  
HETATM   23  O   UNL     1      -6.343   4.977  71.345  1.00  0.00    -0.027 OA 
HETATM   24  H   UNL     1      -6.316   4.122  71.757  1.00  0.00     0.000 HD 
ENDBRANCH  19  22
ENDBRANCH  18  19
ENDBRANCH  15  18
ENDBRANCH  12  14
BRANCH  11  25
HETATM   25  C   UNL     1     -10.331  11.854  65.386  1.00  0.00    -0.267 C  
HETATM   26  O   UNL     1     -10.991  12.856  65.128  1.00  0.00    -0.280 OA 
HETATM   27  H   UNL     1      -9.763   9.926  64.847  1.00  0.00     0.000 HD 
HETATM   28  N   UNL     1     -10.361  10.714  64.600  1.00  0.00    -0.334 N  
BRANCH  28  29
HETATM   29  C   UNL     1     -11.221  10.610  63.436  1.00  0.00     1.345 C  
BRANCH  29  30
HETATM   30  C   UNL     1     -11.876  11.951  63.137  1.00  0.00    -0.168 C  
HETATM   31  O   UNL     1     -13.037  12.106  63.957  1.00  0.00    -0.723 OA 
HETATM   32  H   UNL     1     -13.446  12.942  63.770  1.00  0.00     0.000 HD 
ENDBRANCH  29  30
ENDBRANCH  28  29
ENDBRANCH  11  25
ENDBRANCH   3   5
BRANCH   3  33
HETATM   33  C   UNL     1      -8.867  15.349  68.945  1.00  0.00    -0.211 C  
BRANCH  33  34
HETATM   34  C   UNL     1     -10.224  15.138  69.671  1.00  0.00    -0.208 C  
HETATM   35  O   UNL     1     -10.720  13.799  69.525  1.00  0.00    -0.444 OA 
HETATM   36  H   UNL     1     -11.549  13.670  69.969  1.00  0.00     0.000 HD 
BRANCH  34  37
HETATM   37  C   UNL     1     -10.138  15.443  71.178  1.00  0.00     1.111 C  
HETATM   38  H   UNL     1      -9.460  14.558  72.816  1.00  0.00     0.000 HD 
HETATM   39  O   UNL     1      -9.513  14.370  71.886  1.00  0.00     4.448 OA 
ENDBRANCH  34  37
ENDBRANCH  33  34
ENDBRANCH   3  33
TORSDOF 11
ENDMDL
MODEL      201
REMARK 921   NORMALIZED FREE ENERGY PREDICTED BY IDOCK:   11.15 KCAL/MOL
REMARK 922        TOTAL FREE ENERGY PREDICTED BY IDOCK:   17.70 KCAL/MOL
REMARK 923 INTER-LIGAND FREE ENERGY PREDICTED BY IDOCK:    5.51 KCAL/MOL
REMARK 924 INTRA-LIGAND FREE ENERGY PREDICTED BY IDOCK:   12.20 KCAL/MOL
REMARK 927      BINDING AFFINITY PREDICTED BY RF-SCORE:    0.00 PKD
ROOT
HETATM    1  C   UNL     1      -9.326   6.307  64.353  1.00  0.00     1.351 C  
HETATM    2  C   UNL     1      -9.543   7.305  65.456  1.00  0.00     0.812 C  
HETATM    3  N   UNL     1      -9.990   6.824  66.690  1.00  0.00    -0.169 N  
HETATM    4  O   UNL     1      -9.290   8.496  65.257  1.00  0.00    -0.012 OA 
ENDROOT
BRANCH   3   5
HETATM    5  C   UNL     1     -10.206   7.823  67.696  1.00  0.00    -0.219 A  
HETATM    6  I   UNL     1     -11.481  10.971  71.320  1.00  0.00     2.130 I  
HETATM    7  C   UNL     1     -10.716   9.703  69.729  1.00  0.00    -0.245 A  
HETATM    8  C   UNL     1     -10.668   9.125  67.363  1.00  0.00    -0.177 A  
HETATM    9  I   UNL     1     -10.838   9.654  65.270  1.00  0.00     3.854 I  
HETATM   10  C   UNL     1      -9.885   7.510  69.043  1.00  0.00    -0.170 A  
HETATM   11  C   UNL     1     -10.147   8.442  70.072  1.00  0.00    -0.192 A  
HETATM   12  C   UNL     1     -10.932  10.079  68.377  1.00  0.00    -0.266 A  
HETATM   13  I   UNL     1      -8.927   5.594  69.454  1.00  0.00    -0.147 I  
BRANCH  12  14
HETATM   14  C   UNL     1     -11.515  11.409  68.011  1.00  0.00    -0.307 C  
HETATM   15  N   UNL     1     -11.479  12.409  68.963  1.00  0.00    -0.280 N  
HETATM   16  O   UNL     1     -12.013  11.575  66.902  1.00  0.00    -0.516 OA 
HETATM   17  H   UNL     1     -11.061  12.214  69.873  1.00  0.00     0.000 HD 
BRANCH  15  18
HETATM   18  C   UNL     1     -12.024  13.739  68.699  1.00  0.00    -0.366 C  
BRANCH  18  19
HETATM   19  C   UNL     1     -11.001  14.852  68.977  1.00  0.00    -0.245 C  
HETATM   20  H   UNL     1     -10.216  15.701  70.567  1.00  0.00     0.000 HD 
HETATM   21  O   UNL     1     -10.849  15.013  70.396  1.00  0.00    -0.229 OA 
BRANCH  19  22
HETATM   22  C   UNL     1      -9.643  14.549  68.320  1.00  0.00    -0.212 C  
HETATM   23  O   UNL     1      -9.536  15.145  67.028  1.00  0.00    -0.217 OA 
HETATM   24  H   UNL     1      -8.698  14.958  66.623  1.00  0.00     0.000 HD 
ENDBRANCH  19  22
ENDBRANCH  18  19
ENDBRANCH  15  18
ENDBRANCH  12  14
BRANCH  11  25
HETATM   25  C   UNL     1      -9.754   8.162  71.479  1.00  0.00    -0.176 C  
HETATM   26  O   UNL     1      -9.571   9.097  72.254  1.00  0.00    -0.210 OA 
HETATM   27  H   UNL     1      -9.797   6.104  71.173  1.00  0.00     0.000 HD 
HETATM   28  N   UNL     1      -9.595   6.838  71.852  1.00  0.00    -0.150 N  
BRANCH  28  29
HETATM   29  C   UNL     1      -9.149   6.466  73.181  1.00  0.00    -0.128 C  
BRANCH  29  30
HETATM   30  C   UNL     1      -7.838   7.162  73.517  1.00  0.00    -0.096 C  
HETATM   31  O   UNL     1      -7.173   6.444  74.559  1.00  0.00    -0.099 OA 
HETATM   32  H   UNL     1      -6.354   6.879  74.769  1.00  0.00     0.000 HD 
ENDBRANCH  29  30
ENDBRANCH  28  29
ENDBRANCH  11  25
ENDBRANCH   3   5
BRANCH   3  33
HETATM   33  C   UNL     1     -10.434   5.428  66.967  1.00  0.00    -0.257 C  
BRANCH  33  34
HETATM   34  C   UNL     1     -10.299   4.400  65.811  1.00  0.00    -0.217 C  
HETATM   35  O   UNL     1      -9.645   3.192  66.227  1.00  0.00    -0.378 OA 
HETATM   36  H   UNL     1      -9.562   2.563  65.520  1.00  0.00     0.000 HD 
BRANCH  34  37
HETATM   37  C   UNL     1     -11.661   4.011  65.208  1.00  0.00     2.113 C  
HETATM   38  H   UNL     1     -12.683   4.364  63.548  1.00  0.00     0.000 HD 
HETATM   39  O   UNL     1     -11.842   4.603  63.920  1.00  0.00     0.928 OA 
ENDBRANCH  34  37
ENDBRANCH  33  34
ENDBRANCH   3  33
TORSDOF 11
ENDMDL
MODEL      202
REMARK 921   NORMALIZED FREE ENERGY PREDICTED BY IDOCK:   11.21 KCAL/MOL
REMARK 922        TOTAL FREE ENERGY PREDICTED BY IDOCK:   17.81 KCAL/MOL
REMARK 923 INTER-LIGAND FREE ENERGY PREDICTED BY IDOCK:    8.95 KCAL/MOL
REMARK 924 INTRA-LIGAND FREE ENERGY PREDICTED BY IDOCK:    8.86 KCAL/MOL
REMARK 927      BINDING AFFINITY PREDICTED BY RF-SCORE:    0.00 PKD
ROOT
HETATM    1  C   UNL     1      -9.940  15.561  69.584  1.00  0.00    -0.287 C  
HETATM    2  C   UNL     1      -9.533  14.126  69.403  1.00  0.00     0.439 C  
HETATM    3  N   UNL     1      -9.339  13.664  68.098  1.00  0.00    -0.207 N  
HETATM    4  O   UNL     1      -9.349  13.416  70.395  1.00  0.00     3.536 OA 
ENDROOT
BRANCH   3   5
HETATM    5  C   UNL     1      -8.979  12.281  67.984  1.00  0.00    -0.190 A  
HETATM    6  I   UNL     1      -7.174   7.692  67.386  1.00  0.00    -0.091 I  
HETATM    7  C   UNL     1      -8.145   9.601  67.757  1.00  0.00    -0.113 A  
HETATM    8  C   UNL     1      -9.452  11.475  66.913  1.00  0.00    -0.182 A  
HETATM    9  I   UNL     1     -10.915  12.320  65.557  1.00  0.00    -0.381 I  
HETATM   10  C   UNL     1      -8.184  11.700  69.007  1.00  0.00     0.114 A  
HETATM   11  C   UNL     1      -7.751  10.360  68.897  1.00  0.00    -0.111 A  
HETATM   12  C   UNL     1      -9.037  10.127  66.786  1.00  0.00    -0.159 A  
HETATM   13  I   UNL     1      -7.715  12.913  70.759  1.00  0.00     7.576 I  
BRANCH  12  14
HETATM   14  C   UNL     1      -9.467   9.328  65.593  1.00  0.00    -0.256 C  
HETATM   15  N   UNL     1      -8.511   9.030  64.642  1.00  0.00    -0.173 N  
HETATM   16  O   UNL     1     -10.636   8.974  65.482  1.00  0.00     0.953 OA 
HETATM   17  H   UNL     1      -7.554   9.358  64.780  1.00  0.00     0.000 HD 
BRANCH  15  18
HETATM   18  C   UNL     1      -8.834   8.257  63.445  1.00  0.00     0.548 C  
BRANCH  18  19
HETATM   19  C   UNL     1      -7.577   7.730  62.737  1.00  0.00    -0.124 C  
HETATM   20  H   UNL     1      -5.882   8.488  62.089  1.00  0.00     0.000 HD 
HETATM   21  O   UNL     1      -6.660   8.815  62.527  1.00  0.00    -0.095 OA 
BRANCH  19  22
HETATM   22  C   UNL     1      -6.905   6.603  63.541  1.00  0.00    -0.049 C  
HETATM   23  O   UNL     1      -7.392   5.318  63.159  1.00  0.00    -0.046 OA 
HETATM   24  H   UNL     1      -6.977   4.623  63.656  1.00  0.00     0.000 HD 
ENDBRANCH  19  22
ENDBRANCH  18  19
ENDBRANCH  15  18
ENDBRANCH  12  14
BRANCH  11  25
HETATM   25  C   UNL     1      -6.976   9.711  69.989  1.00  0.00    -0.093 C  
HETATM   26  O   UNL     1      -5.838  10.098  70.236  1.00  0.00    -0.052 OA 
HETATM   27  H   UNL     1      -8.543   8.421  70.451  1.00  0.00     0.000 HD 
HETATM   28  N   UNL     1      -7.581   8.673  70.678  1.00  0.00    -0.071 N  
BRANCH  28  29
HETATM   29  C   UNL     1      -6.883   7.933  71.713  1.00  0.00    -0.062 C  
BRANCH  29  30
HETATM   30  C   UNL     1      -6.981   6.436  71.456  1.00  0.00    -0.076 C  
HETATM   31  O   UNL     1      -8.264   6.132  70.902  1.00  0.00    -0.121 OA 
HETATM   32  H   UNL     1      -8.325   5.198  70.742  1.00  0.00     0.000 HD 
ENDBRANCH  29  30
ENDBRANCH  28  29
ENDBRANCH  11  25
ENDBRANCH   3   5
BRANCH   3  33
HETATM   33  C   UNL     1      -9.662  14.420  66.854  1.00  0.00    -0.262 C  
BRANCH  33  34
HETATM   34  C   UNL     1      -8.745  15.622  66.498  1.00  0.00    -0.307 C  
HETATM   35  O   UNL     1      -9.472  16.855  66.404  1.00  0.00    -0.258 OA 
HETATM   36  H   UNL     1      -8.911  17.590  66.186  1.00  0.00     0.000 HD 
BRANCH  34  37
HETATM   37  C   UNL     1      -7.614  15.822  67.524  1.00  0.00    -0.168 C  
HETATM   38  H   UNL     1      -5.897  14.957  67.999  1.00  0.00     0.000 HD 
HETATM   39  O   UNL     1      -6.594  14.833  67.366  1.00  0.00    -0.280 OA 
ENDBRANCH  34  37
ENDBRANCH  33  34
ENDBRANCH   3  33
TORSDOF 11
ENDMDL
MODEL      203
REMARK 921   NORMALIZED FREE ENERGY PREDICTED BY IDOCK:   11.54 KCAL/MOL
REMARK 922        TOTAL FREE ENERGY PREDICTED BY IDOCK:   18.36 KCAL/MOL
REMARK 923 INTER-LIGAND FREE ENERGY PREDICTED BY IDOCK:    7.61 KCAL/MOL
REMARK 924 INTRA-LIGAND FREE ENERGY PREDICTED BY IDOCK:   10.74 KCAL/MOL
REMARK 927      BINDING AFFINITY PREDICTED BY RF-SCORE:    0.00 PKD
ROOT
HETATM    1  C   UNL     1      -9.057  14.954  65.143  1.00  0.00     1.475 C  
HETATM    2  C   UNL     1      -9.494  14.370  66.457  1.00  0.00    -0.289 C  
HETATM    3  N   UNL     1      -9.650  12.983  66.534  1.00  0.00    -0.258 N  
HETATM    4  O   UNL     1      -9.666  15.113  67.426  1.00  0.00    -0.208 OA 
ENDROOT
BRANCH   3   5
HETATM    5  C   UNL     1     -10.095  12.485  67.802  1.00  0.00    -0.218 A  
HETATM    6  I   UNL     1     -11.274  11.201  72.453  1.00  0.00    10.113 I  
HETATM    7  C   UNL     1     -10.930  11.620  70.348  1.00  0.00     0.989 A  
HETATM    8  C   UNL     1      -9.584  11.275  68.346  1.00  0.00    -0.195 A  
HETATM    9  I   UNL     1      -8.268  10.069  67.121  1.00  0.00    -0.117 I  
HETATM   10  C   UNL     1     -11.117  13.192  68.488  1.00  0.00    -0.266 A  
HETATM   11  C   UNL     1     -11.535  12.773  69.771  1.00  0.00    -0.199 A  
HETATM   12  C   UNL     1      -9.994  10.831  69.628  1.00  0.00    -0.005 A  
HETATM   13  I   UNL     1     -12.049  14.887  67.479  1.00  0.00     0.593 I  
BRANCH  12  14
HETATM   14  C   UNL     1      -9.366   9.608  70.224  1.00  0.00    -0.242 C  
HETATM   15  N   UNL     1      -9.680   9.300  71.534  1.00  0.00    -0.232 N  
HETATM   16  O   UNL     1      -8.594   8.928  69.557  1.00  0.00    -0.127 OA 
HETATM   17  H   UNL     1     -10.322   9.906  72.046  1.00  0.00     0.000 HD 
BRANCH  15  18
HETATM   18  C   UNL     1      -9.118   8.129  72.203  1.00  0.00    -0.186 C  
BRANCH  18  19
HETATM   19  C   UNL     1     -10.138   7.437  73.119  1.00  0.00    -0.291 C  
HETATM   20  H   UNL     1     -11.549   8.005  74.365  1.00  0.00     0.000 HD 
HETATM   21  O   UNL     1     -10.918   8.433  73.798  1.00  0.00     1.123 OA 
BRANCH  19  22
HETATM   22  C   UNL     1     -11.051   6.482  72.330  1.00  0.00    -0.263 C  
HETATM   23  O   UNL     1     -11.897   7.189  71.425  1.00  0.00    -0.275 OA 
HETATM   24  H   UNL     1     -12.461   6.600  70.938  1.00  0.00     0.000 HD 
ENDBRANCH  19  22
ENDBRANCH  18  19
ENDBRANCH  15  18
ENDBRANCH  12  14
BRANCH  11  25
HETATM   25  C   UNL     1     -12.651  13.458  70.477  1.00  0.00    -0.211 C  
HETATM   26  O   UNL     1     -13.141  14.474  69.992  1.00  0.00    -0.069 OA 
HETATM   27  H   UNL     1     -12.660  12.051  72.010  1.00  0.00     0.000 HD 
HETATM   28  N   UNL     1     -13.082  12.918  71.677  1.00  0.00    -0.380 N  
BRANCH  28  29
HETATM   29  C   UNL     1     -14.116  13.550  72.473  1.00  0.00    -0.356 C  
BRANCH  29  30
HETATM   30  C   UNL     1     -13.935  15.062  72.479  1.00  0.00    -0.452 C  
HETATM   31  O   UNL     1     -13.492  15.482  73.771  1.00  0.00    -0.617 OA 
HETATM   32  H   UNL     1     -13.379  16.425  73.775  1.00  0.00     0.000 HD 
ENDBRANCH  29  30
ENDBRANCH  28  29
ENDBRANCH  11  25
ENDBRANCH   3   5
BRANCH   3  33
HETATM   33  C   UNL     1      -9.584  12.038  65.381  1.00  0.00    -0.132 C  
BRANCH  33  34
HETATM   34  C   UNL     1     -10.927  11.438  64.882  1.00  0.00    -0.216 C  
HETATM   35  O   UNL     1     -12.060  12.223  65.282  1.00  0.00    -0.431 OA 
HETATM   36  H   UNL     1     -12.881  11.856  64.976  1.00  0.00     0.000 HD 
BRANCH  34  37
HETATM   37  C   UNL     1     -10.974  11.297  63.349  1.00  0.00    -0.171 C  
HETATM   38  H   UNL     1      -9.777  11.642  61.809  1.00  0.00     0.000 HD 
HETATM   39  O   UNL     1      -9.748  11.729  62.755  1.00  0.00    -0.273 OA 
ENDBRANCH  34  37
ENDBRANCH  33  34
ENDBRANCH   3  33
TORSDOF 11
ENDMDL
MODEL      204
REMARK 921   NORMALIZED FREE ENERGY PREDICTED BY IDOCK:   12.71 KCAL/MOL
REMARK 922        TOTAL FREE ENERGY PREDICTED BY IDOCK:   20.28 KCAL/MOL
REMARK 923 INTER-LIGAND FREE ENERGY PREDICTED BY IDOCK:    8.26 KCAL/MOL
REMARK 924 INTRA-LIGAND FREE ENERGY PREDICTED BY IDOCK:   12.02 KCAL/MOL
REMARK 927      BINDING AFFINITY PREDICTED BY RF-SCORE:    0.00 PKD
ROOT
HETATM    1  C   UNL     1     -12.841  12.815  63.068  1.00  0.00     0.424 C  
HETATM    2  C   UNL     1     -12.510  13.626  64.289  1.00  0.00    -0.248 C  
HETATM    3  N   UNL     1     -11.685  13.041  65.254  1.00  0.00    -0.336 N  
HETATM    4  O   UNL     1     -12.937  14.778  64.389  1.00  0.00    -0.436 OA 
ENDROOT
BRANCH   3   5
HETATM    5  C   UNL     1     -11.425  13.849  66.410  1.00  0.00    -0.344 A  
HETATM    6  I   UNL     1      -9.914  16.554  70.293  1.00  0.00     1.702 I  
HETATM    7  C   UNL     1     -10.790  15.453  68.635  1.00  0.00    -0.259 A  
HETATM    8  C   UNL     1     -11.589  13.338  67.726  1.00  0.00    -0.342 A  
HETATM    9  I   UNL     1     -12.455  11.368  67.966  1.00  0.00     3.291 I  
HETATM   10  C   UNL     1     -11.057  15.207  66.219  1.00  0.00    -0.309 A  
HETATM   11  C   UNL     1     -10.726  16.017  67.328  1.00  0.00    -0.295 A  
HETATM   12  C   UNL     1     -11.270  14.135  68.854  1.00  0.00    -0.294 A  
HETATM   13  I   UNL     1     -11.084  16.005  64.189  1.00  0.00     1.990 I  
BRANCH  12  14
HETATM   14  C   UNL     1     -11.353  13.542  70.228  1.00  0.00     0.201 C  
HETATM   15  N   UNL     1     -12.036  12.349  70.370  1.00  0.00    -0.514 N  
HETATM   16  O   UNL     1     -10.838  14.121  71.177  1.00  0.00     0.972 OA 
HETATM   17  H   UNL     1     -12.454  11.914  69.548  1.00  0.00     0.000 HD 
BRANCH  15  18
HETATM   18  C   UNL     1     -12.172  11.695  71.670  1.00  0.00     0.362 C  
BRANCH  18  19
HETATM   19  C   UNL     1     -11.945  10.178  71.583  1.00  0.00    -0.229 C  
HETATM   20  H   UNL     1     -11.904   8.823  70.158  1.00  0.00     0.000 HD 
HETATM   21  O   UNL     1     -12.044   9.761  70.212  1.00  0.00    -0.172 OA 
BRANCH  19  22
HETATM   22  C   UNL     1     -10.582   9.775  72.172  1.00  0.00     1.617 C  
HETATM   23  O   UNL     1      -9.587   9.642  71.159  1.00  0.00    -0.274 OA 
HETATM   24  H   UNL     1      -8.746   9.394  71.522  1.00  0.00     0.000 HD 
ENDBRANCH  19  22
ENDBRANCH  18  19
ENDBRANCH  15  18
ENDBRANCH  12  14
BRANCH  11  25
HETATM   25  C   UNL     1     -10.407  17.460  67.157  1.00  0.00    -0.325 C  
HETATM   26  O   UNL     1     -11.127  18.160  66.451  1.00  0.00     0.130 OA 
HETATM   27  H   UNL     1      -8.745  17.329  68.403  1.00  0.00     0.000 HD 
HETATM   28  N   UNL     1      -9.283  17.951  67.801  1.00  0.00    -0.255 N  
BRANCH  28  29
HETATM   29  C   UNL     1      -8.851  19.327  67.641  1.00  0.00    -0.299 C  
BRANCH  29  30
HETATM   30  C   UNL     1      -8.266  19.855  68.943  1.00  0.00    -0.030 C  
HETATM   31  O   UNL     1      -8.382  21.280  68.972  1.00  0.00     2.253 OA 
HETATM   32  H   UNL     1      -8.017  21.610  69.785  1.00  0.00     0.000 HD 
ENDBRANCH  29  30
ENDBRANCH  28  29
ENDBRANCH  11  25
ENDBRANCH   3   5
BRANCH   3  33
HETATM   33  C   UNL     1     -11.236  11.619  65.265  1.00  0.00    -0.199 C  
BRANCH  33  34
HETATM   34  C   UNL     1      -9.813  11.322  64.718  1.00  0.00    -0.266 C  
HETATM   35  O   UNL     1      -9.783  11.252  63.284  1.00  0.00    -0.310 OA 
HETATM   36  H   UNL     1      -8.913  11.070  62.950  1.00  0.00     0.000 HD 
BRANCH  34  37
HETATM   37  C   UNL     1      -8.782  12.377  65.157  1.00  0.00     1.272 C  
HETATM   38  H   UNL     1      -8.526  13.636  66.664  1.00  0.00     0.000 HD 
HETATM   39  O   UNL     1      -9.162  12.985  66.393  1.00  0.00    -0.222 OA 
ENDBRANCH  34  37
ENDBRANCH  33  34
ENDBRANCH   3  33
TORSDOF 11
ENDMDL
MODEL      205
REMARK 921   NORMALIZED FREE ENERGY PREDICTED BY IDOCK:   13.24 KCAL/MOL
REMARK 922        TOTAL FREE ENERGY PREDICTED BY IDOCK:   21.15 KCAL/MOL
REMARK 923 INTER-LIGAND FREE ENERGY PREDICTED BY IDOCK:   -0.41 KCAL/MOL
REMARK 924 INTRA-LIGAND FREE ENERGY PREDICTED BY IDOCK:   21.56 KCAL/MOL
REMARK 927      BINDING AFFINITY PREDICTED BY RF-SCORE:    0.00 PKD
ROOT
HETATM    1  C   UNL     1     -10.269  12.174  65.671  1.00  0.00    -0.285 C  
HETATM    2  C   UNL     1      -9.448  12.437  66.903  1.00  0.00    -0.219 C  
HETATM    3  N   UNL     1      -8.749  13.646  66.973  1.00  0.00    -0.215 N  
HETATM    4  O   UNL     1      -9.443  11.611  67.818  1.00  0.00    -0.170 OA 
ENDROOT
BRANCH   3   5
HETATM    5  C   UNL     1      -7.962  13.831  68.156  1.00  0.00    -0.150 A  
HETATM    6  I   UNL     1      -5.763  14.370  72.577  1.00  0.00     0.566 I  
HETATM    7  C   UNL     1      -6.510  14.135  70.549  1.00  0.00    -0.004 A  
HETATM    8  C   UNL     1      -7.560  15.125  68.586  1.00  0.00    -0.127 A  
HETATM    9  I   UNL     1      -7.976  16.815  67.297  1.00  0.00    -0.255 I  
HETATM   10  C   UNL     1      -7.527  12.683  68.868  1.00  0.00     0.018 A  
HETATM   11  C   UNL     1      -6.807  12.825  70.076  1.00  0.00     0.523 A  
HETATM   12  C   UNL     1      -6.832  15.291  69.790  1.00  0.00    -0.172 A  
HETATM   13  I   UNL     1      -7.946  10.721  68.011  1.00  0.00    -0.121 I  
BRANCH  12  14
HETATM   14  C   UNL     1      -6.508  16.671  70.276  1.00  0.00     0.439 C  
HETATM   15  N   UNL     1      -7.123  17.734  69.645  1.00  0.00     0.098 N  
HETATM   16  O   UNL     1      -5.711  16.825  71.196  1.00  0.00     0.169 OA 
HETATM   17  H   UNL     1      -7.771  17.549  68.878  1.00  0.00     0.000 HD 
BRANCH  15  18
HETATM   18  C   UNL     1      -6.870  19.116  70.046  1.00  0.00     0.159 C  
BRANCH  18  19
HETATM   19  C   UNL     1      -6.145  19.205  71.398  1.00  0.00     0.408 C  
HETATM   20  H   UNL     1      -4.800  18.146  72.364  1.00  0.00     0.000 HD 
HETATM   21  O   UNL     1      -5.248  18.091  71.529  1.00  0.00    -0.465 OA 
BRANCH  19  22
HETATM   22  C   UNL     1      -5.382  20.533  71.544  1.00  0.00    -0.247 C  
HETATM   23  O   UNL     1      -5.178  21.167  70.283  1.00  0.00    -0.544 OA 
HETATM   24  H   UNL     1      -4.707  21.987  70.374  1.00  0.00     0.000 HD 
ENDBRANCH  19  22
ENDBRANCH  18  19
ENDBRANCH  15  18
ENDBRANCH  12  14
BRANCH  11  25
HETATM   25  C   UNL     1      -6.282  11.636  70.801  1.00  0.00     0.434 C  
HETATM   26  O   UNL     1      -5.490  11.793  71.726  1.00  0.00    -0.358 OA 
HETATM   27  H   UNL     1      -7.394  10.323  69.630  1.00  0.00     0.000 HD 
HETATM   28  N   UNL     1      -6.707  10.387  70.381  1.00  0.00    -0.137 N  
BRANCH  28  29
HETATM   29  C   UNL     1      -6.200   9.166  70.979  1.00  0.00    -0.067 C  
BRANCH  29  30
HETATM   30  C   UNL     1      -7.277   8.499  71.823  1.00  0.00    -0.095 C  
HETATM   31  O   UNL     1      -6.736   8.161  73.102  1.00  0.00    -0.095 OA 
HETATM   32  H   UNL     1      -7.409   7.744  73.629  1.00  0.00     0.000 HD 
ENDBRANCH  29  30
ENDBRANCH  28  29
ENDBRANCH  11  25
ENDBRANCH   3   5
BRANCH   3  33
HETATM   33  C   UNL     1      -8.607  14.630  65.862  1.00  0.00     1.024 C  
BRANCH  33  34
HETATM   34  C   UNL     1      -9.863  15.466  65.491  1.00  0.00    -0.324 C  
HETATM   35  O   UNL     1      -9.955  15.717  64.081  1.00  0.00     0.544 OA 
HETATM   36  H   UNL     1     -10.723  16.228  63.854  1.00  0.00     0.000 HD 
BRANCH  34  37
HETATM   37  C   UNL     1     -11.172  14.786  65.932  1.00  0.00    -0.340 C  
HETATM   38  H   UNL     1     -12.837  14.126  65.087  1.00  0.00     0.000 HD 
HETATM   39  O   UNL     1     -12.029  14.545  64.815  1.00  0.00    -0.403 OA 
ENDBRANCH  34  37
ENDBRANCH  33  34
ENDBRANCH   3  33
TORSDOF 11
ENDMDL
MODEL      206
REMARK 921   NORMALIZED FREE ENERGY PREDICTED BY IDOCK:   14.01 KCAL/MOL
REMARK 922        TOTAL FREE ENERGY PREDICTED BY IDOCK:   22.41 KCAL/MOL
REMARK 923 INTER-LIGAND FREE ENERGY PREDICTED BY IDOCK:   16.55 KCAL/MOL
REMARK 924 INTRA-LIGAND FREE ENERGY PREDICTED BY IDOCK:    5.86 KCAL/MOL
REMARK 927      BINDING AFFINITY PREDICTED BY RF-SCORE:    0.00 PKD
ROOT
HETATM    1  C   UNL     1     -11.323  15.951  62.870  1.00  0.00     5.641 C  
HETATM    2  C   UNL     1     -11.535  15.762  64.346  1.00  0.00    -0.263 C  
HETATM    3  N   UNL     1     -10.520  15.139  65.076  1.00  0.00    -0.407 N  
HETATM    4  O   UNL     1     -12.567  16.188  64.872  1.00  0.00     0.893 OA 
ENDROOT
BRANCH   3   5
HETATM    5  C   UNL     1     -10.788  14.960  66.473  1.00  0.00    -0.322 A  
HETATM    6  I   UNL     1     -11.097  14.290  71.385  1.00  0.00     2.435 I  
HETATM    7  C   UNL     1     -11.189  14.639  69.241  1.00  0.00    -0.282 A  
HETATM    8  C   UNL     1     -11.289  13.732  66.982  1.00  0.00    -0.326 A  
HETATM    9  I   UNL     1     -11.852  12.185  65.575  1.00  0.00     0.045 I  
HETATM   10  C   UNL     1     -10.606  16.065  67.345  1.00  0.00    -0.316 A  
HETATM   11  C   UNL     1     -10.793  15.912  68.737  1.00  0.00    -0.284 A  
HETATM   12  C   UNL     1     -11.492  13.557  68.374  1.00  0.00    -0.346 A  
HETATM   13  I   UNL     1     -10.096  17.996  66.467  1.00  0.00    -0.354 I  
BRANCH  12  14
HETATM   14  C   UNL     1     -11.923  12.221  68.898  1.00  0.00    -0.248 C  
HETATM   15  N   UNL     1     -12.691  12.201  70.046  1.00  0.00     0.192 N  
HETATM   16  O   UNL     1     -11.582  11.196  68.318  1.00  0.00    -0.344 OA 
HETATM   17  H   UNL     1     -12.939  13.083  70.494  1.00  0.00     0.000 HD 
BRANCH  15  18
HETATM   18  C   UNL     1     -13.159  10.947  70.634  1.00  0.00    -0.068 C  
BRANCH  18  19
HETATM   19  C   UNL     1     -13.068  10.955  72.167  1.00  0.00    -0.220 C  
HETATM   20  H   UNL     1     -13.331  12.272  73.603  1.00  0.00     0.000 HD 
HETATM   21  O   UNL     1     -13.387  12.267  72.655  1.00  0.00    -0.250 OA 
BRANCH  19  22
HETATM   22  C   UNL     1     -14.000   9.904  72.795  1.00  0.00     0.519 C  
HETATM   23  O   UNL     1     -14.373   8.900  71.854  1.00  0.00    -0.368 OA 
HETATM   24  H   UNL     1     -14.949   8.251  72.242  1.00  0.00     0.000 HD 
ENDBRANCH  19  22
ENDBRANCH  18  19
ENDBRANCH  15  18
ENDBRANCH  12  14
BRANCH  11  25
HETATM   25  C   UNL     1     -10.675  17.073  69.660  1.00  0.00    -0.045 C  
HETATM   26  O   UNL     1     -10.561  16.877  70.866  1.00  0.00     0.626 OA 
HETATM   27  H   UNL     1     -10.777  18.439  68.094  1.00  0.00     0.000 HD 
HETATM   28  N   UNL     1     -10.717  18.342  69.107  1.00  0.00     0.367 N  
BRANCH  28  29
HETATM   29  C   UNL     1     -10.679  19.536  69.930  1.00  0.00     1.440 C  
BRANCH  29  30
HETATM   30  C   UNL     1      -9.342  19.644  70.650  1.00  0.00     1.689 C  
HETATM   31  O   UNL     1      -9.559  20.088  71.991  1.00  0.00     1.411 OA 
HETATM   32  H   UNL     1      -8.725  20.156  72.440  1.00  0.00     0.000 HD 
ENDBRANCH  29  30
ENDBRANCH  28  29
ENDBRANCH  11  25
ENDBRANCH   3   5
BRANCH   3  33
HETATM   33  C   UNL     1      -9.309  14.489  64.495  1.00  0.00     2.682 C  
BRANCH  33  34
HETATM   34  C   UNL     1      -9.338  12.942  64.349  1.00  0.00     0.906 C  
HETATM   35  O   UNL     1      -9.213  12.520  62.983  1.00  0.00    -0.117 OA 
HETATM   36  H   UNL     1      -9.230  11.575  62.893  1.00  0.00     0.000 HD 
BRANCH  34  37
HETATM   37  C   UNL     1      -8.222  12.255  65.156  1.00  0.00     2.120 C  
HETATM   38  H   UNL     1      -7.404  12.410  66.953  1.00  0.00     0.000 HD 
HETATM   39  O   UNL     1      -8.094  12.835  66.456  1.00  0.00     0.145 OA 
ENDBRANCH  34  37
ENDBRANCH  33  34
ENDBRANCH   3  33
TORSDOF 11
ENDMDL
MODEL      207
REMARK 921   NORMALIZED FREE ENERGY PREDICTED BY IDOCK:   21.14 KCAL/MOL
REMARK 922        TOTAL FREE ENERGY PREDICTED BY IDOCK:   34.13 KCAL/MOL
REMARK 923 INTER-LIGAND FREE ENERGY PREDICTED BY IDOCK:   21.22 KCAL/MOL
REMARK 924 INTRA-LIGAND FREE ENERGY PREDICTED BY IDOCK:   12.90 KCAL/MOL
REMARK 927      BINDING AFFINITY PREDICTED BY RF-SCORE:    0.00 PKD
ROOT
HETATM    1  C   UNL     1      -7.852  11.613  65.231  1.00  0.00     1.116 C  
HETATM    2  C   UNL     1      -8.304  12.815  66.011  1.00  0.00     0.996 C  
HETATM    3  N   UNL     1      -9.465  12.693  66.781  1.00  0.00    -0.231 N  
HETATM    4  O   UNL     1      -7.631  13.849  65.981  1.00  0.00     2.062 OA 
ENDROOT
BRANCH   3   5
HETATM    5  C   UNL     1      -9.864  13.879  67.481  1.00  0.00    -0.236 A  
HETATM    6  I   UNL     1     -11.835  17.839  69.740  1.00  0.00     7.175 I  
HETATM    7  C   UNL     1     -10.772  16.159  68.860  1.00  0.00    -0.280 A  
HETATM    8  C   UNL     1      -9.670  15.172  66.924  1.00  0.00    -0.239 A  
HETATM    9  I   UNL     1      -8.554  15.341  65.076  1.00  0.00     7.134 I  
HETATM   10  C   UNL     1     -10.405  13.745  68.787  1.00  0.00    -0.192 A  
HETATM   11  C   UNL     1     -10.874  14.882  69.483  1.00  0.00    -0.272 A  
HETATM   12  C   UNL     1     -10.126  16.327  67.607  1.00  0.00    -0.260 A  
HETATM   13  I   UNL     1     -10.427  11.761  69.693  1.00  0.00     1.111 I  
BRANCH  12  14
HETATM   14  C   UNL     1     -10.003  17.671  66.954  1.00  0.00    -0.323 C  
HETATM   15  N   UNL     1     -11.020  18.581  67.165  1.00  0.00    -0.240 N  
HETATM   16  O   UNL     1      -9.030  17.923  66.252  1.00  0.00    -0.396 OA 
HETATM   17  H   UNL     1     -11.811  18.315  67.751  1.00  0.00     0.000 HD 
BRANCH  15  18
HETATM   18  C   UNL     1     -10.990  19.915  66.571  1.00  0.00    -0.058 C  
BRANCH  18  19
HETATM   19  C   UNL     1      -9.736  20.141  65.711  1.00  0.00    -0.145 C  
HETATM   20  H   UNL     1      -9.345  20.870  63.928  1.00  0.00     0.000 HD 
HETATM   21  O   UNL     1     -10.120  20.730  64.459  1.00  0.00     1.229 OA 
BRANCH  19  22
HETATM   22  C   UNL     1      -8.707  21.029  66.433  1.00  0.00     0.854 C  
HETATM   23  O   UNL     1      -7.867  20.267  67.297  1.00  0.00    -0.301 OA 
HETATM   24  H   UNL     1      -7.231  20.815  67.742  1.00  0.00     0.000 HD 
ENDBRANCH  19  22
ENDBRANCH  18  19
ENDBRANCH  15  18
ENDBRANCH  12  14
BRANCH  11  25
HETATM   25  C   UNL     1     -11.379  14.774  70.878  1.00  0.00    -0.162 C  
HETATM   26  O   UNL     1     -11.645  15.794  71.506  1.00  0.00    -0.384 OA 
HETATM   27  H   UNL     1     -11.311  12.695  70.833  1.00  0.00     0.000 HD 
HETATM   28  N   UNL     1     -11.513  13.506  71.417  1.00  0.00     1.277 N  
BRANCH  28  29
HETATM   29  C   UNL     1     -11.933  13.299  72.790  1.00  0.00     2.476 C  
BRANCH  29  30
HETATM   30  C   UNL     1     -13.447  13.412  72.907  1.00  0.00     0.063 C  
HETATM   31  O   UNL     1     -13.808  14.781  73.103  1.00  0.00    -0.514 OA 
HETATM   32  H   UNL     1     -14.753  14.851  73.176  1.00  0.00     0.000 HD 
ENDBRANCH  29  30
ENDBRANCH  28  29
ENDBRANCH  11  25
ENDBRANCH   3   5
BRANCH   3  33
HETATM   33  C   UNL     1     -10.394  11.527  66.768  1.00  0.00    -0.226 C  
BRANCH  33  34
HETATM   34  C   UNL     1      -9.780  10.136  66.448  1.00  0.00    -0.205 C  
HETATM   35  O   UNL     1      -8.833   9.715  67.441  1.00  0.00    -0.128 OA 
HETATM   36  H   UNL     1      -8.458   8.865  67.245  1.00  0.00     0.000 HD 
BRANCH  34  37
HETATM   37  C   UNL     1     -10.850   9.036  66.325  1.00  0.00     0.800 C  
HETATM   38  H   UNL     1     -10.956   7.068  66.519  1.00  0.00     0.000 HD 
HETATM   39  O   UNL     1     -10.296   7.747  66.596  1.00  0.00    -0.281 OA 
ENDBRANCH  34  37
ENDBRANCH  33  34
ENDBRANCH   3  33
TORSDOF 11
ENDMDL
MODEL      208
REMARK 921   NORMALIZED FREE ENERGY PREDICTED BY IDOCK:   26.88 KCAL/MOL
REMARK 922        TOTAL FREE ENERGY PREDICTED BY IDOCK:   43.55 KCAL/MOL
REMARK 923 INTER-LIGAND FREE ENERGY PREDICTED BY IDOCK:   37.24 KCAL/MOL
REMARK 924 INTRA-LIGAND FREE ENERGY PREDICTED BY IDOCK:    6.32 KCAL/MOL
REMARK 927      BINDING AFFINITY PREDICTED BY RF-SCORE:    0.00 PKD
ROOT
HETATM    1  C   UNL     1      -5.638  12.278  74.210  1.00  0.00     0.883 C  
HETATM    2  C   UNL     1      -5.789  12.368  72.717  1.00  0.00     2.061 C  
HETATM    3  N   UNL     1      -6.647  13.347  72.208  1.00  0.00     2.725 N  
HETATM    4  O   UNL     1      -5.136  11.613  71.993  1.00  0.00    -0.327 OA 
ENDROOT
BRANCH   3   5
HETATM    5  C   UNL     1      -6.774  13.369  70.780  1.00  0.00     1.172 A  
HETATM    6  I   UNL     1      -7.772  13.713  65.926  1.00  0.00     5.691 I  
HETATM    7  C   UNL     1      -7.118  13.502  67.989  1.00  0.00    -0.127 A  
HETATM    8  C   UNL     1      -7.086  12.194  70.043  1.00  0.00     0.865 A  
HETATM    9  I   UNL     1      -7.157  10.304  71.099  1.00  0.00     2.167 I  
HETATM   10  C   UNL     1      -6.515  14.584  70.094  1.00  0.00    -0.156 A  
HETATM   11  C   UNL     1      -6.695  14.665  68.695  1.00  0.00    -0.086 A  
HETATM   12  C   UNL     1      -7.265  12.249  68.639  1.00  0.00    -0.105 A  
HETATM   13  I   UNL     1      -5.778  16.281  71.251  1.00  0.00     1.164 I  
BRANCH  12  14
HETATM   14  C   UNL     1      -7.694  11.019  67.897  1.00  0.00    -0.104 C  
HETATM   15  N   UNL     1      -6.711  10.132  67.504  1.00  0.00    -0.071 N  
HETATM   16  O   UNL     1      -8.881  10.836  67.649  1.00  0.00    -0.131 OA 
HETATM   17  H   UNL     1      -5.737  10.338  67.729  1.00  0.00     0.000 HD 
BRANCH  15  18
HETATM   18  C   UNL     1      -7.030   8.907  66.775  1.00  0.00    -0.077 C  
BRANCH  18  19
HETATM   19  C   UNL     1      -7.350   7.737  67.718  1.00  0.00    -0.095 C  
HETATM   20  H   UNL     1      -8.707   6.317  67.817  1.00  0.00     0.000 HD 
HETATM   21  O   UNL     1      -8.509   7.041  67.234  1.00  0.00    -0.120 OA 
BRANCH  19  22
HETATM   22  C   UNL     1      -6.158   6.773  67.848  1.00  0.00    -0.032 C  
HETATM   23  O   UNL     1      -6.542   5.535  68.443  1.00  0.00    -0.045 OA 
HETATM   24  H   UNL     1      -5.806   4.940  68.523  1.00  0.00     0.000 HD 
ENDBRANCH  19  22
ENDBRANCH  18  19
ENDBRANCH  15  18
ENDBRANCH  12  14
BRANCH  11  25
HETATM   25  C   UNL     1      -6.363  15.908  67.949  1.00  0.00    -0.137 C  
HETATM   26  O   UNL     1      -5.237  16.052  67.483  1.00  0.00    -0.160 OA 
HETATM   27  H   UNL     1      -8.281  16.676  68.203  1.00  0.00     0.000 HD 
HETATM   28  N   UNL     1      -7.353  16.869  67.826  1.00  0.00    -0.152 N  
BRANCH  28  29
HETATM   29  C   UNL     1      -7.107  18.142  67.176  1.00  0.00    -0.194 C  
BRANCH  29  30
HETATM   30  C   UNL     1      -8.278  18.518  66.279  1.00  0.00    -0.225 C  
HETATM   31  O   UNL     1      -9.277  19.182  67.055  1.00  0.00    -0.283 OA 
HETATM   32  H   UNL     1     -10.008  19.416  66.495  1.00  0.00     0.000 HD 
ENDBRANCH  29  30
ENDBRANCH  28  29
ENDBRANCH  11  25
ENDBRANCH   3   5
BRANCH   3  33
HETATM   33  C   UNL     1      -7.560  14.205  73.016  1.00  0.00     6.621 C  
BRANCH  33  34
HETATM   34  C   UNL     1      -8.594  15.066  72.239  1.00  0.00     6.907 C  
HETATM   35  O   UNL     1      -8.846  14.560  70.920  1.00  0.00     1.700 OA 
HETATM   36  H   UNL     1      -9.478  15.087  70.445  1.00  0.00     0.000 HD 
BRANCH  34  37
HETATM   37  C   UNL     1      -9.945  15.163  72.970  1.00  0.00     5.643 C  
HETATM   38  H   UNL     1     -11.491  16.401  73.035  1.00  0.00     0.000 HD 
HETATM   39  O   UNL     1     -10.657  16.341  72.584  1.00  0.00     2.266 OA 
ENDBRANCH  34  37
ENDBRANCH  33  34
ENDBRANCH   3  33
TORSDOF 11
ENDMDL
MODEL      209
REMARK 921   NORMALIZED FREE ENERGY PREDICTED BY IDOCK:   28.76 KCAL/MOL
REMARK 922        TOTAL FREE ENERGY PREDICTED BY IDOCK:   46.65 KCAL/MOL
REMARK 923 INTER-LIGAND FREE ENERGY PREDICTED BY IDOCK:   36.57 KCAL/MOL
REMARK 924 INTRA-LIGAND FREE ENERGY PREDICTED BY IDOCK:   10.08 KCAL/MOL
REMARK 927      BINDING AFFINITY PREDICTED BY RF-SCORE:    0.00 PKD
ROOT
HETATM    1  C   UNL     1      -5.638  12.278  74.210  1.00  0.00     0.883 C  
HETATM    2  C   UNL     1      -5.787  12.373  72.717  1.00  0.00     2.061 C  
HETATM    3  N   UNL     1      -6.642  13.355  72.209  1.00  0.00     2.725 N  
HETATM    4  O   UNL     1      -5.134  11.618  71.992  1.00  0.00    -0.327 OA 
ENDROOT
BRANCH   3   5
HETATM    5  C   UNL     1      -6.766  13.381  70.781  1.00  0.00     1.172 A  
HETATM    6  I   UNL     1      -7.757  13.742  65.927  1.00  0.00     5.874 I  
HETATM    7  C   UNL     1      -7.106  13.523  67.990  1.00  0.00    -0.127 A  
HETATM    8  C   UNL     1      -7.080  12.209  70.041  1.00  0.00     0.865 A  
HETATM    9  I   UNL     1      -7.157  10.317  71.091  1.00  0.00     2.167 I  
HETATM   10  C   UNL     1      -6.504  14.598  70.099  1.00  0.00    -0.166 A  
HETATM   11  C   UNL     1      -6.681  14.683  68.700  1.00  0.00    -0.086 A  
HETATM   12  C   UNL     1      -7.257  12.269  68.636  1.00  0.00    -0.105 A  
HETATM   13  I   UNL     1      -5.764  16.290  71.262  1.00  0.00     1.164 I  
BRANCH  12  14
HETATM   14  C   UNL     1      -7.688  11.042  67.891  1.00  0.00    -0.104 C  
HETATM   15  N   UNL     1      -8.671  11.188  66.931  1.00  0.00    -0.148 N  
HETATM   16  O   UNL     1      -7.179   9.957  68.151  1.00  0.00    -0.077 OA 
HETATM   17  H   UNL     1      -9.066  12.113  66.761  1.00  0.00     0.000 HD 
BRANCH  15  18
HETATM   18  C   UNL     1      -9.157  10.051  66.153  1.00  0.00    -0.156 C  
BRANCH  18  19
HETATM   19  C   UNL     1      -8.318   9.809  64.889  1.00  0.00    -0.148 C  
HETATM   20  H   UNL     1      -7.537   8.255  63.973  1.00  0.00     0.000 HD 
HETATM   21  O   UNL     1      -8.056   8.404  64.755  1.00  0.00    -0.140 OA 
BRANCH  19  22
HETATM   22  C   UNL     1      -9.020  10.350  63.632  1.00  0.00    -0.231 C  
HETATM   23  O   UNL     1      -8.299  11.433  63.048  1.00  0.00    -0.430 OA 
HETATM   24  H   UNL     1      -8.733  11.767  62.272  1.00  0.00     0.000 HD 
ENDBRANCH  19  22
ENDBRANCH  18  19
ENDBRANCH  15  18
ENDBRANCH  12  14
BRANCH  11  25
HETATM   25  C   UNL     1      -6.345  15.928  67.958  1.00  0.00    -0.131 C  
HETATM   26  O   UNL     1      -5.218  16.070  67.494  1.00  0.00    -0.160 OA 
HETATM   27  H   UNL     1      -8.261  16.700  68.212  1.00  0.00     0.000 HD 
HETATM   28  N   UNL     1      -7.333  16.891  67.837  1.00  0.00    -0.164 N  
BRANCH  28  29
HETATM   29  C   UNL     1      -7.082  18.166  67.190  1.00  0.00    -0.194 C  
BRANCH  29  30
HETATM   30  C   UNL     1      -8.251  18.547  66.293  1.00  0.00    -0.225 C  
HETATM   31  O   UNL     1      -8.188  17.787  65.083  1.00  0.00     0.883 OA 
HETATM   32  H   UNL     1      -8.918  18.025  64.523  1.00  0.00     0.000 HD 
ENDBRANCH  29  30
ENDBRANCH  28  29
ENDBRANCH  11  25
ENDBRANCH   3   5
BRANCH   3  33
HETATM   33  C   UNL     1      -7.554  14.213  73.019  1.00  0.00     6.621 C  
BRANCH  33  34
HETATM   34  C   UNL     1      -8.584  15.079  72.243  1.00  0.00     6.907 C  
HETATM   35  O   UNL     1      -7.993  15.768  71.131  1.00  0.00     2.615 OA 
HETATM   36  H   UNL     1      -8.623  16.297  70.657  1.00  0.00     0.000 HD 
BRANCH  34  37
HETATM   37  C   UNL     1      -9.764  14.249  71.705  1.00  0.00     5.968 C  
HETATM   38  H   UNL     1     -11.649  14.551  71.179  1.00  0.00     0.000 HD 
HETATM   39  O   UNL     1     -10.921  15.064  71.511  1.00  0.00    -0.213 OA 
ENDBRANCH  34  37
ENDBRANCH  33  34
ENDBRANCH   3  33
TORSDOF 11
ENDMDL
MODEL      210
REMARK 921   NORMALIZED FREE ENERGY PREDICTED BY IDOCK:   29.22 KCAL/MOL
REMARK 922        TOTAL FREE ENERGY PREDICTED BY IDOCK:   47.40 KCAL/MOL
REMARK 923 INTER-LIGAND FREE ENERGY PREDICTED BY IDOCK:   39.79 KCAL/MOL
REMARK 924 INTRA-LIGAND FREE ENERGY PREDICTED BY IDOCK:    7.61 KCAL/MOL
REMARK 927      BINDING AFFINITY PREDICTED BY RF-SCORE:    0.00 PKD
ROOT
HETATM    1  C   UNL     1      -6.268  18.525  63.880  1.00  0.00     1.610 C  
HETATM    2  C   UNL     1      -6.279  17.644  65.098  1.00  0.00     0.685 C  
HETATM    3  N   UNL     1      -7.521  17.263  65.613  1.00  0.00     0.211 N  
HETATM    4  O   UNL     1      -5.212  17.258  65.579  1.00  0.00    -0.166 OA 
ENDROOT
BRANCH   3   5
HETATM    5  C   UNL     1      -7.472  16.446  66.790  1.00  0.00    -0.243 A  
HETATM    6  I   UNL     1      -7.898  13.789  70.966  1.00  0.00     6.972 I  
HETATM    7  C   UNL     1      -7.508  14.841  69.103  1.00  0.00    -0.153 A  
HETATM    8  C   UNL     1      -6.800  16.876  67.967  1.00  0.00    -0.148 A  
HETATM    9  I   UNL     1      -5.654  18.712  67.885  1.00  0.00    -0.175 I  
HETATM   10  C   UNL     1      -8.057  15.153  66.744  1.00  0.00    -0.078 A  
HETATM   11  C   UNL     1      -8.090  14.344  67.902  1.00  0.00    -0.153 A  
HETATM   12  C   UNL     1      -6.814  16.079  69.138  1.00  0.00    -0.180 A  
HETATM   13  I   UNL     1      -8.834  14.444  64.833  1.00  0.00     6.147 I  
BRANCH  12  14
HETATM   14  C   UNL     1      -6.186  16.599  70.396  1.00  0.00     0.319 C  
HETATM   15  N   UNL     1      -5.806  15.676  71.351  1.00  0.00     0.421 N  
HETATM   16  O   UNL     1      -6.039  17.806  70.553  1.00  0.00     0.035 OA 
HETATM   17  H   UNL     1      -5.961  14.684  71.172  1.00  0.00     0.000 HD 
BRANCH  15  18
HETATM   18  C   UNL     1      -5.188  16.086  72.609  1.00  0.00     1.229 C  
BRANCH  18  19
HETATM   19  C   UNL     1      -5.720  15.284  73.807  1.00  0.00     1.425 C  
HETATM   20  H   UNL     1      -7.053  15.560  75.226  1.00  0.00     0.000 HD 
HETATM   21  O   UNL     1      -6.724  16.056  74.485  1.00  0.00     4.920 OA 
BRANCH  19  22
HETATM   22  C   UNL     1      -6.289  13.924  73.369  1.00  0.00     1.421 C  
HETATM   23  O   UNL     1      -6.066  12.916  74.354  1.00  0.00     0.258 OA 
HETATM   24  H   UNL     1      -6.417  12.077  74.084  1.00  0.00     0.000 HD 
ENDBRANCH  19  22
ENDBRANCH  18  19
ENDBRANCH  15  18
ENDBRANCH  12  14
BRANCH  11  25
HETATM   25  C   UNL     1      -8.636  12.961  67.857  1.00  0.00    -0.185 C  
HETATM   26  O   UNL     1      -9.264  12.527  68.818  1.00  0.00    -0.023 OA 
HETATM   27  H   UNL     1      -7.892  12.637  65.941  1.00  0.00     0.000 HD 
HETATM   28  N   UNL     1      -8.390  12.209  66.721  1.00  0.00    -0.152 N  
BRANCH  28  29
HETATM   29  C   UNL     1      -8.821  10.828  66.610  1.00  0.00    -0.145 C  
BRANCH  29  30
HETATM   30  C   UNL     1     -10.223  10.753  66.023  1.00  0.00    -0.251 C  
HETATM   31  O   UNL     1     -11.062  11.711  66.673  1.00  0.00    -0.287 OA 
HETATM   32  H   UNL     1     -11.937  11.665  66.307  1.00  0.00     0.000 HD 
ENDBRANCH  29  30
ENDBRANCH  28  29
ENDBRANCH  11  25
ENDBRANCH   3   5
BRANCH   3  33
HETATM   33  C   UNL     1      -8.843  17.788  65.167  1.00  0.00     2.620 C  
BRANCH  33  34
HETATM   34  C   UNL     1      -8.857  19.185  64.488  1.00  0.00     5.549 C  
HETATM   35  O   UNL     1      -9.978  19.354  63.607  1.00  0.00     8.106 OA 
HETATM   36  H   UNL     1      -9.986  20.208  63.193  1.00  0.00     0.000 HD 
BRANCH  34  37
HETATM   37  C   UNL     1      -8.888  20.335  65.511  1.00  0.00     0.503 C  
HETATM   38  H   UNL     1      -8.916  20.543  67.481  1.00  0.00     0.000 HD 
HETATM   39  O   UNL     1      -8.897  19.833  66.849  1.00  0.00    -0.306 OA 
ENDBRANCH  34  37
ENDBRANCH  33  34
ENDBRANCH   3  33
TORSDOF 11
ENDMDL
MODEL      211
REMARK 921   NORMALIZED FREE ENERGY PREDICTED BY IDOCK:   34.15 KCAL/MOL
REMARK 922        TOTAL FREE ENERGY PREDICTED BY IDOCK:   55.50 KCAL/MOL
REMARK 923 INTER-LIGAND FREE ENERGY PREDICTED BY IDOCK:   42.34 KCAL/MOL
REMARK 924 INTRA-LIGAND FREE ENERGY PREDICTED BY IDOCK:   13.16 KCAL/MOL
REMARK 927      BINDING AFFINITY PREDICTED BY RF-SCORE:    0.00 PKD
ROOT
HETATM    1  C   UNL     1     -10.882   4.270  64.535  1.00  0.00    -0.075 C  
HETATM    2  C   UNL     1     -10.222   5.148  65.561  1.00  0.00     0.112 C  
HETATM    3  N   UNL     1     -10.290   6.531  65.375  1.00  0.00     1.794 N  
HETATM    4  O   UNL     1      -9.678   4.634  66.542  1.00  0.00    -0.163 OA 
ENDROOT
BRANCH   3   5
HETATM    5  C   UNL     1      -9.619   7.318  66.368  1.00  0.00    -0.104 A  
HETATM    6  I   UNL     1      -7.865  10.258  69.967  1.00  0.00     0.483 I  
HETATM    7  C   UNL     1      -8.419   8.878  68.381  1.00  0.00    -0.129 A  
HETATM    8  C   UNL     1      -8.902   8.496  66.024  1.00  0.00    -0.173 A  
HETATM    9  I   UNL     1      -8.651   8.974  63.926  1.00  0.00     0.086 I  
HETATM   10  C   UNL     1      -9.627   6.863  67.713  1.00  0.00    -0.122 A  
HETATM   11  C   UNL     1      -9.037   7.644  68.732  1.00  0.00    -0.139 A  
HETATM   12  C   UNL     1      -8.296   9.291  67.028  1.00  0.00    -0.120 A  
HETATM   13  I   UNL     1     -10.512   4.914  68.134  1.00  0.00     0.628 I  
BRANCH  12  14
HETATM   14  C   UNL     1      -7.633  10.581  66.652  1.00  0.00    -0.120 C  
HETATM   15  N   UNL     1      -8.335  11.751  66.872  1.00  0.00    -0.168 N  
HETATM   16  O   UNL     1      -6.511  10.572  66.157  1.00  0.00    -0.104 OA 
HETATM   17  H   UNL     1      -9.269  11.700  67.278  1.00  0.00     0.000 HD 
BRANCH  15  18
HETATM   18  C   UNL     1      -7.773  13.057  66.537  1.00  0.00     0.886 C  
BRANCH  18  19
HETATM   19  C   UNL     1      -7.763  14.011  67.741  1.00  0.00    -0.172 C  
HETATM   20  H   UNL     1      -8.900  14.334  69.312  1.00  0.00     0.000 HD 
HETATM   21  O   UNL     1      -8.906  13.743  68.568  1.00  0.00    -0.174 OA 
BRANCH  19  22
HETATM   22  C   UNL     1      -6.465  13.881  68.557  1.00  0.00    -0.093 C  
HETATM   23  O   UNL     1      -5.529  13.010  67.924  1.00  0.00    -0.096 OA 
HETATM   24  H   UNL     1      -4.728  12.930  68.427  1.00  0.00     0.000 HD 
ENDBRANCH  19  22
ENDBRANCH  18  19
ENDBRANCH  15  18
ENDBRANCH  12  14
BRANCH  11  25
HETATM   25  C   UNL     1      -8.972   7.153  70.135  1.00  0.00    -0.145 C  
HETATM   26  O   UNL     1      -8.300   6.160  70.399  1.00  0.00    -0.121 OA 
HETATM   27  H   UNL     1     -10.210   8.681  70.817  1.00  0.00     0.000 HD 
HETATM   28  N   UNL     1      -9.699   7.841  71.091  1.00  0.00    -0.159 N  
BRANCH  28  29
HETATM   29  C   UNL     1      -9.755   7.402  72.473  1.00  0.00    -0.160 C  
BRANCH  29  30
HETATM   30  C   UNL     1      -8.879   8.285  73.349  1.00  0.00    -0.200 C  
HETATM   31  O   UNL     1      -7.824   8.841  72.560  1.00  0.00    -0.363 OA 
HETATM   32  H   UNL     1      -7.278   9.392  73.107  1.00  0.00     0.000 HD 
ENDBRANCH  29  30
ENDBRANCH  28  29
ENDBRANCH  11  25
ENDBRANCH   3   5
BRANCH   3  33
HETATM   33  C   UNL     1     -10.815   7.217  64.159  1.00  0.00    12.444 C  
BRANCH  33  34
HETATM   34  C   UNL     1     -11.025   6.346  62.890  1.00  0.00     8.650 C  
HETATM   35  O   UNL     1     -10.401   5.059  63.002  1.00  0.00     0.085 OA 
HETATM   36  H   UNL     1     -10.529   4.526  62.226  1.00  0.00     0.000 HD 
BRANCH  34  37
HETATM   37  C   UNL     1     -12.514   6.119  62.574  1.00  0.00     8.332 C  
HETATM   38  H   UNL     1     -14.250   6.970  63.004  1.00  0.00     0.000 HD 
HETATM   39  O   UNL     1     -13.331   7.110  63.199  1.00  0.00    11.943 OA 
ENDBRANCH  34  37
ENDBRANCH  33  34
ENDBRANCH   3  33
TORSDOF 11
ENDMDL
MODEL      212
REMARK 921   NORMALIZED FREE ENERGY PREDICTED BY IDOCK:   37.97 KCAL/MOL
REMARK 922        TOTAL FREE ENERGY PREDICTED BY IDOCK:   61.78 KCAL/MOL
REMARK 923 INTER-LIGAND FREE ENERGY PREDICTED BY IDOCK:   56.47 KCAL/MOL
REMARK 924 INTRA-LIGAND FREE ENERGY PREDICTED BY IDOCK:    5.32 KCAL/MOL
REMARK 927      BINDING AFFINITY PREDICTED BY RF-SCORE:    0.00 PKD
ROOT
HETATM    1  C   UNL     1      -6.263  18.508  63.834  1.00  0.00     1.610 C  
HETATM    2  C   UNL     1      -6.343  17.575  65.010  1.00  0.00     1.465 C  
HETATM    3  N   UNL     1      -7.609  17.130  65.403  1.00  0.00     1.112 N  
HETATM    4  O   UNL     1      -5.305  17.205  65.564  1.00  0.00    -0.004 OA 
ENDROOT
BRANCH   3   5
HETATM    5  C   UNL     1      -7.627  16.266  66.546  1.00  0.00    -0.183 A  
HETATM    6  I   UNL     1      -8.296  13.424  70.565  1.00  0.00     6.885 I  
HETATM    7  C   UNL     1      -7.795  14.564  68.783  1.00  0.00    -0.145 A  
HETATM    8  C   UNL     1      -7.059  16.662  67.788  1.00  0.00    -0.135 A  
HETATM    9  I   UNL     1      -5.962  18.528  67.870  1.00  0.00    -0.191 I  
HETATM   10  C   UNL     1      -8.170  14.962  66.402  1.00  0.00     0.409 A  
HETATM   11  C   UNL     1      -8.269  14.104  67.521  1.00  0.00    -0.196 A  
HETATM   12  C   UNL     1      -7.141  15.816  68.921  1.00  0.00    -0.139 A  
HETATM   13  I   UNL     1      -8.778  14.315  64.409  1.00  0.00    10.556 I  
BRANCH  12  14
HETATM   14  C   UNL     1      -6.626  16.297  70.244  1.00  0.00     0.416 C  
HETATM   15  N   UNL     1      -7.229  17.408  70.801  1.00  0.00     3.040 N  
HETATM   16  O   UNL     1      -5.692  15.715  70.787  1.00  0.00    -0.097 OA 
HETATM   17  H   UNL     1      -7.996  17.860  70.302  1.00  0.00     0.000 HD 
BRANCH  15  18
HETATM   18  C   UNL     1      -6.796  17.953  72.086  1.00  0.00     5.899 C  
BRANCH  18  19
HETATM   19  C   UNL     1      -6.761  19.489  72.084  1.00  0.00     1.396 C  
HETATM   20  H   UNL     1      -5.390  20.882  71.872  1.00  0.00     0.000 HD 
HETATM   21  O   UNL     1      -5.412  19.932  71.873  1.00  0.00    -0.387 OA 
BRANCH  19  22
HETATM   22  C   UNL     1      -7.696  20.075  71.012  1.00  0.00     1.525 C  
HETATM   23  O   UNL     1      -7.285  19.710  69.696  1.00  0.00    -0.287 OA 
HETATM   24  H   UNL     1      -7.862  20.072  69.034  1.00  0.00     0.000 HD 
ENDBRANCH  19  22
ENDBRANCH  18  19
ENDBRANCH  15  18
ENDBRANCH  12  14
BRANCH  11  25
HETATM   25  C   UNL     1      -8.770  12.711  67.378  1.00  0.00    -0.191 C  
HETATM   26  O   UNL     1      -9.747  12.349  68.027  1.00  0.00    -0.198 OA 
HETATM   27  H   UNL     1      -7.307  12.236  65.976  1.00  0.00     0.000 HD 
HETATM   28  N   UNL     1      -8.089  11.867  66.516  1.00  0.00    -0.061 N  
BRANCH  28  29
HETATM   29  C   UNL     1      -8.459  10.473  66.360  1.00  0.00    -0.143 C  
BRANCH  29  30
HETATM   30  C   UNL     1      -7.273   9.570  66.669  1.00  0.00    -0.086 C  
HETATM   31  O   UNL     1      -6.442   9.464  65.511  1.00  0.00    -0.067 OA 
HETATM   32  H   UNL     1      -5.702   8.901  65.704  1.00  0.00     0.000 HD 
ENDBRANCH  29  30
ENDBRANCH  28  29
ENDBRANCH  11  25
ENDBRANCH   3   5
BRANCH   3  33
HETATM   33  C   UNL     1      -8.908  17.629  64.868  1.00  0.00     4.074 C  
BRANCH  33  34
HETATM   34  C   UNL     1      -8.908  19.035  64.207  1.00  0.00     7.712 C  
HETATM   35  O   UNL     1      -9.987  19.201  63.275  1.00  0.00    12.269 OA 
HETATM   36  H   UNL     1      -9.987  20.061  62.871  1.00  0.00     0.000 HD 
BRANCH  34  37
HETATM   37  C   UNL     1      -9.003  20.171  65.241  1.00  0.00     0.950 C  
HETATM   38  H   UNL     1      -9.350  20.360  67.183  1.00  0.00     0.000 HD 
HETATM   39  O   UNL     1      -9.291  19.658  66.544  1.00  0.00    -0.342 OA 
ENDBRANCH  34  37
ENDBRANCH  33  34
ENDBRANCH   3  33
TORSDOF 11
ENDMDL
MODEL      213
REMARK 921   NORMALIZED FREE ENERGY PREDICTED BY IDOCK:   41.84 KCAL/MOL
REMARK 922        TOTAL FREE ENERGY PREDICTED BY IDOCK:   68.13 KCAL/MOL
REMARK 923 INTER-LIGAND FREE ENERGY PREDICTED BY IDOCK:   59.78 KCAL/MOL
REMARK 924 INTRA-LIGAND FREE ENERGY PREDICTED BY IDOCK:    8.35 KCAL/MOL
REMARK 927      BINDING AFFINITY PREDICTED BY RF-SCORE:    0.00 PKD
ROOT
HETATM    1  C   UNL     1     -11.565  16.752  67.012  1.00  0.00     0.934 C  
HETATM    2  C   UNL     1     -11.752  15.301  66.667  1.00  0.00     0.057 C  
HETATM    3  N   UNL     1     -11.059  14.356  67.429  1.00  0.00    -0.298 N  
HETATM    4  O   UNL     1     -12.528  14.987  65.761  1.00  0.00     0.125 OA 
ENDROOT
BRANCH   3   5
HETATM    5  C   UNL     1     -11.254  12.991  67.039  1.00  0.00    -0.289 A  
HETATM    6  I   UNL     1     -12.314   8.483  65.241  1.00  0.00    22.048 I  
HETATM    7  C   UNL     1     -11.683  10.352  66.155  1.00  0.00     2.100 A  
HETATM    8  C   UNL     1     -12.084  12.114  67.789  1.00  0.00     0.073 A  
HETATM    9  I   UNL     1     -12.887  12.817  69.674  1.00  0.00     1.692 I  
HETATM   10  C   UNL     1     -10.545  12.500  65.911  1.00  0.00    -0.265 A  
HETATM   11  C   UNL     1     -10.762  11.181  65.453  1.00  0.00    -0.259 A  
HETATM   12  C   UNL     1     -12.310  10.785  67.353  1.00  0.00     2.637 A  
HETATM   13  I   UNL     1      -9.084  13.813  64.963  1.00  0.00     3.327 I  
BRANCH  12  14
HETATM   14  C   UNL     1     -13.268   9.911  68.104  1.00  0.00     8.885 C  
HETATM   15  N   UNL     1     -13.199   9.922  69.484  1.00  0.00     0.996 N  
HETATM   16  O   UNL     1     -14.067   9.210  67.492  1.00  0.00    17.322 OA 
HETATM   17  H   UNL     1     -12.509  10.518  69.942  1.00  0.00     0.000 HD 
BRANCH  15  18
HETATM   18  C   UNL     1     -14.090   9.104  70.303  1.00  0.00     1.425 C  
BRANCH  18  19
HETATM   19  C   UNL     1     -13.761   9.206  71.800  1.00  0.00    -0.404 C  
HETATM   20  H   UNL     1     -13.080   7.999  73.194  1.00  0.00     0.000 HD 
HETATM   21  O   UNL     1     -13.283   7.936  72.268  1.00  0.00    -0.186 OA 
BRANCH  19  22
HETATM   22  C   UNL     1     -12.725  10.308  72.078  1.00  0.00    -0.301 C  
HETATM   23  O   UNL     1     -12.297  10.300  73.438  1.00  0.00     2.962 OA 
HETATM   24  H   UNL     1     -11.657  10.980  73.610  1.00  0.00     0.000 HD 
ENDBRANCH  19  22
ENDBRANCH  18  19
ENDBRANCH  15  18
ENDBRANCH  12  14
BRANCH  11  25
HETATM   25  C   UNL     1      -9.979  10.625  64.317  1.00  0.00    -0.349 C  
HETATM   26  O   UNL     1     -10.315  10.884  63.165  1.00  0.00    -0.299 OA 
HETATM   27  H   UNL     1      -8.646   9.663  65.593  1.00  0.00     0.000 HD 
HETATM   28  N   UNL     1      -8.898   9.813  64.616  1.00  0.00    -0.196 N  
BRANCH  28  29
HETATM   29  C   UNL     1      -8.114   9.168  63.579  1.00  0.00    -0.159 C  
BRANCH  29  30
HETATM   30  C   UNL     1      -6.631   9.437  63.787  1.00  0.00    -0.095 C  
HETATM   31  O   UNL     1      -6.469  10.554  64.665  1.00  0.00    -0.305 OA 
HETATM   32  H   UNL     1      -5.543  10.722  64.795  1.00  0.00     0.000 HD 
ENDBRANCH  29  30
ENDBRANCH  28  29
ENDBRANCH  11  25
ENDBRANCH   3   5
BRANCH   3  33
HETATM   33  C   UNL     1     -10.015  14.662  68.449  1.00  0.00    -0.227 C  
BRANCH  33  34
HETATM   34  C   UNL     1     -10.165  15.992  69.238  1.00  0.00    -0.249 C  
HETATM   35  O   UNL     1     -10.317  17.127  68.372  1.00  0.00    -0.318 OA 
HETATM   36  H   UNL     1     -10.408  17.940  68.854  1.00  0.00     0.000 HD 
BRANCH  34  37
HETATM   37  C   UNL     1     -11.367  15.973  70.200  1.00  0.00    -0.365 C  
HETATM   38  H   UNL     1     -13.162  15.141  70.285  1.00  0.00     0.000 HD 
HETATM   39  O   UNL     1     -12.421  15.152  69.691  1.00  0.00    -0.237 OA 
ENDBRANCH  34  37
ENDBRANCH  33  34
ENDBRANCH   3  33
TORSDOF 11
ENDMDL
MODEL      214
REMARK 921   NORMALIZED FREE ENERGY PREDICTED BY IDOCK:   49.09 KCAL/MOL
REMARK 922        TOTAL FREE ENERGY PREDICTED BY IDOCK:   80.06 KCAL/MOL
REMARK 923 INTER-LIGAND FREE ENERGY PREDICTED BY IDOCK:   58.23 KCAL/MOL
REMARK 924 INTRA-LIGAND FREE ENERGY PREDICTED BY IDOCK:   21.83 KCAL/MOL
REMARK 927      BINDING AFFINITY PREDICTED BY RF-SCORE:    0.00 PKD
ROOT
HETATM    1  C   UNL     1      -8.079  15.296  64.274  1.00  0.00    12.720 C  
HETATM    2  C   UNL     1      -8.402  14.797  65.655  1.00  0.00     2.479 C  
HETATM    3  N   UNL     1      -8.502  13.415  65.840  1.00  0.00     1.174 N  
HETATM    4  O   UNL     1      -8.533  15.604  66.578  1.00  0.00    -0.266 OA 
ENDROOT
BRANCH   3   5
HETATM    5  C   UNL     1      -8.840  12.998  67.169  1.00  0.00    -0.218 A  
HETATM    6  I   UNL     1      -9.402  11.628  71.911  1.00  0.00    20.610 I  
HETATM    7  C   UNL     1      -9.389  12.231  69.822  1.00  0.00     2.280 A  
HETATM    8  C   UNL     1      -9.081  11.632  67.481  1.00  0.00    -0.172 A  
HETATM    9  I   UNL     1      -9.144  10.201  65.857  1.00  0.00    -0.250 I  
HETATM   10  C   UNL     1      -8.996  13.989  68.173  1.00  0.00    -0.183 A  
HETATM   11  C   UNL     1      -9.261  13.615  69.509  1.00  0.00     1.118 A  
HETATM   12  C   UNL     1      -9.355  11.233  68.812  1.00  0.00    -0.136 A  
HETATM   13  I   UNL     1      -8.879  16.085  67.576  1.00  0.00    -0.222 I  
BRANCH  12  14
HETATM   14  C   UNL     1      -9.505   9.777  69.134  1.00  0.00    -0.188 C  
HETATM   15  N   UNL     1      -9.656   8.900  68.078  1.00  0.00    -0.146 N  
HETATM   16  O   UNL     1      -9.505   9.405  70.303  1.00  0.00    -0.215 OA 
HETATM   17  H   UNL     1      -9.659   9.265  67.125  1.00  0.00     0.000 HD 
BRANCH  15  18
HETATM   18  C   UNL     1      -9.811   7.462  68.291  1.00  0.00    -0.160 C  
BRANCH  18  19
HETATM   19  C   UNL     1      -9.087   6.635  67.219  1.00  0.00    -0.118 C  
HETATM   20  H   UNL     1      -7.791   5.156  67.194  1.00  0.00     0.000 HD 
HETATM   21  O   UNL     1      -8.238   5.668  67.858  1.00  0.00    -0.101 OA 
BRANCH  19  22
HETATM   22  C   UNL     1     -10.082   5.938  66.274  1.00  0.00    -0.046 C  
HETATM   23  O   UNL     1     -11.421   6.030  66.757  1.00  0.00    -0.560 OA 
HETATM   24  H   UNL     1     -12.035   5.600  66.174  1.00  0.00     0.000 HD 
ENDBRANCH  19  22
ENDBRANCH  18  19
ENDBRANCH  15  18
ENDBRANCH  12  14
BRANCH  11  25
HETATM   25  C   UNL     1      -9.497  14.639  70.562  1.00  0.00     1.616 C  
HETATM   26  O   UNL     1      -9.350  15.828  70.294  1.00  0.00     0.244 OA 
HETATM   27  H   UNL     1     -10.005  13.197  71.973  1.00  0.00     0.000 HD 
HETATM   28  N   UNL     1      -9.863  14.195  71.821  1.00  0.00     5.427 N  
BRANCH  28  29
HETATM   29  C   UNL     1     -10.049  15.111  72.931  1.00  0.00     4.771 C  
BRANCH  29  30
HETATM   30  C   UNL     1     -11.152  14.612  73.854  1.00  0.00     2.099 C  
HETATM   31  O   UNL     1     -11.500  13.272  73.497  1.00  0.00     3.942 OA 
HETATM   32  H   UNL     1     -12.188  12.961  74.074  1.00  0.00     0.000 HD 
ENDBRANCH  29  30
ENDBRANCH  28  29
ENDBRANCH  11  25
ENDBRANCH   3   5
BRANCH   3  33
HETATM   33  C   UNL     1      -8.483  12.392  64.756  1.00  0.00     2.304 C  
BRANCH  33  34
HETATM   34  C   UNL     1      -9.835  11.714  64.399  1.00  0.00    -0.223 C  
HETATM   35  O   UNL     1     -10.964  12.493  64.819  1.00  0.00    -0.284 OA 
HETATM   36  H   UNL     1     -11.791  12.079  64.600  1.00  0.00     0.000 HD 
BRANCH  34  37
HETATM   37  C   UNL     1      -9.981  11.455  62.888  1.00  0.00    -0.241 C  
HETATM   38  H   UNL     1     -11.253  10.542  61.674  1.00  0.00     0.000 HD 
HETATM   39  O   UNL     1     -11.163  10.703  62.607  1.00  0.00     1.175 OA 
ENDBRANCH  34  37
ENDBRANCH  33  34
ENDBRANCH   3  33
TORSDOF 11
ENDMDL
MODEL      215
REMARK 921   NORMALIZED FREE ENERGY PREDICTED BY IDOCK:   49.53 KCAL/MOL
REMARK 922        TOTAL FREE ENERGY PREDICTED BY IDOCK:   80.78 KCAL/MOL
REMARK 923 INTER-LIGAND FREE ENERGY PREDICTED BY IDOCK:   58.71 KCAL/MOL
REMARK 924 INTRA-LIGAND FREE ENERGY PREDICTED BY IDOCK:   22.07 KCAL/MOL
REMARK 927      BINDING AFFINITY PREDICTED BY RF-SCORE:    0.00 PKD
ROOT
HETATM    1  C   UNL     1      -8.079  15.296  64.274  1.00  0.00    12.720 C  
HETATM    2  C   UNL     1      -8.402  14.797  65.655  1.00  0.00     2.479 C  
HETATM    3  N   UNL     1      -8.502  13.415  65.840  1.00  0.00     1.174 N  
HETATM    4  O   UNL     1      -8.533  15.604  66.578  1.00  0.00    -0.266 OA 
ENDROOT
BRANCH   3   5
HETATM    5  C   UNL     1      -8.840  12.998  67.169  1.00  0.00    -0.218 A  
HETATM    6  I   UNL     1      -9.402  11.628  71.911  1.00  0.00    20.610 I  
HETATM    7  C   UNL     1      -9.389  12.231  69.822  1.00  0.00     2.280 A  
HETATM    8  C   UNL     1      -9.081  11.632  67.481  1.00  0.00    -0.172 A  
HETATM    9  I   UNL     1      -9.144  10.201  65.857  1.00  0.00    -0.250 I  
HETATM   10  C   UNL     1      -8.996  13.989  68.173  1.00  0.00    -0.183 A  
HETATM   11  C   UNL     1      -9.261  13.615  69.509  1.00  0.00     1.118 A  
HETATM   12  C   UNL     1      -9.355  11.233  68.812  1.00  0.00    -0.136 A  
HETATM   13  I   UNL     1      -8.879  16.085  67.576  1.00  0.00    -0.222 I  
BRANCH  12  14
HETATM   14  C   UNL     1      -9.505   9.777  69.134  1.00  0.00    -0.188 C  
HETATM   15  N   UNL     1      -9.596   9.421  70.466  1.00  0.00    -0.258 N  
HETATM   16  O   UNL     1      -9.531   8.949  68.230  1.00  0.00    -0.139 OA 
HETATM   17  H   UNL     1      -9.559  10.150  71.178  1.00  0.00     0.000 HD 
BRANCH  15  18
HETATM   18  C   UNL     1      -9.743   8.027  70.878  1.00  0.00    -0.164 C  
BRANCH  18  19
HETATM   19  C   UNL     1     -10.676   7.875  72.089  1.00  0.00    -0.257 C  
HETATM   20  H   UNL     1     -11.005   8.849  73.765  1.00  0.00     0.000 HD 
HETATM   21  O   UNL     1     -10.428   8.943  73.017  1.00  0.00     0.495 OA 
BRANCH  19  22
HETATM   22  C   UNL     1     -12.155   7.862  71.666  1.00  0.00    -0.299 C  
HETATM   23  O   UNL     1     -12.316   8.229  70.297  1.00  0.00    -0.244 OA 
HETATM   24  H   UNL     1     -13.229   8.220  70.036  1.00  0.00     0.000 HD 
ENDBRANCH  19  22
ENDBRANCH  18  19
ENDBRANCH  15  18
ENDBRANCH  12  14
BRANCH  11  25
HETATM   25  C   UNL     1      -9.497  14.639  70.562  1.00  0.00     1.616 C  
HETATM   26  O   UNL     1      -9.350  15.828  70.294  1.00  0.00     0.244 OA 
HETATM   27  H   UNL     1     -10.005  13.197  71.973  1.00  0.00     0.000 HD 
HETATM   28  N   UNL     1      -9.863  14.195  71.821  1.00  0.00     5.427 N  
BRANCH  28  29
HETATM   29  C   UNL     1     -10.049  15.111  72.931  1.00  0.00     4.771 C  
BRANCH  29  30
HETATM   30  C   UNL     1     -11.152  14.612  73.854  1.00  0.00     2.099 C  
HETATM   31  O   UNL     1     -11.500  13.272  73.497  1.00  0.00     3.942 OA 
HETATM   32  H   UNL     1     -12.188  12.961  74.074  1.00  0.00     0.000 HD 
ENDBRANCH  29  30
ENDBRANCH  28  29
ENDBRANCH  11  25
ENDBRANCH   3   5
BRANCH   3  33
HETATM   33  C   UNL     1      -8.483  12.392  64.756  1.00  0.00     2.304 C  
BRANCH  33  34
HETATM   34  C   UNL     1      -9.835  11.714  64.399  1.00  0.00    -0.223 C  
HETATM   35  O   UNL     1     -10.964  12.493  64.819  1.00  0.00    -0.284 OA 
HETATM   36  H   UNL     1     -11.791  12.079  64.600  1.00  0.00     0.000 HD 
BRANCH  34  37
HETATM   37  C   UNL     1      -9.981  11.455  62.888  1.00  0.00    -0.241 C  
HETATM   38  H   UNL     1     -11.253  10.542  61.674  1.00  0.00     0.000 HD 
HETATM   39  O   UNL     1     -11.163  10.703  62.607  1.00  0.00     1.175 OA 
ENDBRANCH  34  37
ENDBRANCH  33  34
ENDBRANCH   3  33
TORSDOF 11
ENDMDL
MODEL      216
REMARK 921   NORMALIZED FREE ENERGY PREDICTED BY IDOCK:   53.44 KCAL/MOL
REMARK 922        TOTAL FREE ENERGY PREDICTED BY IDOCK:   87.19 KCAL/MOL
REMARK 923 INTER-LIGAND FREE ENERGY PREDICTED BY IDOCK:   63.27 KCAL/MOL
REMARK 924 INTRA-LIGAND FREE ENERGY PREDICTED BY IDOCK:   23.92 KCAL/MOL
REMARK 927      BINDING AFFINITY PREDICTED BY RF-SCORE:    0.00 PKD
ROOT
HETATM    1  C   UNL     1      -9.794  14.478  73.486  1.00  0.00     7.388 C  
HETATM    2  C   UNL     1      -9.553  13.642  72.259  1.00  0.00    12.137 C  
HETATM    3  N   UNL     1      -9.777  14.235  71.014  1.00  0.00     3.095 N  
HETATM    4  O   UNL     1      -9.137  12.488  72.382  1.00  0.00    19.135 OA 
ENDROOT
BRANCH   3   5
HETATM    5  C   UNL     1      -9.558  13.384  69.881  1.00  0.00     2.236 A  
HETATM    6  I   UNL     1      -9.395  10.245  66.036  1.00  0.00    -0.282 I  
HETATM    7  C   UNL     1      -9.261  11.702  67.644  1.00  0.00    -0.178 A  
HETATM    8  C   UNL     1      -8.803  12.185  69.987  1.00  0.00     3.343 A  
HETATM    9  I   UNL     1      -7.792  11.766  71.856  1.00  0.00    16.354 I  
HETATM   10  C   UNL     1     -10.060  13.794  68.618  1.00  0.00    -0.193 A  
HETATM   11  C   UNL     1      -9.925  12.953  67.491  1.00  0.00    -0.215 A  
HETATM   12  C   UNL     1      -8.649  11.328  68.869  1.00  0.00    -0.056 A  
HETATM   13  I   UNL     1     -10.974  15.769  68.466  1.00  0.00    -0.363 I  
BRANCH  12  14
HETATM   14  C   UNL     1      -7.935  10.021  69.030  1.00  0.00    -0.108 C  
HETATM   15  N   UNL     1      -8.560   8.886  68.551  1.00  0.00    -0.133 N  
HETATM   16  O   UNL     1      -6.841   9.984  69.583  1.00  0.00    -0.056 OA 
HETATM   17  H   UNL     1      -9.475   8.972  68.108  1.00  0.00     0.000 HD 
BRANCH  15  18
HETATM   18  C   UNL     1      -7.945   7.566  68.663  1.00  0.00    -0.123 C  
BRANCH  18  19
HETATM   19  C   UNL     1      -7.963   6.801  67.331  1.00  0.00    -0.114 C  
HETATM   20  H   UNL     1      -9.306   6.342  65.970  1.00  0.00     0.000 HD 
HETATM   21  O   UNL     1      -9.295   6.815  66.794  1.00  0.00    -0.149 OA 
BRANCH  19  22
HETATM   22  C   UNL     1      -6.968   7.400  66.321  1.00  0.00    -0.069 C  
HETATM   23  O   UNL     1      -5.630   6.984  66.588  1.00  0.00    -0.021 OA 
HETATM   24  H   UNL     1      -5.016   7.353  65.965  1.00  0.00     0.000 HD 
ENDBRANCH  19  22
ENDBRANCH  18  19
ENDBRANCH  15  18
ENDBRANCH  12  14
BRANCH  11  25
HETATM   25  C   UNL     1     -10.381  13.393  66.145  1.00  0.00    -0.295 C  
HETATM   26  O   UNL     1      -9.551  13.705  65.297  1.00  0.00    -0.045 OA 
HETATM   27  H   UNL     1     -12.385  13.138  66.645  1.00  0.00     0.000 HD 
HETATM   28  N   UNL     1     -11.745  13.445  65.913  1.00  0.00    -0.340 N  
BRANCH  28  29
HETATM   29  C   UNL     1     -12.289  13.926  64.657  1.00  0.00    -0.388 C  
BRANCH  29  30
HETATM   30  C   UNL     1     -12.602  15.413  64.746  1.00  0.00     0.332 C  
HETATM   31  O   UNL     1     -13.687  15.723  63.868  1.00  0.00     0.945 OA 
HETATM   32  H   UNL     1     -13.883  16.651  63.924  1.00  0.00     0.000 HD 
ENDBRANCH  29  30
ENDBRANCH  28  29
ENDBRANCH  11  25
ENDBRANCH   3   5
BRANCH   3  33
HETATM   33  C   UNL     1     -10.396  15.573  70.790  1.00  0.00     0.253 C  
BRANCH  33  34
HETATM   34  C   UNL     1      -9.790  16.453  69.662  1.00  0.00    -0.028 C  
HETATM   35  O   UNL     1      -9.164  17.640  70.171  1.00  0.00     1.583 OA 
HETATM   36  H   UNL     1      -8.794  18.178  69.481  1.00  0.00     0.000 HD 
BRANCH  34  37
HETATM   37  C   UNL     1      -8.744  15.696  68.823  1.00  0.00    -0.197 C  
HETATM   38  H   UNL     1      -8.102  15.678  66.949  1.00  0.00     0.000 HD 
HETATM   39  O   UNL     1      -8.747  16.146  67.467  1.00  0.00    -0.181 OA 
ENDBRANCH  34  37
ENDBRANCH  33  34
ENDBRANCH   3  33
TORSDOF 11
ENDMDL
