MODEL        1
REMARK 921   NORMALIZED FREE ENERGY PREDICTED BY IDOCK:   -6.87 KCAL/MOL
REMARK 922        TOTAL FREE ENERGY PREDICTED BY IDOCK:   -9.15 KCAL/MOL
REMARK 923 INTER-LIGAND FREE ENERGY PREDICTED BY IDOCK:   -8.07 KCAL/MOL
REMARK 924 INTRA-LIGAND FREE ENERGY PREDICTED BY IDOCK:   -1.08 KCAL/MOL
REMARK 927      BINDING AFFINITY PREDICTED BY RF-SCORE:    0.00 PKD
ROOT
HETATM    1  C   UNL     1      -7.936  17.626  66.228  1.00  0.00    -0.257 C  
HETATM    2  C   UNL     1      -6.591  17.065  66.711  1.00  0.00    -0.262 C  
HETATM    3  C   UNL     1      -6.639  17.137  68.229  1.00  0.00    -0.158 C  
HETATM    4  C   UNL     1      -8.016  17.726  68.570  1.00  0.00    -0.294 C  
HETATM    5  C   UNL     1      -9.042  16.601  68.723  1.00  0.00    -0.256 C  
HETATM    6  N   UNL     1      -8.361  18.614  67.348  1.00  0.00    -0.258 N  
HETATM    7  C   UNL     1      -9.449  15.890  67.419  1.00  0.00    -0.219 C  
HETATM    8  C   UNL     1      -7.449  19.865  67.319  1.00  0.00    -0.262 C  
HETATM    9  C   UNL     1      -8.949  16.489  66.095  1.00  0.00    -0.344 C  
ENDROOT
BRANCH   6  10
HETATM   10  C   UNL     1      -9.864  19.084  67.288  1.00  0.00    -0.326 C  
HETATM   11  C   UNL     1     -10.174  19.841  65.995  1.00  0.00    -0.600 C  
HETATM   12  C   UNL     1     -10.256  19.913  68.515  1.00  0.00    -0.529 C  
ENDBRANCH   6  10
BRANCH   7  13
HETATM   13  O   UNL     1      -9.049  14.509  67.489  1.00  0.00    -0.181 OA 
BRANCH  13  14
HETATM   14  C   UNL     1      -9.931  13.640  66.889  1.00  0.00    -0.260 C  
HETATM   15  C   UNL     1     -11.360  13.973  67.275  1.00  0.00    -0.350 C  
HETATM   16  O   UNL     1      -9.586  12.707  66.173  1.00  0.00    -0.253 OA 
HETATM   17  C   UNL     1     -12.277  13.694  66.077  1.00  0.00    -0.449 C  
HETATM   18  C   UNL     1     -11.770  13.215  68.522  1.00  0.00    -0.387 A  
HETATM   19  C   UNL     1     -12.135  13.913  69.682  1.00  0.00    -0.404 A  
HETATM   20  O   UNL     1     -11.953  14.583  65.007  1.00  0.00    -0.382 OA 
HETATM   21  H   UNL     1     -12.521  14.411  64.265  1.00  0.00     0.000 HD 
HETATM   22  C   UNL     1     -12.480  13.224  70.847  1.00  0.00    -0.424 A  
HETATM   23  C   UNL     1     -12.465  11.832  70.865  1.00  0.00    -0.416 A  
HETATM   24  C   UNL     1     -12.110  11.125  69.720  1.00  0.00    -0.414 A  
HETATM   25  C   UNL     1     -11.766  11.811  68.554  1.00  0.00    -0.390 A  
ENDBRANCH  13  14
ENDBRANCH   7  13
TORSDOF 3
ENDMDL
MODEL        2
REMARK 921   NORMALIZED FREE ENERGY PREDICTED BY IDOCK:   -6.64 KCAL/MOL
REMARK 922        TOTAL FREE ENERGY PREDICTED BY IDOCK:   -8.88 KCAL/MOL
REMARK 923 INTER-LIGAND FREE ENERGY PREDICTED BY IDOCK:   -7.90 KCAL/MOL
REMARK 924 INTRA-LIGAND FREE ENERGY PREDICTED BY IDOCK:   -0.98 KCAL/MOL
REMARK 927      BINDING AFFINITY PREDICTED BY RF-SCORE:    0.00 PKD
ROOT
HETATM    1  C   UNL     1      -8.645  17.171  66.257  1.00  0.00    -0.241 C  
HETATM    2  C   UNL     1      -7.310  16.510  66.631  1.00  0.00    -0.268 C  
HETATM    3  C   UNL     1      -7.096  16.826  68.103  1.00  0.00    -0.161 C  
HETATM    4  C   UNL     1      -8.320  17.648  68.531  1.00  0.00    -0.291 C  
HETATM    5  C   UNL     1      -9.428  16.716  69.027  1.00  0.00    -0.236 C  
HETATM    6  N   UNL     1      -8.761  18.372  67.234  1.00  0.00    -0.256 N  
HETATM    7  C   UNL     1     -10.125  15.873  67.943  1.00  0.00    -0.235 C  
HETATM    8  C   UNL     1      -7.730  19.463  66.852  1.00  0.00    -0.251 C  
HETATM    9  C   UNL     1      -9.788  16.181  66.476  1.00  0.00    -0.283 C  
ENDROOT
BRANCH   6  10
HETATM   10  C   UNL     1     -10.190  19.033  67.311  1.00  0.00    -0.399 C  
HETATM   11  C   UNL     1     -10.628  19.603  65.960  1.00  0.00    -0.584 C  
HETATM   12  C   UNL     1     -10.272  20.100  68.408  1.00  0.00    -0.438 C  
ENDBRANCH   6  10
BRANCH   7  13
HETATM   13  O   UNL     1      -9.878  14.478  68.198  1.00  0.00    -0.213 OA 
BRANCH  13  14
HETATM   14  C   UNL     1     -11.019  13.709  68.250  1.00  0.00    -0.254 C  
HETATM   15  C   UNL     1     -10.750  12.312  67.722  1.00  0.00    -0.246 C  
HETATM   16  O   UNL     1     -12.103  14.128  68.637  1.00  0.00    -0.343 OA 
HETATM   17  C   UNL     1     -11.589  11.308  68.522  1.00  0.00    -0.315 C  
HETATM   18  C   UNL     1     -11.008  12.244  66.230  1.00  0.00    -0.327 A  
HETATM   19  C   UNL     1      -9.967  11.916  65.349  1.00  0.00    -0.281 A  
HETATM   20  O   UNL     1     -11.153  11.293  69.882  1.00  0.00    -0.419 OA 
HETATM   21  H   UNL     1     -11.673  10.671  70.377  1.00  0.00     0.000 HD 
HETATM   22  C   UNL     1     -10.187  11.884  63.971  1.00  0.00    -0.394 A  
HETATM   23  C   UNL     1     -11.448  12.178  63.457  1.00  0.00    -0.544 A  
HETATM   24  C   UNL     1     -12.492  12.500  64.319  1.00  0.00    -0.520 A  
HETATM   25  C   UNL     1     -12.276  12.531  65.698  1.00  0.00    -0.403 A  
ENDBRANCH  13  14
ENDBRANCH   7  13
TORSDOF 3
ENDMDL
MODEL        3
REMARK 921   NORMALIZED FREE ENERGY PREDICTED BY IDOCK:   -6.55 KCAL/MOL
REMARK 922        TOTAL FREE ENERGY PREDICTED BY IDOCK:   -8.78 KCAL/MOL
REMARK 923 INTER-LIGAND FREE ENERGY PREDICTED BY IDOCK:   -7.96 KCAL/MOL
REMARK 924 INTRA-LIGAND FREE ENERGY PREDICTED BY IDOCK:   -0.82 KCAL/MOL
REMARK 927      BINDING AFFINITY PREDICTED BY RF-SCORE:    0.00 PKD
ROOT
HETATM    1  C   UNL     1      -8.308  17.164  67.953  1.00  0.00    -0.207 C  
HETATM    2  C   UNL     1      -8.840  16.428  69.191  1.00  0.00    -0.186 C  
HETATM    3  C   UNL     1     -10.355  16.524  69.104  1.00  0.00    -0.316 C  
HETATM    4  C   UNL     1     -10.646  17.300  67.812  1.00  0.00    -0.367 C  
HETATM    5  C   UNL     1     -10.771  16.329  66.636  1.00  0.00    -0.197 C  
HETATM    6  N   UNL     1      -9.406  18.213  67.633  1.00  0.00    -0.258 N  
HETATM    7  C   UNL     1      -9.458  15.666  66.177  1.00  0.00    -0.341 C  
HETATM    8  C   UNL     1      -9.400  19.327  68.709  1.00  0.00    -0.383 C  
HETATM    9  C   UNL     1      -8.148  16.175  66.798  1.00  0.00    -0.305 C  
ENDROOT
BRANCH   6  10
HETATM   10  C   UNL     1      -9.292  18.885  66.211  1.00  0.00    -0.282 C  
HETATM   11  C   UNL     1      -8.009  19.706  66.070  1.00  0.00    -0.337 C  
HETATM   12  C   UNL     1     -10.524  19.732  65.875  1.00  0.00    -0.587 C  
ENDBRANCH   6  10
BRANCH   7  13
HETATM   13  O   UNL     1      -9.552  14.244  66.380  1.00  0.00    -0.282 OA 
BRANCH  13  14
HETATM   14  C   UNL     1     -10.270  13.587  65.408  1.00  0.00    -0.302 C  
HETATM   15  C   UNL     1     -11.323  12.690  66.031  1.00  0.00    -0.369 C  
HETATM   16  O   UNL     1     -10.047  13.696  64.208  1.00  0.00    -0.313 OA 
HETATM   17  C   UNL     1     -12.567  12.685  65.133  1.00  0.00    -0.386 C  
HETATM   18  C   UNL     1     -10.767  11.302  66.281  1.00  0.00    -0.312 A  
HETATM   19  C   UNL     1     -10.703  10.793  67.586  1.00  0.00    -0.305 A  
HETATM   20  O   UNL     1     -13.144  13.990  65.105  1.00  0.00    -0.776 OA 
HETATM   21  H   UNL     1     -13.915  13.987  64.548  1.00  0.00     0.000 HD 
HETATM   22  C   UNL     1     -10.161   9.530  67.829  1.00  0.00    -0.265 A  
HETATM   23  C   UNL     1      -9.678   8.761  66.773  1.00  0.00    -0.286 A  
HETATM   24  C   UNL     1      -9.740   9.250  65.471  1.00  0.00    -0.247 A  
HETATM   25  C   UNL     1     -10.283  10.512  65.224  1.00  0.00    -0.352 A  
ENDBRANCH  13  14
ENDBRANCH   7  13
TORSDOF 3
ENDMDL
MODEL        4
REMARK 921   NORMALIZED FREE ENERGY PREDICTED BY IDOCK:   -6.33 KCAL/MOL
REMARK 922        TOTAL FREE ENERGY PREDICTED BY IDOCK:   -8.51 KCAL/MOL
REMARK 923 INTER-LIGAND FREE ENERGY PREDICTED BY IDOCK:   -7.59 KCAL/MOL
REMARK 924 INTRA-LIGAND FREE ENERGY PREDICTED BY IDOCK:   -0.93 KCAL/MOL
REMARK 927      BINDING AFFINITY PREDICTED BY RF-SCORE:    0.00 PKD
ROOT
HETATM    1  C   UNL     1     -10.136  13.154  64.583  1.00  0.00    -0.226 C  
HETATM    2  C   UNL     1     -11.414  13.573  63.843  1.00  0.00    -0.289 C  
HETATM    3  C   UNL     1     -12.476  12.567  64.257  1.00  0.00    -0.520 C  
HETATM    4  C   UNL     1     -11.777  11.608  65.233  1.00  0.00     0.054 C  
HETATM    5  C   UNL     1     -11.905  12.135  66.664  1.00  0.00    -0.314 C  
HETATM    6  N   UNL     1     -10.295  11.622  64.779  1.00  0.00    -0.267 N  
HETATM    7  C   UNL     1     -11.072  13.389  66.989  1.00  0.00    -0.292 C  
HETATM    8  C   UNL     1     -10.144  10.898  63.418  1.00  0.00    -0.340 C  
HETATM    9  C   UNL     1     -10.065  13.869  65.932  1.00  0.00    -0.331 C  
ENDROOT
BRANCH   6  10
HETATM   10  C   UNL     1      -9.293  10.974  65.809  1.00  0.00    -0.211 C  
HETATM   11  C   UNL     1      -7.891  10.815  65.217  1.00  0.00     0.033 C  
HETATM   12  C   UNL     1      -9.812   9.639  66.354  1.00  0.00    -0.309 C  
ENDBRANCH   6  10
BRANCH   7  13
HETATM   13  O   UNL     1     -11.960  14.474  67.317  1.00  0.00    -0.405 OA 
BRANCH  13  14
HETATM   14  C   UNL     1     -11.440  15.367  68.225  1.00  0.00    -0.353 C  
HETATM   15  C   UNL     1     -10.902  14.642  69.445  1.00  0.00    -0.261 C  
HETATM   16  O   UNL     1     -11.454  16.582  68.068  1.00  0.00    -0.203 OA 
HETATM   17  C   UNL     1      -9.658  15.381  69.954  1.00  0.00    -0.098 C  
HETATM   18  C   UNL     1     -11.979  14.497  70.502  1.00  0.00    -0.387 A  
HETATM   19  C   UNL     1     -12.394  13.223  70.914  1.00  0.00    -0.413 A  
HETATM   20  O   UNL     1      -8.620  15.306  68.975  1.00  0.00    -0.194 OA 
HETATM   21  H   UNL     1      -7.849  15.763  69.291  1.00  0.00     0.000 HD 
HETATM   22  C   UNL     1     -13.409  13.079  71.862  1.00  0.00    -0.539 A  
HETATM   23  C   UNL     1     -14.019  14.206  72.409  1.00  0.00    -0.613 A  
HETATM   24  C   UNL     1     -13.613  15.478  72.014  1.00  0.00    -0.595 A  
HETATM   25  C   UNL     1     -12.598  15.624  71.067  1.00  0.00    -0.515 A  
ENDBRANCH  13  14
ENDBRANCH   7  13
TORSDOF 3
ENDMDL
MODEL        5
REMARK 921   NORMALIZED FREE ENERGY PREDICTED BY IDOCK:   -6.27 KCAL/MOL
REMARK 922        TOTAL FREE ENERGY PREDICTED BY IDOCK:   -8.45 KCAL/MOL
REMARK 923 INTER-LIGAND FREE ENERGY PREDICTED BY IDOCK:   -7.56 KCAL/MOL
REMARK 924 INTRA-LIGAND FREE ENERGY PREDICTED BY IDOCK:   -0.89 KCAL/MOL
REMARK 927      BINDING AFFINITY PREDICTED BY RF-SCORE:    0.00 PKD
ROOT
HETATM    1  C   UNL     1      -9.092  19.472  68.503  1.00  0.00    -0.352 C  
HETATM    2  C   UNL     1     -10.011  20.136  67.467  1.00  0.00    -0.571 C  
HETATM    3  C   UNL     1      -9.366  19.868  66.116  1.00  0.00    -0.442 C  
HETATM    4  C   UNL     1      -8.104  19.047  66.418  1.00  0.00    -0.297 C  
HETATM    5  C   UNL     1      -8.436  17.554  66.409  1.00  0.00    -0.287 C  
HETATM    6  N   UNL     1      -7.688  19.502  67.841  1.00  0.00    -0.281 N  
HETATM    7  C   UNL     1      -9.284  17.053  67.593  1.00  0.00    -0.233 C  
HETATM    8  C   UNL     1      -7.154  20.956  67.804  1.00  0.00    -0.229 C  
HETATM    9  C   UNL     1      -9.547  18.033  68.746  1.00  0.00    -0.309 C  
ENDROOT
BRANCH   6  10
HETATM   10  C   UNL     1      -6.607  18.585  68.528  1.00  0.00    -0.236 C  
HETATM   11  C   UNL     1      -6.281  19.053  69.948  1.00  0.00    -0.226 C  
HETATM   12  C   UNL     1      -5.333  18.467  67.685  1.00  0.00    -0.154 C  
ENDBRANCH   6  10
BRANCH   7  13
HETATM   13  O   UNL     1     -10.545  16.564  67.097  1.00  0.00    -0.314 OA 
BRANCH  13  14
HETATM   14  C   UNL     1     -10.966  15.398  67.695  1.00  0.00    -0.315 C  
HETATM   15  C   UNL     1     -10.204  14.207  67.146  1.00  0.00    -0.258 C  
HETATM   16  O   UNL     1     -11.863  15.348  68.527  1.00  0.00    -0.345 OA 
HETATM   17  C   UNL     1      -9.991  13.190  68.274  1.00  0.00    -0.236 C  
HETATM   18  C   UNL     1     -10.921  13.618  65.946  1.00  0.00    -0.284 A  
HETATM   19  C   UNL     1     -10.290  13.590  64.694  1.00  0.00    -0.406 A  
HETATM   20  O   UNL     1      -9.146  13.755  69.276  1.00  0.00    -0.264 OA 
HETATM   21  H   UNL     1      -9.013  13.125  69.976  1.00  0.00     0.000 HD 
HETATM   22  C   UNL     1     -10.954  13.081  63.576  1.00  0.00    -0.100 A  
HETATM   23  C   UNL     1     -12.254  12.595  63.697  1.00  0.00    -0.624 A  
HETATM   24  C   UNL     1     -12.891  12.613  64.934  1.00  0.00    -0.312 A  
HETATM   25  C   UNL     1     -12.229  13.119  66.054  1.00  0.00    -0.478 A  
ENDBRANCH  13  14
ENDBRANCH   7  13
TORSDOF 3
ENDMDL
MODEL        6
REMARK 921   NORMALIZED FREE ENERGY PREDICTED BY IDOCK:   -6.12 KCAL/MOL
REMARK 922        TOTAL FREE ENERGY PREDICTED BY IDOCK:   -8.27 KCAL/MOL
REMARK 923 INTER-LIGAND FREE ENERGY PREDICTED BY IDOCK:   -7.12 KCAL/MOL
REMARK 924 INTRA-LIGAND FREE ENERGY PREDICTED BY IDOCK:   -1.14 KCAL/MOL
REMARK 927      BINDING AFFINITY PREDICTED BY RF-SCORE:    0.00 PKD
ROOT
HETATM    1  C   UNL     1      -9.792  13.213  65.832  1.00  0.00    -0.233 C  
HETATM    2  C   UNL     1     -10.534  13.464  64.512  1.00  0.00    -0.431 C  
HETATM    3  C   UNL     1     -12.000  13.615  64.889  1.00  0.00    -0.410 C  
HETATM    4  C   UNL     1     -12.051  13.460  66.416  1.00  0.00    -0.409 C  
HETATM    5  C   UNL     1     -11.873  14.823  67.086  1.00  0.00    -0.307 C  
HETATM    6  N   UNL     1     -10.851  12.534  66.741  1.00  0.00    -0.243 N  
HETATM    7  C   UNL     1     -10.460  15.430  66.997  1.00  0.00    -0.295 C  
HETATM    8  C   UNL     1     -11.132  11.096  66.239  1.00  0.00    -0.111 C  
HETATM    9  C   UNL     1      -9.340  14.546  66.428  1.00  0.00    -0.300 C  
ENDROOT
BRANCH   6  10
HETATM   10  C   UNL     1     -10.475  12.469  68.270  1.00  0.00    -0.234 C  
HETATM   11  C   UNL     1      -9.227  11.618  68.515  1.00  0.00    -0.163 C  
HETATM   12  C   UNL     1     -11.646  11.984  69.131  1.00  0.00    -0.370 C  
ENDBRANCH   6  10
BRANCH   7  13
HETATM   13  O   UNL     1     -10.520  16.655  66.243  1.00  0.00    -0.306 OA 
BRANCH  13  14
HETATM   14  C   UNL     1     -10.220  17.779  66.978  1.00  0.00    -0.346 C  
HETATM   15  C   UNL     1      -8.954  18.437  66.462  1.00  0.00    -0.294 C  
HETATM   16  O   UNL     1     -10.878  18.158  67.939  1.00  0.00    -0.363 OA 
HETATM   17  C   UNL     1      -9.091  19.958  66.600  1.00  0.00    -0.376 C  
HETATM   18  C   UNL     1      -7.734  17.886  67.175  1.00  0.00    -0.227 A  
HETATM   19  C   UNL     1      -6.735  17.221  66.449  1.00  0.00    -0.289 A  
HETATM   20  O   UNL     1     -10.139  20.425  65.748  1.00  0.00    -0.577 OA 
HETATM   21  H   UNL     1     -10.224  21.368  65.834  1.00  0.00     0.000 HD 
HETATM   22  C   UNL     1      -5.625  16.680  67.101  1.00  0.00    -0.175 A  
HETATM   23  C   UNL     1      -5.501  16.798  68.483  1.00  0.00    -0.125 A  
HETATM   24  C   UNL     1      -6.482  17.460  69.216  1.00  0.00    -0.245 A  
HETATM   25  C   UNL     1      -7.592  18.003  68.567  1.00  0.00    -0.296 A  
ENDBRANCH  13  14
ENDBRANCH   7  13
TORSDOF 3
ENDMDL
MODEL        7
REMARK 921   NORMALIZED FREE ENERGY PREDICTED BY IDOCK:   -6.11 KCAL/MOL
REMARK 922        TOTAL FREE ENERGY PREDICTED BY IDOCK:   -8.26 KCAL/MOL
REMARK 923 INTER-LIGAND FREE ENERGY PREDICTED BY IDOCK:   -7.07 KCAL/MOL
REMARK 924 INTRA-LIGAND FREE ENERGY PREDICTED BY IDOCK:   -1.19 KCAL/MOL
REMARK 927      BINDING AFFINITY PREDICTED BY RF-SCORE:    0.00 PKD
ROOT
HETATM    1  C   UNL     1      -8.856  11.238  67.720  1.00  0.00    -0.141 C  
HETATM    2  C   UNL     1      -7.621  11.631  66.897  1.00  0.00    -0.138 C  
HETATM    3  C   UNL     1      -7.629  10.713  65.684  1.00  0.00    -0.100 C  
HETATM    4  C   UNL     1      -8.877   9.831  65.843  1.00  0.00    -0.150 C  
HETATM    5  C   UNL     1     -10.080  10.504  65.179  1.00  0.00    -0.383 C  
HETATM    6  N   UNL     1      -9.083   9.742  67.377  1.00  0.00    -0.134 N  
HETATM    7  C   UNL     1     -10.627  11.751  65.898  1.00  0.00    -0.271 C  
HETATM    8  C   UNL     1      -7.968   8.879  68.019  1.00  0.00    -0.102 C  
HETATM    9  C   UNL     1     -10.053  12.083  67.284  1.00  0.00    -0.208 C  
ENDROOT
BRANCH   6  10
HETATM   10  C   UNL     1     -10.482   9.162  67.813  1.00  0.00    -0.247 C  
HETATM   11  C   UNL     1     -10.654   9.170  69.333  1.00  0.00    -0.232 C  
HETATM   12  C   UNL     1     -10.728   7.761  67.242  1.00  0.00    -0.326 C  
ENDBRANCH   6  10
BRANCH   7  13
HETATM   13  O   UNL     1     -10.472  12.897  65.040  1.00  0.00    -0.298 OA 
BRANCH  13  14
HETATM   14  C   UNL     1     -11.167  14.008  65.460  1.00  0.00    -0.311 C  
HETATM   15  C   UNL     1     -10.270  15.231  65.470  1.00  0.00    -0.417 C  
HETATM   16  O   UNL     1     -12.341  13.982  65.811  1.00  0.00    -0.430 OA 
HETATM   17  C   UNL     1     -11.097  16.459  65.069  1.00  0.00    -0.208 C  
HETATM   18  C   UNL     1      -9.592  15.389  66.817  1.00  0.00    -0.257 A  
HETATM   19  C   UNL     1      -8.194  15.345  66.912  1.00  0.00    -0.281 A  
HETATM   20  O   UNL     1     -11.539  16.319  63.718  1.00  0.00    -1.539 OA 
HETATM   21  H   UNL     1     -12.052  17.080  63.469  1.00  0.00     0.000 HD 
HETATM   22  C   UNL     1      -7.562  15.455  68.152  1.00  0.00    -0.118 A  
HETATM   23  C   UNL     1      -8.320  15.610  69.310  1.00  0.00    -0.256 A  
HETATM   24  C   UNL     1      -9.709  15.661  69.232  1.00  0.00    -0.271 A  
HETATM   25  C   UNL     1     -10.343  15.553  67.993  1.00  0.00    -0.247 A  
ENDBRANCH  13  14
ENDBRANCH   7  13
TORSDOF 3
ENDMDL
MODEL        8
REMARK 921   NORMALIZED FREE ENERGY PREDICTED BY IDOCK:   -6.06 KCAL/MOL
REMARK 922        TOTAL FREE ENERGY PREDICTED BY IDOCK:   -8.20 KCAL/MOL
REMARK 923 INTER-LIGAND FREE ENERGY PREDICTED BY IDOCK:   -7.44 KCAL/MOL
REMARK 924 INTRA-LIGAND FREE ENERGY PREDICTED BY IDOCK:   -0.75 KCAL/MOL
REMARK 927      BINDING AFFINITY PREDICTED BY RF-SCORE:    0.00 PKD
ROOT
HETATM    1  C   UNL     1     -10.284  17.393  67.223  1.00  0.00    -0.324 C  
HETATM    2  C   UNL     1      -9.874  16.445  66.088  1.00  0.00    -0.362 C  
HETATM    3  C   UNL     1      -8.359  16.336  66.174  1.00  0.00    -0.260 C  
HETATM    4  C   UNL     1      -7.950  17.215  67.364  1.00  0.00    -0.180 C  
HETATM    5  C   UNL     1      -7.951  16.386  68.651  1.00  0.00    -0.220 C  
HETATM    6  N   UNL     1      -9.046  18.309  67.422  1.00  0.00    -0.252 N  
HETATM    7  C   UNL     1      -9.339  15.976  69.177  1.00  0.00    -0.251 C  
HETATM    8  C   UNL     1      -8.906  19.273  66.217  1.00  0.00    -0.326 C  
HETATM    9  C   UNL     1     -10.571  16.585  68.489  1.00  0.00    -0.318 C  
ENDROOT
BRANCH   6  10
HETATM   10  C   UNL     1      -9.050  19.158  68.750  1.00  0.00    -0.353 C  
HETATM   11  C   UNL     1     -10.156  20.215  68.747  1.00  0.00    -0.334 C  
HETATM   12  C   UNL     1      -7.684  19.794  69.029  1.00  0.00    -0.234 C  
ENDBRANCH   6  10
BRANCH   7  13
HETATM   13  O   UNL     1      -9.449  14.540  69.149  1.00  0.00    -0.135 OA 
BRANCH  13  14
HETATM   14  C   UNL     1     -10.745  14.079  69.175  1.00  0.00    -0.173 C  
HETATM   15  C   UNL     1     -10.875  12.797  68.375  1.00  0.00    -0.272 C  
HETATM   16  O   UNL     1     -11.663  14.661  69.741  1.00  0.00    -0.278 OA 
HETATM   17  C   UNL     1     -11.903  11.886  69.058  1.00  0.00    -0.308 C  
HETATM   18  C   UNL     1     -11.219  13.098  66.930  1.00  0.00    -0.328 A  
HETATM   19  C   UNL     1     -10.346  12.713  65.903  1.00  0.00    -0.295 A  
HETATM   20  O   UNL     1     -11.416  11.489  70.340  1.00  0.00    -0.495 OA 
HETATM   21  H   UNL     1     -12.053  10.925  70.764  1.00  0.00     0.000 HD 
HETATM   22  C   UNL     1     -10.638  13.016  64.571  1.00  0.00    -0.413 A  
HETATM   23  C   UNL     1     -11.805  13.706  64.251  1.00  0.00    -0.464 A  
HETATM   24  C   UNL     1     -12.684  14.091  65.260  1.00  0.00    -0.468 A  
HETATM   25  C   UNL     1     -12.396  13.788  66.591  1.00  0.00    -0.403 A  
ENDBRANCH  13  14
ENDBRANCH   7  13
TORSDOF 3
ENDMDL
MODEL        9
REMARK 921   NORMALIZED FREE ENERGY PREDICTED BY IDOCK:   -6.05 KCAL/MOL
REMARK 922        TOTAL FREE ENERGY PREDICTED BY IDOCK:   -8.18 KCAL/MOL
REMARK 923 INTER-LIGAND FREE ENERGY PREDICTED BY IDOCK:   -7.58 KCAL/MOL
REMARK 924 INTRA-LIGAND FREE ENERGY PREDICTED BY IDOCK:   -0.60 KCAL/MOL
REMARK 927      BINDING AFFINITY PREDICTED BY RF-SCORE:    0.00 PKD
ROOT
HETATM    1  C   UNL     1      -8.477  18.341  68.396  1.00  0.00    -0.303 C  
HETATM    2  C   UNL     1      -9.874  18.807  68.830  1.00  0.00    -0.434 C  
HETATM    3  C   UNL     1     -10.573  19.246  67.553  1.00  0.00    -0.581 C  
HETATM    4  C   UNL     1      -9.560  19.006  66.424  1.00  0.00    -0.353 C  
HETATM    5  C   UNL     1      -9.722  17.589  65.869  1.00  0.00    -0.066 C  
HETATM    6  N   UNL     1      -8.181  19.165  67.114  1.00  0.00    -0.266 N  
HETATM    7  C   UNL     1      -9.255  16.453  66.798  1.00  0.00    -0.237 C  
HETATM    8  C   UNL     1      -7.937  20.649  67.487  1.00  0.00    -0.226 C  
HETATM    9  C   UNL     1      -8.508  16.845  68.083  1.00  0.00    -0.217 C  
ENDROOT
BRANCH   6  10
HETATM   10  C   UNL     1      -6.962  18.653  66.257  1.00  0.00    -0.236 C  
HETATM   11  C   UNL     1      -5.717  18.427  67.117  1.00  0.00    -0.150 C  
HETATM   12  C   UNL     1      -6.653  19.586  65.081  1.00  0.00    -0.286 C  
ENDBRANCH   6  10
BRANCH   7  13
HETATM   13  O   UNL     1     -10.385  15.632  67.145  1.00  0.00    -0.272 OA 
BRANCH  13  14
HETATM   14  C   UNL     1     -10.571  14.555  66.308  1.00  0.00    -0.304 C  
HETATM   15  C   UNL     1     -11.809  13.773  66.706  1.00  0.00    -0.454 C  
HETATM   16  O   UNL     1      -9.807  14.264  65.395  1.00  0.00    -0.313 OA 
HETATM   17  C   UNL     1     -12.482  13.229  65.439  1.00  0.00    -0.489 C  
HETATM   18  C   UNL     1     -11.459  12.686  67.703  1.00  0.00    -0.390 A  
HETATM   19  C   UNL     1     -12.025  12.698  68.986  1.00  0.00    -0.282 A  
HETATM   20  O   UNL     1     -12.957  14.316  64.644  1.00  0.00    -0.621 OA 
HETATM   21  H   UNL     1     -13.374  13.979  63.859  1.00  0.00     0.000 HD 
HETATM   22  C   UNL     1     -11.683  11.721  69.922  1.00  0.00    -0.399 A  
HETATM   23  C   UNL     1     -10.772  10.721  69.588  1.00  0.00    -0.261 A  
HETATM   24  C   UNL     1     -10.205  10.693  68.318  1.00  0.00    -0.187 A  
HETATM   25  C   UNL     1     -10.547  11.668  67.378  1.00  0.00    -0.257 A  
ENDBRANCH  13  14
ENDBRANCH   7  13
TORSDOF 3
ENDMDL
MODEL       10
REMARK 921   NORMALIZED FREE ENERGY PREDICTED BY IDOCK:   -5.98 KCAL/MOL
REMARK 922        TOTAL FREE ENERGY PREDICTED BY IDOCK:   -8.10 KCAL/MOL
REMARK 923 INTER-LIGAND FREE ENERGY PREDICTED BY IDOCK:   -6.90 KCAL/MOL
REMARK 924 INTRA-LIGAND FREE ENERGY PREDICTED BY IDOCK:   -1.21 KCAL/MOL
REMARK 927      BINDING AFFINITY PREDICTED BY RF-SCORE:    0.00 PKD
ROOT
HETATM    1  C   UNL     1      -8.792  11.004  68.476  1.00  0.00    -0.159 C  
HETATM    2  C   UNL     1      -7.617  11.215  67.510  1.00  0.00    -0.108 C  
HETATM    3  C   UNL     1      -7.593   9.982  66.620  1.00  0.00    -0.104 C  
HETATM    4  C   UNL     1      -8.764   9.108  67.094  1.00  0.00    -0.123 C  
HETATM    5  C   UNL     1     -10.035   9.477  66.327  1.00  0.00    -0.344 C  
HETATM    6  N   UNL     1      -8.914   9.461  68.596  1.00  0.00    -0.131 N  
HETATM    7  C   UNL     1     -10.653  10.843  66.679  1.00  0.00    -0.249 C  
HETATM    8  C   UNL     1      -7.717   8.899  69.401  1.00  0.00    -0.093 C  
HETATM    9  C   UNL     1     -10.063  11.605  67.876  1.00  0.00    -0.198 C  
ENDROOT
BRANCH   6  10
HETATM   10  C   UNL     1     -10.251   8.947  69.254  1.00  0.00    -0.209 C  
HETATM   11  C   UNL     1     -10.431   9.489  70.674  1.00  0.00    -0.374 C  
HETATM   12  C   UNL     1     -10.351   7.419  69.234  1.00  0.00    -0.204 C  
ENDBRANCH   6  10
BRANCH   7  13
HETATM   13  O   UNL     1     -10.613  11.693  65.517  1.00  0.00    -0.264 OA 
BRANCH  13  14
HETATM   14  C   UNL     1     -11.608  12.643  65.486  1.00  0.00    -0.370 C  
HETATM   15  C   UNL     1     -11.055  13.986  65.045  1.00  0.00    -0.364 C  
HETATM   16  O   UNL     1     -12.768  12.424  65.811  1.00  0.00    -0.392 OA 
HETATM   17  C   UNL     1     -12.116  14.710  64.207  1.00  0.00    -0.415 C  
HETATM   18  C   UNL     1     -10.591  14.794  66.240  1.00  0.00    -0.306 A  
HETATM   19  C   UNL     1      -9.246  15.173  66.355  1.00  0.00    -0.334 A  
HETATM   20  O   UNL     1     -12.356  13.981  63.002  1.00  0.00    -1.101 OA 
HETATM   21  H   UNL     1     -13.014  14.430  62.483  1.00  0.00     0.000 HD 
HETATM   22  C   UNL     1      -8.802  15.888  67.470  1.00  0.00    -0.199 A  
HETATM   23  C   UNL     1      -9.697  16.233  68.480  1.00  0.00    -0.224 A  
HETATM   24  C   UNL     1     -11.037  15.868  68.378  1.00  0.00    -0.345 A  
HETATM   25  C   UNL     1     -11.483  15.155  67.264  1.00  0.00    -0.284 A  
ENDBRANCH  13  14
ENDBRANCH   7  13
TORSDOF 3
ENDMDL
MODEL       11
REMARK 921   NORMALIZED FREE ENERGY PREDICTED BY IDOCK:   -5.94 KCAL/MOL
REMARK 922        TOTAL FREE ENERGY PREDICTED BY IDOCK:   -8.05 KCAL/MOL
REMARK 923 INTER-LIGAND FREE ENERGY PREDICTED BY IDOCK:   -7.40 KCAL/MOL
REMARK 924 INTRA-LIGAND FREE ENERGY PREDICTED BY IDOCK:   -0.66 KCAL/MOL
REMARK 927      BINDING AFFINITY PREDICTED BY RF-SCORE:    0.00 PKD
ROOT
HETATM    1  C   UNL     1      -7.568  17.311  67.658  1.00  0.00    -0.179 C  
HETATM    2  C   UNL     1      -7.863  16.373  68.837  1.00  0.00    -0.234 C  
HETATM    3  C   UNL     1      -9.335  16.572  69.160  1.00  0.00    -0.207 C  
HETATM    4  C   UNL     1      -9.843  17.609  68.148  1.00  0.00    -0.318 C  
HETATM    5  C   UNL     1     -10.350  16.905  66.888  1.00  0.00    -0.304 C  
HETATM    6  N   UNL     1      -8.592  18.466  67.825  1.00  0.00    -0.263 N  
HETATM    7  C   UNL     1      -9.265  16.273  65.995  1.00  0.00    -0.316 C  
HETATM    8  C   UNL     1      -8.208  19.337  69.047  1.00  0.00    -0.239 C  
HETATM    9  C   UNL     1      -7.797  16.568  66.341  1.00  0.00    -0.324 C  
ENDROOT
BRANCH   6  10
HETATM   10  C   UNL     1      -8.751  19.403  66.568  1.00  0.00    -0.351 C  
HETATM   11  C   UNL     1      -7.455  20.149  66.244  1.00  0.00    -0.304 C  
HETATM   12  C   UNL     1      -9.921  20.381  66.724  1.00  0.00    -0.525 C  
ENDBRANCH   6  10
BRANCH   7  13
HETATM   13  O   UNL     1      -9.459  14.846  65.955  1.00  0.00    -0.296 OA 
BRANCH  13  14
HETATM   14  C   UNL     1     -10.523  14.449  65.178  1.00  0.00    -0.415 C  
HETATM   15  C   UNL     1     -11.069  13.117  65.655  1.00  0.00    -0.296 C  
HETATM   16  O   UNL     1     -10.933  15.082  64.212  1.00  0.00    -0.128 OA 
HETATM   17  C   UNL     1     -12.592  13.107  65.466  1.00  0.00    -0.408 C  
HETATM   18  C   UNL     1     -10.377  11.968  64.948  1.00  0.00    -0.316 A  
HETATM   19  C   UNL     1      -9.642  11.028  65.684  1.00  0.00    -0.265 A  
HETATM   20  O   UNL     1     -13.187  14.090  66.314  1.00  0.00    -0.357 OA 
HETATM   21  H   UNL     1     -14.130  14.083  66.197  1.00  0.00     0.000 HD 
HETATM   22  C   UNL     1      -8.973   9.987  65.038  1.00  0.00    -0.234 A  
HETATM   23  C   UNL     1      -9.032   9.873  63.651  1.00  0.00    -0.278 A  
HETATM   24  C   UNL     1      -9.762  10.795  62.907  1.00  0.00    -0.337 A  
HETATM   25  C   UNL     1     -10.433  11.837  63.550  1.00  0.00    -0.500 A  
ENDBRANCH  13  14
ENDBRANCH   7  13
TORSDOF 3
ENDMDL
MODEL       12
REMARK 921   NORMALIZED FREE ENERGY PREDICTED BY IDOCK:   -5.93 KCAL/MOL
REMARK 922        TOTAL FREE ENERGY PREDICTED BY IDOCK:   -8.04 KCAL/MOL
REMARK 923 INTER-LIGAND FREE ENERGY PREDICTED BY IDOCK:   -7.08 KCAL/MOL
REMARK 924 INTRA-LIGAND FREE ENERGY PREDICTED BY IDOCK:   -0.96 KCAL/MOL
REMARK 927      BINDING AFFINITY PREDICTED BY RF-SCORE:    0.00 PKD
ROOT
HETATM    1  C   UNL     1     -10.632  15.122  66.119  1.00  0.00    -0.313 C  
HETATM    2  C   UNL     1     -11.401  15.742  67.295  1.00  0.00    -0.059 C  
HETATM    3  C   UNL     1     -11.616  14.608  68.285  1.00  0.00    -0.353 C  
HETATM    4  C   UNL     1     -10.952  13.377  67.653  1.00  0.00    -0.259 C  
HETATM    5  C   UNL     1      -9.485  13.296  68.079  1.00  0.00    -0.219 C  
HETATM    6  N   UNL     1     -11.061  13.631  66.127  1.00  0.00    -0.294 N  
HETATM    7  C   UNL     1      -8.554  14.358  67.466  1.00  0.00    -0.191 C  
HETATM    8  C   UNL     1     -12.534  13.503  65.666  1.00  0.00    -0.479 C  
HETATM    9  C   UNL     1      -9.129  15.256  66.360  1.00  0.00    -0.347 C  
ENDROOT
BRANCH   6  10
HETATM   10  C   UNL     1     -10.172  12.675  65.244  1.00  0.00    -0.284 C  
HETATM   11  C   UNL     1     -10.538  12.766  63.761  1.00  0.00    -0.370 C  
HETATM   12  C   UNL     1     -10.225  11.224  65.733  1.00  0.00    -0.301 C  
ENDBRANCH   6  10
BRANCH   7  13
HETATM   13  O   UNL     1      -8.027  15.189  68.518  1.00  0.00    -0.130 OA 
BRANCH  13  14
HETATM   14  C   UNL     1      -7.113  16.123  68.088  1.00  0.00    -0.131 C  
HETATM   15  C   UNL     1      -7.294  17.434  68.829  1.00  0.00    -0.257 C  
HETATM   16  O   UNL     1      -6.297  15.915  67.198  1.00  0.00    -0.283 OA 
HETATM   17  C   UNL     1      -5.920  18.080  69.041  1.00  0.00    -0.217 C  
HETATM   18  C   UNL     1      -8.266  18.336  68.094  1.00  0.00    -0.295 A  
HETATM   19  C   UNL     1      -9.459  18.738  68.712  1.00  0.00    -0.380 A  
HETATM   20  O   UNL     1      -5.130  17.259  69.903  1.00  0.00    -0.161 OA 
HETATM   21  H   UNL     1      -4.279  17.660  70.034  1.00  0.00     0.000 HD 
HETATM   22  C   UNL     1     -10.376  19.541  68.031  1.00  0.00    -0.564 A  
HETATM   23  C   UNL     1     -10.111  19.951  66.726  1.00  0.00    -0.586 A  
HETATM   24  C   UNL     1      -8.929  19.564  66.101  1.00  0.00    -0.342 A  
HETATM   25  C   UNL     1      -8.010  18.763  66.781  1.00  0.00    -0.265 A  
ENDBRANCH  13  14
ENDBRANCH   7  13
TORSDOF 3
ENDMDL
MODEL       13
REMARK 921   NORMALIZED FREE ENERGY PREDICTED BY IDOCK:   -5.85 KCAL/MOL
REMARK 922        TOTAL FREE ENERGY PREDICTED BY IDOCK:   -7.95 KCAL/MOL
REMARK 923 INTER-LIGAND FREE ENERGY PREDICTED BY IDOCK:   -7.13 KCAL/MOL
REMARK 924 INTRA-LIGAND FREE ENERGY PREDICTED BY IDOCK:   -0.82 KCAL/MOL
REMARK 927      BINDING AFFINITY PREDICTED BY RF-SCORE:    0.00 PKD
ROOT
HETATM    1  C   UNL     1     -12.143  14.328  66.468  1.00  0.00    -0.429 C  
HETATM    2  C   UNL     1     -12.651  13.362  65.388  1.00  0.00    -0.528 C  
HETATM    3  C   UNL     1     -11.407  12.855  64.676  1.00  0.00    -0.361 C  
HETATM    4  C   UNL     1     -10.223  13.535  65.378  1.00  0.00    -0.302 C  
HETATM    5  C   UNL     1      -9.745  12.674  66.549  1.00  0.00    -0.256 C  
HETATM    6  N   UNL     1     -10.809  14.875  65.893  1.00  0.00    -0.324 N  
HETATM    7  C   UNL     1     -10.690  12.618  67.764  1.00  0.00    -0.220 C  
HETATM    8  C   UNL     1     -11.097  15.826  64.706  1.00  0.00    -0.400 C  
HETATM    9  C   UNL     1     -11.901  13.562  67.769  1.00  0.00    -0.398 C  
ENDROOT
BRANCH   6  10
HETATM   10  C   UNL     1      -9.894  15.628  66.932  1.00  0.00    -0.238 C  
HETATM   11  C   UNL     1     -10.622  16.807  67.583  1.00  0.00    -0.325 C  
HETATM   12  C   UNL     1      -8.568  16.080  66.310  1.00  0.00    -0.363 C  
ENDBRANCH   6  10
BRANCH   7  13
HETATM   13  O   UNL     1     -11.150  11.265  67.942  1.00  0.00    -0.226 OA 
BRANCH  13  14
HETATM   14  C   UNL     1     -10.624  10.637  69.048  1.00  0.00    -0.219 C  
HETATM   15  C   UNL     1      -9.460   9.746  68.658  1.00  0.00    -0.151 C  
HETATM   16  O   UNL     1     -11.075  10.765  70.180  1.00  0.00    -0.281 OA 
HETATM   17  C   UNL     1      -8.412   9.777  69.779  1.00  0.00    -0.193 C  
HETATM   18  C   UNL     1      -9.940   8.345  68.336  1.00  0.00    -0.208 A  
HETATM   19  C   UNL     1      -9.746   7.811  67.054  1.00  0.00    -0.259 A  
HETATM   20  O   UNL     1      -7.867  11.092  69.890  1.00  0.00    -0.274 OA 
HETATM   21  H   UNL     1      -7.218  11.111  70.584  1.00  0.00     0.000 HD 
HETATM   22  C   UNL     1     -10.215   6.535  66.737  1.00  0.00    -0.257 A  
HETATM   23  C   UNL     1     -10.883   5.778  67.697  1.00  0.00    -0.264 A  
HETATM   24  C   UNL     1     -11.079   6.293  68.976  1.00  0.00    -0.446 A  
HETATM   25  C   UNL     1     -10.610   7.567  69.295  1.00  0.00    -0.215 A  
ENDBRANCH  13  14
ENDBRANCH   7  13
TORSDOF 3
ENDMDL
MODEL       14
REMARK 921   NORMALIZED FREE ENERGY PREDICTED BY IDOCK:   -5.82 KCAL/MOL
REMARK 922        TOTAL FREE ENERGY PREDICTED BY IDOCK:   -7.92 KCAL/MOL
REMARK 923 INTER-LIGAND FREE ENERGY PREDICTED BY IDOCK:   -6.83 KCAL/MOL
REMARK 924 INTRA-LIGAND FREE ENERGY PREDICTED BY IDOCK:   -1.09 KCAL/MOL
REMARK 927      BINDING AFFINITY PREDICTED BY RF-SCORE:    0.00 PKD
ROOT
HETATM    1  C   UNL     1      -9.570  17.038  68.633  1.00  0.00    -0.275 C  
HETATM    2  C   UNL     1     -10.658  18.003  68.142  1.00  0.00    -0.334 C  
HETATM    3  C   UNL     1     -10.092  18.656  66.891  1.00  0.00    -0.399 C  
HETATM    4  C   UNL     1      -8.701  18.036  66.696  1.00  0.00    -0.259 C  
HETATM    5  C   UNL     1      -8.806  16.778  65.832  1.00  0.00    -0.088 C  
HETATM    6  N   UNL     1      -8.245  17.672  68.132  1.00  0.00    -0.249 N  
HETATM    7  C   UNL     1      -9.471  15.562  66.503  1.00  0.00    -0.273 C  
HETATM    8  C   UNL     1      -7.938  18.958  68.939  1.00  0.00    -0.265 C  
HETATM    9  C   UNL     1      -9.784  15.660  68.005  1.00  0.00    -0.204 C  
ENDROOT
BRANCH   6  10
HETATM   10  C   UNL     1      -6.986  16.725  68.195  1.00  0.00    -0.157 C  
HETATM   11  C   UNL     1      -6.577  16.415  69.636  1.00  0.00    -0.180 C  
HETATM   12  C   UNL     1      -5.803  17.287  67.399  1.00  0.00    -0.162 C  
ENDBRANCH   6  10
BRANCH   7  13
HETATM   13  O   UNL     1     -10.681  15.234  65.794  1.00  0.00    -0.317 OA 
BRANCH  13  14
HETATM   14  C   UNL     1     -10.659  13.994  65.198  1.00  0.00    -0.386 C  
HETATM   15  C   UNL     1     -11.817  13.143  65.686  1.00  0.00    -0.430 C  
HETATM   16  O   UNL     1      -9.792  13.633  64.411  1.00  0.00    -0.165 OA 
HETATM   17  C   UNL     1     -12.309  12.262  64.530  1.00  0.00    -0.384 C  
HETATM   18  C   UNL     1     -11.416  12.343  66.910  1.00  0.00    -0.423 A  
HETATM   19  C   UNL     1     -12.084  12.538  68.127  1.00  0.00    -0.124 A  
HETATM   20  O   UNL     1     -12.849  13.086  63.496  1.00  0.00    -0.664 OA 
HETATM   21  H   UNL     1     -13.154  12.540  62.780  1.00  0.00     0.000 HD 
HETATM   22  C   UNL     1     -11.700  11.831  69.269  1.00  0.00    -0.398 A  
HETATM   23  C   UNL     1     -10.646  10.923  69.206  1.00  0.00    -0.251 A  
HETATM   24  C   UNL     1      -9.976  10.715  68.004  1.00  0.00    -0.180 A  
HETATM   25  C   UNL     1     -10.359  11.419  66.861  1.00  0.00    -0.262 A  
ENDBRANCH  13  14
ENDBRANCH   7  13
TORSDOF 3
ENDMDL
MODEL       15
REMARK 921   NORMALIZED FREE ENERGY PREDICTED BY IDOCK:   -5.79 KCAL/MOL
REMARK 922        TOTAL FREE ENERGY PREDICTED BY IDOCK:   -7.88 KCAL/MOL
REMARK 923 INTER-LIGAND FREE ENERGY PREDICTED BY IDOCK:   -6.71 KCAL/MOL
REMARK 924 INTRA-LIGAND FREE ENERGY PREDICTED BY IDOCK:   -1.17 KCAL/MOL
REMARK 927      BINDING AFFINITY PREDICTED BY RF-SCORE:    0.00 PKD
ROOT
HETATM    1  C   UNL     1      -9.046  11.905  68.256  1.00  0.00    -0.183 C  
HETATM    2  C   UNL     1      -7.739  12.354  67.586  1.00  0.00    -0.151 C  
HETATM    3  C   UNL     1      -7.491  11.357  66.464  1.00  0.00    -0.068 C  
HETATM    4  C   UNL     1      -8.670  10.375  66.518  1.00  0.00    -0.136 C  
HETATM    5  C   UNL     1      -9.813  10.882  65.636  1.00  0.00    -0.292 C  
HETATM    6  N   UNL     1      -9.093  10.374  68.009  1.00  0.00    -0.135 N  
HETATM    7  C   UNL     1     -10.564  12.119  66.165  1.00  0.00    -0.255 C  
HETATM    8  C   UNL     1      -8.017   9.667  68.871  1.00  0.00    -0.089 C  
HETATM    9  C   UNL     1     -10.232  12.600  67.586  1.00  0.00    -0.217 C  
ENDROOT
BRANCH   6  10
HETATM   10  C   UNL     1     -10.488   9.696  68.289  1.00  0.00    -0.219 C  
HETATM   11  C   UNL     1     -10.966   9.944  69.721  1.00  0.00    -0.304 C  
HETATM   12  C   UNL     1     -10.475   8.197  67.969  1.00  0.00    -0.242 C  
ENDBRANCH   6  10
BRANCH   7  13
HETATM   13  O   UNL     1     -10.379  13.212  65.245  1.00  0.00    -0.294 OA 
BRANCH  13  14
HETATM   14  C   UNL     1     -11.075  14.350  65.583  1.00  0.00    -0.321 C  
HETATM   15  C   UNL     1     -10.231  15.587  65.344  1.00  0.00    -0.409 C  
HETATM   16  O   UNL     1     -12.209  14.340  66.049  1.00  0.00    -0.421 OA 
HETATM   17  C   UNL     1     -11.141  16.727  64.869  1.00  0.00    -0.054 C  
HETATM   18  C   UNL     1      -9.436  15.943  66.585  1.00  0.00    -0.263 A  
HETATM   19  C   UNL     1      -8.034  15.950  66.545  1.00  0.00    -0.231 A  
HETATM   20  O   UNL     1     -11.702  16.395  63.599  1.00  0.00    -1.520 OA 
HETATM   21  H   UNL     1     -12.266  17.102  63.304  1.00  0.00     0.000 HD 
HETATM   22  C   UNL     1      -7.293  16.242  67.692  1.00  0.00    -0.161 A  
HETATM   23  C   UNL     1      -7.943  16.531  68.889  1.00  0.00    -0.239 A  
HETATM   24  C   UNL     1      -9.334  16.533  68.943  1.00  0.00    -0.256 A  
HETATM   25  C   UNL     1     -10.078  16.242  67.798  1.00  0.00    -0.252 A  
ENDBRANCH  13  14
ENDBRANCH   7  13
TORSDOF 3
ENDMDL
MODEL       16
REMARK 921   NORMALIZED FREE ENERGY PREDICTED BY IDOCK:   -5.76 KCAL/MOL
REMARK 922        TOTAL FREE ENERGY PREDICTED BY IDOCK:   -7.85 KCAL/MOL
REMARK 923 INTER-LIGAND FREE ENERGY PREDICTED BY IDOCK:   -6.84 KCAL/MOL
REMARK 924 INTRA-LIGAND FREE ENERGY PREDICTED BY IDOCK:   -1.01 KCAL/MOL
REMARK 927      BINDING AFFINITY PREDICTED BY RF-SCORE:    0.00 PKD
ROOT
HETATM    1  C   UNL     1      -8.080  10.688  66.697  1.00  0.00    -0.136 C  
HETATM    2  C   UNL     1      -8.344  10.175  65.274  1.00  0.00    -0.162 C  
HETATM    3  C   UNL     1      -9.760   9.621  65.296  1.00  0.00    -0.330 C  
HETATM    4  C   UNL     1     -10.269   9.846  66.727  1.00  0.00    -0.236 C  
HETATM    5  C   UNL     1     -10.943  11.216  66.833  1.00  0.00    -0.333 C  
HETATM    6  N   UNL     1      -8.985   9.804  67.595  1.00  0.00    -0.128 N  
HETATM    7  C   UNL     1      -9.998  12.430  66.767  1.00  0.00    -0.225 C  
HETATM    8  C   UNL     1      -8.424   8.361  67.652  1.00  0.00    -0.130 C  
HETATM    9  C   UNL     1      -8.486  12.159  66.796  1.00  0.00    -0.138 C  
ENDROOT
BRANCH   6  10
HETATM   10  C   UNL     1      -9.179  10.328  69.069  1.00  0.00    -0.183 C  
HETATM   11  C   UNL     1      -7.924  10.118  69.918  1.00  0.00    -0.149 C  
HETATM   12  C   UNL     1     -10.407   9.707  69.744  1.00  0.00    -0.266 C  
ENDBRANCH   6  10
BRANCH   7  13
HETATM   13  O   UNL     1     -10.311  13.209  65.597  1.00  0.00    -0.276 OA 
BRANCH  13  14
HETATM   14  C   UNL     1     -10.944  14.400  65.871  1.00  0.00    -0.312 C  
HETATM   15  C   UNL     1     -10.058  15.576  65.505  1.00  0.00    -0.406 C  
HETATM   16  O   UNL     1     -12.057  14.477  66.378  1.00  0.00    -0.385 OA 
HETATM   17  C   UNL     1     -10.938  16.717  64.978  1.00  0.00    -0.162 C  
HETATM   18  C   UNL     1      -9.198  15.987  66.684  1.00  0.00    -0.276 A  
HETATM   19  C   UNL     1      -7.801  15.928  66.591  1.00  0.00    -0.236 A  
HETATM   20  O   UNL     1     -11.565  16.316  63.759  1.00  0.00    -1.539 OA 
HETATM   21  H   UNL     1     -12.110  17.022  63.432  1.00  0.00     0.000 HD 
HETATM   22  C   UNL     1      -7.001  16.272  67.683  1.00  0.00    -0.168 A  
HETATM   23  C   UNL     1      -7.589  16.681  68.878  1.00  0.00    -0.240 A  
HETATM   24  C   UNL     1      -8.975  16.750  68.984  1.00  0.00    -0.188 A  
HETATM   25  C   UNL     1      -9.777  16.407  67.894  1.00  0.00    -0.235 A  
ENDBRANCH  13  14
ENDBRANCH   7  13
TORSDOF 3
ENDMDL
MODEL       17
REMARK 921   NORMALIZED FREE ENERGY PREDICTED BY IDOCK:   -5.70 KCAL/MOL
REMARK 922        TOTAL FREE ENERGY PREDICTED BY IDOCK:   -7.78 KCAL/MOL
REMARK 923 INTER-LIGAND FREE ENERGY PREDICTED BY IDOCK:   -6.83 KCAL/MOL
REMARK 924 INTRA-LIGAND FREE ENERGY PREDICTED BY IDOCK:   -0.95 KCAL/MOL
REMARK 927      BINDING AFFINITY PREDICTED BY RF-SCORE:    0.00 PKD
ROOT
HETATM    1  C   UNL     1      -7.582  10.033  66.775  1.00  0.00    -0.103 C  
HETATM    2  C   UNL     1      -7.837   9.135  65.557  1.00  0.00    -0.095 C  
HETATM    3  C   UNL     1      -9.111   8.367  65.875  1.00  0.00    -0.225 C  
HETATM    4  C   UNL     1      -9.552   8.858  67.262  1.00  0.00    -0.164 C  
HETATM    5  C   UNL     1     -10.476  10.069  67.117  1.00  0.00    -0.305 C  
HETATM    6  N   UNL     1      -8.229   9.264  67.958  1.00  0.00    -0.115 N  
HETATM    7  C   UNL     1      -9.798  11.372  66.654  1.00  0.00    -0.205 C  
HETATM    8  C   UNL     1      -7.389   8.005  68.290  1.00  0.00    -0.095 C  
HETATM    9  C   UNL     1      -8.264  11.386  66.570  1.00  0.00    -0.152 C  
ENDROOT
BRANCH   6  10
HETATM   10  C   UNL     1      -8.419  10.105  69.277  1.00  0.00    -0.163 C  
HETATM   11  C   UNL     1      -7.082  10.590  69.842  1.00  0.00    -0.148 C  
HETATM   12  C   UNL     1      -9.215   9.339  70.339  1.00  0.00    -0.291 C  
ENDBRANCH   6  10
BRANCH   7  13
HETATM   13  O   UNL     1     -10.341  11.758  65.377  1.00  0.00    -0.247 OA 
BRANCH  13  14
HETATM   14  C   UNL     1     -11.401  12.632  65.463  1.00  0.00    -0.321 C  
HETATM   15  C   UNL     1     -10.979  14.031  65.058  1.00  0.00    -0.379 C  
HETATM   16  O   UNL     1     -12.517  12.309  65.852  1.00  0.00    -0.535 OA 
HETATM   17  C   UNL     1     -12.146  14.713  64.331  1.00  0.00    -0.462 C  
HETATM   18  C   UNL     1     -10.492  14.814  66.261  1.00  0.00    -0.300 A  
HETATM   19  C   UNL     1      -9.173  15.288  66.306  1.00  0.00    -0.350 A  
HETATM   20  O   UNL     1     -12.417  14.026  63.109  1.00  0.00    -1.137 OA 
HETATM   21  H   UNL     1     -13.140  14.448  62.659  1.00  0.00     0.000 HD 
HETATM   22  C   UNL     1      -8.705  15.981  67.425  1.00  0.00    -0.195 A  
HETATM   23  C   UNL     1      -9.550  16.208  68.509  1.00  0.00    -0.215 A  
HETATM   24  C   UNL     1     -10.863  15.748  68.477  1.00  0.00    -0.290 A  
HETATM   25  C   UNL     1     -11.334  15.057  67.359  1.00  0.00    -0.338 A  
ENDBRANCH  13  14
ENDBRANCH   7  13
TORSDOF 3
ENDMDL
MODEL       18
REMARK 921   NORMALIZED FREE ENERGY PREDICTED BY IDOCK:   -5.67 KCAL/MOL
REMARK 922        TOTAL FREE ENERGY PREDICTED BY IDOCK:   -7.74 KCAL/MOL
REMARK 923 INTER-LIGAND FREE ENERGY PREDICTED BY IDOCK:   -6.92 KCAL/MOL
REMARK 924 INTRA-LIGAND FREE ENERGY PREDICTED BY IDOCK:   -0.82 KCAL/MOL
REMARK 927      BINDING AFFINITY PREDICTED BY RF-SCORE:    0.00 PKD
ROOT
HETATM    1  C   UNL     1      -9.945  13.722  65.983  1.00  0.00    -0.306 C  
HETATM    2  C   UNL     1     -10.249  14.748  67.085  1.00  0.00    -0.245 C  
HETATM    3  C   UNL     1     -11.669  14.449  67.540  1.00  0.00    -0.416 C  
HETATM    4  C   UNL     1     -12.130  13.253  66.695  1.00  0.00    -0.361 C  
HETATM    5  C   UNL     1     -11.769  11.944  67.400  1.00  0.00    -0.326 C  
HETATM    6  N   UNL     1     -11.334  13.395  65.372  1.00  0.00    -0.290 N  
HETATM    7  C   UNL     1     -10.269  11.596  67.431  1.00  0.00    -0.203 C  
HETATM    8  C   UNL     1     -11.852  14.610  64.562  1.00  0.00    -0.431 C  
HETATM    9  C   UNL     1      -9.317  12.473  66.603  1.00  0.00    -0.236 C  
ENDROOT
BRANCH   6  10
HETATM   10  C   UNL     1     -11.373  12.119  64.448  1.00  0.00    -0.344 C  
HETATM   11  C   UNL     1     -10.196  12.086  63.472  1.00  0.00    -0.477 C  
HETATM   12  C   UNL     1     -12.706  11.989  63.704  1.00  0.00    -0.550 C  
ENDBRANCH   6  10
BRANCH   7  13
HETATM   13  O   UNL     1      -9.818  11.576  68.798  1.00  0.00    -0.201 OA 
BRANCH  13  14
HETATM   14  C   UNL     1      -8.846  10.636  69.052  1.00  0.00    -0.148 C  
HETATM   15  C   UNL     1      -9.416   9.233  68.953  1.00  0.00    -0.154 C  
HETATM   16  O   UNL     1      -7.691  10.916  69.353  1.00  0.00    -0.134 OA 
HETATM   17  C   UNL     1      -8.345   8.301  68.372  1.00  0.00    -0.132 C  
HETATM   18  C   UNL     1      -9.937   8.770  70.298  1.00  0.00    -0.210 A  
HETATM   19  C   UNL     1     -11.294   8.453  70.457  1.00  0.00    -0.228 A  
HETATM   20  O   UNL     1      -8.048   8.689  67.030  1.00  0.00    -0.099 OA 
HETATM   21  H   UNL     1      -7.384   8.111  66.669  1.00  0.00     0.000 HD 
HETATM   22  C   UNL     1     -11.790   8.057  71.700  1.00  0.00    -0.329 A  
HETATM   23  C   UNL     1     -10.938   7.974  72.799  1.00  0.00    -0.449 A  
HETATM   24  C   UNL     1      -9.587   8.280  72.656  1.00  0.00    -0.352 A  
HETATM   25  C   UNL     1      -9.088   8.674  71.413  1.00  0.00    -0.295 A  
ENDBRANCH  13  14
ENDBRANCH   7  13
TORSDOF 3
ENDMDL
MODEL       19
REMARK 921   NORMALIZED FREE ENERGY PREDICTED BY IDOCK:   -5.65 KCAL/MOL
REMARK 922        TOTAL FREE ENERGY PREDICTED BY IDOCK:   -7.72 KCAL/MOL
REMARK 923 INTER-LIGAND FREE ENERGY PREDICTED BY IDOCK:   -7.14 KCAL/MOL
REMARK 924 INTRA-LIGAND FREE ENERGY PREDICTED BY IDOCK:   -0.58 KCAL/MOL
REMARK 927      BINDING AFFINITY PREDICTED BY RF-SCORE:    0.00 PKD
ROOT
HETATM    1  C   UNL     1      -9.224  13.342  66.829  1.00  0.00    -0.236 C  
HETATM    2  C   UNL     1      -8.740  14.164  68.032  1.00  0.00    -0.177 C  
HETATM    3  C   UNL     1      -9.930  15.014  68.451  1.00  0.00    -0.225 C  
HETATM    4  C   UNL     1     -11.063  14.642  67.485  1.00  0.00    -0.313 C  
HETATM    5  C   UNL     1     -11.868  13.470  68.049  1.00  0.00    -0.400 C  
HETATM    6  N   UNL     1     -10.329  14.222  66.186  1.00  0.00    -0.290 N  
HETATM    7  C   UNL     1     -11.152  12.107  68.045  1.00  0.00    -0.244 C  
HETATM    8  C   UNL     1      -9.689  15.459  65.507  1.00  0.00    -0.283 C  
HETATM    9  C   UNL     1      -9.803  12.013  67.315  1.00  0.00    -0.200 C  
ENDROOT
BRANCH   6  10
HETATM   10  C   UNL     1     -11.241  13.484  65.133  1.00  0.00    -0.309 C  
HETATM   11  C   UNL     1     -10.413  12.789  64.050  1.00  0.00    -0.433 C  
HETATM   12  C   UNL     1     -12.277  14.426  64.509  1.00  0.00    -0.483 C  
ENDBRANCH   6  10
BRANCH   7  13
HETATM   13  O   UNL     1     -10.981  11.659  69.403  1.00  0.00    -0.223 OA 
BRANCH  13  14
HETATM   14  C   UNL     1     -12.026  10.898  69.876  1.00  0.00    -0.353 C  
HETATM   15  C   UNL     1     -11.733  10.395  71.277  1.00  0.00    -0.320 C  
HETATM   16  O   UNL     1     -13.030  10.643  69.222  1.00  0.00     0.019 OA 
HETATM   17  C   UNL     1     -13.041  10.361  72.077  1.00  0.00    -0.416 C  
HETATM   18  C   UNL     1     -11.034   9.050  71.228  1.00  0.00    -0.384 A  
HETATM   19  C   UNL     1      -9.747   8.906  71.765  1.00  0.00    -0.365 A  
HETATM   20  O   UNL     1     -13.536  11.691  72.244  1.00  0.00    -0.610 OA 
HETATM   21  H   UNL     1     -14.346  11.670  72.740  1.00  0.00     0.000 HD 
HETATM   22  C   UNL     1      -9.082   7.680  71.695  1.00  0.00    -0.157 A  
HETATM   23  C   UNL     1      -9.695   6.586  71.089  1.00  0.00    -0.188 A  
HETATM   24  C   UNL     1     -10.974   6.713  70.555  1.00  0.00    -0.337 A  
HETATM   25  C   UNL     1     -11.642   7.936  70.626  1.00  0.00    -0.215 A  
ENDBRANCH  13  14
ENDBRANCH   7  13
TORSDOF 3
ENDMDL
MODEL       20
REMARK 921   NORMALIZED FREE ENERGY PREDICTED BY IDOCK:   -5.61 KCAL/MOL
REMARK 922        TOTAL FREE ENERGY PREDICTED BY IDOCK:   -7.67 KCAL/MOL
REMARK 923 INTER-LIGAND FREE ENERGY PREDICTED BY IDOCK:   -6.58 KCAL/MOL
REMARK 924 INTRA-LIGAND FREE ENERGY PREDICTED BY IDOCK:   -1.10 KCAL/MOL
REMARK 927      BINDING AFFINITY PREDICTED BY RF-SCORE:    0.00 PKD
ROOT
HETATM    1  C   UNL     1      -8.875   9.877  69.552  1.00  0.00    -0.197 C  
HETATM    2  C   UNL     1      -7.673   9.688  68.615  1.00  0.00    -0.080 C  
HETATM    3  C   UNL     1      -8.053   8.541  67.690  1.00  0.00    -0.107 C  
HETATM    4  C   UNL     1      -9.465   8.117  68.117  1.00  0.00    -0.141 C  
HETATM    5  C   UNL     1     -10.510   8.918  67.337  1.00  0.00    -0.347 C  
HETATM    6  N   UNL     1      -9.526   8.470  69.625  1.00  0.00    -0.164 N  
HETATM    7  C   UNL     1     -10.628  10.406  67.716  1.00  0.00    -0.250 C  
HETATM    8  C   UNL     1      -8.619   7.512  70.437  1.00  0.00    -0.143 C  
HETATM    9  C   UNL     1      -9.844  10.892  68.946  1.00  0.00    -0.203 C  
ENDROOT
BRANCH   6  10
HETATM   10  C   UNL     1     -10.975   8.436  70.244  1.00  0.00    -0.232 C  
HETATM   11  C   UNL     1     -11.037   9.158  71.591  1.00  0.00    -0.445 C  
HETATM   12  C   UNL     1     -11.517   7.008  70.363  1.00  0.00    -0.355 C  
ENDBRANCH   6  10
BRANCH   7  13
HETATM   13  O   UNL     1     -10.265  11.213  66.580  1.00  0.00    -0.216 OA 
BRANCH  13  14
HETATM   14  C   UNL     1     -11.187  12.186  66.268  1.00  0.00    -0.334 C  
HETATM   15  C   UNL     1     -10.510  13.532  66.094  1.00  0.00    -0.296 C  
HETATM   16  O   UNL     1     -12.392  11.978  66.186  1.00  0.00    -0.449 OA 
HETATM   17  C   UNL     1     -11.233  14.313  64.989  1.00  0.00    -0.364 C  
HETATM   18  C   UNL     1     -10.458  14.281  67.411  1.00  0.00    -0.264 A  
HETATM   19  C   UNL     1      -9.222  14.626  67.976  1.00  0.00    -0.197 A  
HETATM   20  O   UNL     1     -11.071  13.639  63.740  1.00  0.00    -0.532 OA 
HETATM   21  H   UNL     1     -11.519  14.122  63.055  1.00  0.00     0.000 HD 
HETATM   22  C   UNL     1      -9.163  15.286  69.205  1.00  0.00    -0.233 A  
HETATM   23  C   UNL     1     -10.337  15.609  69.882  1.00  0.00    -0.322 A  
HETATM   24  C   UNL     1     -11.572  15.278  69.331  1.00  0.00    -0.347 A  
HETATM   25  C   UNL     1     -11.634  14.620  68.101  1.00  0.00    -0.362 A  
ENDBRANCH  13  14
ENDBRANCH   7  13
TORSDOF 3
ENDMDL
MODEL       21
REMARK 921   NORMALIZED FREE ENERGY PREDICTED BY IDOCK:   -5.58 KCAL/MOL
REMARK 922        TOTAL FREE ENERGY PREDICTED BY IDOCK:   -7.63 KCAL/MOL
REMARK 923 INTER-LIGAND FREE ENERGY PREDICTED BY IDOCK:   -6.74 KCAL/MOL
REMARK 924 INTRA-LIGAND FREE ENERGY PREDICTED BY IDOCK:   -0.89 KCAL/MOL
REMARK 927      BINDING AFFINITY PREDICTED BY RF-SCORE:    0.00 PKD
ROOT
HETATM    1  C   UNL     1     -11.599  12.817  67.476  1.00  0.00    -0.356 C  
HETATM    2  C   UNL     1     -10.845  12.465  68.767  1.00  0.00    -0.263 C  
HETATM    3  C   UNL     1      -9.378  12.388  68.375  1.00  0.00    -0.158 C  
HETATM    4  C   UNL     1      -9.334  12.712  66.874  1.00  0.00    -0.228 C  
HETATM    5  C   UNL     1      -9.175  14.219  66.669  1.00  0.00    -0.276 C  
HETATM    6  N   UNL     1     -10.711  12.234  66.345  1.00  0.00    -0.244 N  
HETATM    7  C   UNL     1     -10.407  15.073  67.019  1.00  0.00    -0.269 C  
HETATM    8  C   UNL     1     -10.784  10.687  66.361  1.00  0.00    -0.129 C  
HETATM    9  C   UNL     1     -11.715  14.336  67.348  1.00  0.00    -0.422 C  
ENDROOT
BRANCH   6  10
HETATM   10  C   UNL     1     -11.061  12.740  64.894  1.00  0.00    -0.292 C  
HETATM   11  C   UNL     1     -12.542  12.543  64.563  1.00  0.00    -0.503 C  
HETATM   12  C   UNL     1     -10.171  12.091  63.828  1.00  0.00    -0.447 C  
ENDBRANCH   6  10
BRANCH   7  13
HETATM   13  O   UNL     1     -10.078  15.952  68.111  1.00  0.00    -0.224 OA 
BRANCH  13  14
HETATM   14  C   UNL     1     -10.320  17.282  67.851  1.00  0.00    -0.360 C  
HETATM   15  C   UNL     1      -9.274  17.843  66.907  1.00  0.00    -0.267 C  
HETATM   16  O   UNL     1     -11.239  17.917  68.355  1.00  0.00     0.137 OA 
HETATM   17  C   UNL     1      -9.938  18.873  65.984  1.00  0.00    -0.271 C  
HETATM   18  C   UNL     1      -8.101  18.411  67.681  1.00  0.00    -0.257 A  
HETATM   19  C   UNL     1      -6.817  17.873  67.510  1.00  0.00    -0.192 A  
HETATM   20  O   UNL     1     -10.897  18.223  65.149  1.00  0.00    -0.656 OA 
HETATM   21  H   UNL     1     -11.308  18.861  64.578  1.00  0.00     0.000 HD 
HETATM   22  C   UNL     1      -5.737  18.367  68.244  1.00  0.00    -0.174 A  
HETATM   23  C   UNL     1      -5.927  19.403  69.156  1.00  0.00    -0.283 A  
HETATM   24  C   UNL     1      -7.194  19.951  69.333  1.00  0.00    -0.205 A  
HETATM   25  C   UNL     1      -8.276  19.460  68.599  1.00  0.00    -0.399 A  
ENDBRANCH  13  14
ENDBRANCH   7  13
TORSDOF 3
ENDMDL
MODEL       22
REMARK 921   NORMALIZED FREE ENERGY PREDICTED BY IDOCK:   -5.52 KCAL/MOL
REMARK 922        TOTAL FREE ENERGY PREDICTED BY IDOCK:   -7.56 KCAL/MOL
REMARK 923 INTER-LIGAND FREE ENERGY PREDICTED BY IDOCK:   -6.71 KCAL/MOL
REMARK 924 INTRA-LIGAND FREE ENERGY PREDICTED BY IDOCK:   -0.85 KCAL/MOL
REMARK 927      BINDING AFFINITY PREDICTED BY RF-SCORE:    0.00 PKD
ROOT
HETATM    1  C   UNL     1     -11.133   6.935  70.909  1.00  0.00    -0.272 C  
HETATM    2  C   UNL     1     -12.471   7.661  71.104  1.00  0.00    -0.273 C  
HETATM    3  C   UNL     1     -12.118   9.013  71.705  1.00  0.00    -0.438 C  
HETATM    4  C   UNL     1     -10.587   9.025  71.823  1.00  0.00    -0.356 C  
HETATM    5  C   UNL     1      -9.969   9.581  70.539  1.00  0.00    -0.335 C  
HETATM    6  N   UNL     1     -10.211   7.532  72.005  1.00  0.00    -0.193 N  
HETATM    7  C   UNL     1     -10.064   8.667  69.304  1.00  0.00    -0.202 C  
HETATM    8  C   UNL     1     -10.660   7.032  73.401  1.00  0.00    -0.364 C  
HETATM    9  C   UNL     1     -10.584   7.237  69.514  1.00  0.00    -0.244 C  
ENDROOT
BRANCH   6  10
HETATM   10  C   UNL     1      -8.676   7.222  71.828  1.00  0.00    -0.116 C  
HETATM   11  C   UNL     1      -8.389   5.720  71.874  1.00  0.00    -0.119 C  
HETATM   12  C   UNL     1      -7.816   7.974  72.849  1.00  0.00    -0.190 C  
ENDBRANCH   6  10
BRANCH   7  13
HETATM   13  O   UNL     1     -10.867   9.315  68.298  1.00  0.00    -0.179 OA 
BRANCH  13  14
HETATM   14  C   UNL     1     -10.190   9.585  67.131  1.00  0.00    -0.242 C  
HETATM   15  C   UNL     1      -9.651  11.003  67.138  1.00  0.00    -0.189 C  
HETATM   16  O   UNL     1     -10.081   8.786  66.208  1.00  0.00    -0.291 OA 
HETATM   17  C   UNL     1      -8.301  11.026  66.410  1.00  0.00    -0.165 C  
HETATM   18  C   UNL     1     -10.661  11.963  66.543  1.00  0.00    -0.293 A  
HETATM   19  C   UNL     1     -11.185  13.006  67.321  1.00  0.00    -0.325 A  
HETATM   20  O   UNL     1      -7.348  10.252  67.140  1.00  0.00    -0.089 OA 
HETATM   21  H   UNL     1      -6.512  10.266  66.689  1.00  0.00     0.000 HD 
HETATM   22  C   UNL     1     -12.142  13.875  66.792  1.00  0.00    -0.476 A  
HETATM   23  C   UNL     1     -12.584  13.713  65.481  1.00  0.00    -0.541 A  
HETATM   24  C   UNL     1     -12.070  12.685  64.695  1.00  0.00    -0.484 A  
HETATM   25  C   UNL     1     -11.113  11.816  65.220  1.00  0.00    -0.333 A  
ENDBRANCH  13  14
ENDBRANCH   7  13
TORSDOF 3
ENDMDL
MODEL       23
REMARK 921   NORMALIZED FREE ENERGY PREDICTED BY IDOCK:   -5.50 KCAL/MOL
REMARK 922        TOTAL FREE ENERGY PREDICTED BY IDOCK:   -7.54 KCAL/MOL
REMARK 923 INTER-LIGAND FREE ENERGY PREDICTED BY IDOCK:   -6.49 KCAL/MOL
REMARK 924 INTRA-LIGAND FREE ENERGY PREDICTED BY IDOCK:   -1.06 KCAL/MOL
REMARK 927      BINDING AFFINITY PREDICTED BY RF-SCORE:    0.00 PKD
ROOT
HETATM    1  C   UNL     1      -9.429   8.340  66.214  1.00  0.00    -0.203 C  
HETATM    2  C   UNL     1     -10.593   7.714  66.996  1.00  0.00    -0.406 C  
HETATM    3  C   UNL     1     -10.384   8.129  68.444  1.00  0.00    -0.236 C  
HETATM    4  C   UNL     1      -9.113   8.992  68.446  1.00  0.00    -0.133 C  
HETATM    5  C   UNL     1      -9.478  10.459  68.215  1.00  0.00    -0.153 C  
HETATM    6  N   UNL     1      -8.283   8.444  67.256  1.00  0.00    -0.112 N  
HETATM    7  C   UNL     1      -9.953  10.812  66.793  1.00  0.00    -0.206 C  
HETATM    8  C   UNL     1      -7.741   7.031  67.586  1.00  0.00    -0.112 C  
HETATM    9  C   UNL     1      -9.834   9.726  65.712  1.00  0.00    -0.360 C  
ENDROOT
BRANCH   6  10
HETATM   10  C   UNL     1      -7.075   9.361  66.830  1.00  0.00    -0.082 C  
HETATM   11  C   UNL     1      -6.404   8.861  65.549  1.00  0.00    -0.063 C  
HETATM   12  C   UNL     1      -6.050   9.524  67.957  1.00  0.00    -0.052 C  
ENDBRANCH   6  10
BRANCH   7  13
HETATM   13  O   UNL     1     -11.317  11.268  66.850  1.00  0.00    -0.379 OA 
BRANCH  13  14
HETATM   14  C   UNL     1     -11.550  12.424  66.141  1.00  0.00    -0.396 C  
HETATM   15  C   UNL     1     -10.350  13.349  66.211  1.00  0.00    -0.291 C  
HETATM   16  O   UNL     1     -12.606  12.669  65.569  1.00  0.00    -0.634 OA 
HETATM   17  C   UNL     1     -10.212  14.087  64.873  1.00  0.00    -0.348 C  
HETATM   18  C   UNL     1     -10.464  14.288  67.396  1.00  0.00    -0.264 A  
HETATM   19  C   UNL     1      -9.499  14.258  68.413  1.00  0.00    -0.213 A  
HETATM   20  O   UNL     1      -9.913  13.151  63.837  1.00  0.00    -0.760 OA 
HETATM   21  H   UNL     1      -9.827  13.608  63.008  1.00  0.00     0.000 HD 
HETATM   22  C   UNL     1      -9.614  15.095  69.525  1.00  0.00    -0.158 A  
HETATM   23  C   UNL     1     -10.693  15.970  69.633  1.00  0.00    -0.316 A  
HETATM   24  C   UNL     1     -11.656  16.014  68.629  1.00  0.00    -0.343 A  
HETATM   25  C   UNL     1     -11.542  15.180  67.515  1.00  0.00    -0.268 A  
ENDBRANCH  13  14
ENDBRANCH   7  13
TORSDOF 3
ENDMDL
MODEL       24
REMARK 921   NORMALIZED FREE ENERGY PREDICTED BY IDOCK:   -5.50 KCAL/MOL
REMARK 922        TOTAL FREE ENERGY PREDICTED BY IDOCK:   -7.54 KCAL/MOL
REMARK 923 INTER-LIGAND FREE ENERGY PREDICTED BY IDOCK:   -6.80 KCAL/MOL
REMARK 924 INTRA-LIGAND FREE ENERGY PREDICTED BY IDOCK:   -0.74 KCAL/MOL
REMARK 927      BINDING AFFINITY PREDICTED BY RF-SCORE:    0.00 PKD
ROOT
HETATM    1  C   UNL     1      -9.171  12.445  66.098  1.00  0.00    -0.101 C  
HETATM    2  C   UNL     1      -9.072  13.199  67.431  1.00  0.00    -0.208 C  
HETATM    3  C   UNL     1     -10.486  13.227  67.992  1.00  0.00    -0.248 C  
HETATM    4  C   UNL     1     -11.350  12.476  66.968  1.00  0.00    -0.328 C  
HETATM    5  C   UNL     1     -11.384  10.984  67.308  1.00  0.00    -0.265 C  
HETATM    6  N   UNL     1     -10.624  12.708  65.618  1.00  0.00    -0.268 N  
HETATM    7  C   UNL     1     -10.074  10.214  67.062  1.00  0.00    -0.223 C  
HETATM    8  C   UNL     1     -10.773  14.186  65.177  1.00  0.00    -0.388 C  
HETATM    9  C   UNL     1      -8.940  10.952  66.333  1.00  0.00    -0.186 C  
ENDROOT
BRANCH   6  10
HETATM   10  C   UNL     1     -11.119  11.779  64.445  1.00  0.00    -0.334 C  
HETATM   11  C   UNL     1     -10.074  11.661  63.333  1.00  0.00    -0.468 C  
HETATM   12  C   UNL     1     -12.469  12.233  63.882  1.00  0.00    -0.586 C  
ENDBRANCH   6  10
BRANCH   7  13
HETATM   13  O   UNL     1      -9.577   9.715  68.318  1.00  0.00    -0.139 OA 
BRANCH  13  14
HETATM   14  C   UNL     1      -9.450   8.346  68.364  1.00  0.00    -0.139 C  
HETATM   15  C   UNL     1     -10.741   7.702  68.834  1.00  0.00    -0.117 C  
HETATM   16  O   UNL     1      -8.414   7.750  68.095  1.00  0.00    -0.123 OA 
HETATM   17  C   UNL     1     -10.927   6.368  68.101  1.00  0.00    -0.307 C  
HETATM   18  C   UNL     1     -10.750   7.555  70.343  1.00  0.00    -0.248 A  
HETATM   19  C   UNL     1     -11.727   8.207  71.108  1.00  0.00    -0.309 A  
HETATM   20  O   UNL     1     -11.106   6.608  66.704  1.00  0.00    -0.574 OA 
HETATM   21  H   UNL     1     -11.221   5.781  66.250  1.00  0.00     0.000 HD 
HETATM   22  C   UNL     1     -11.723   8.105  72.501  1.00  0.00    -0.457 A  
HETATM   23  C   UNL     1     -10.744   7.351  73.143  1.00  0.00    -0.436 A  
HETATM   24  C   UNL     1      -9.770   6.694  72.396  1.00  0.00    -0.162 A  
HETATM   25  C   UNL     1      -9.772   6.793  71.004  1.00  0.00    -0.182 A  
ENDBRANCH  13  14
ENDBRANCH   7  13
TORSDOF 3
ENDMDL
MODEL       25
REMARK 921   NORMALIZED FREE ENERGY PREDICTED BY IDOCK:   -5.50 KCAL/MOL
REMARK 922        TOTAL FREE ENERGY PREDICTED BY IDOCK:   -7.54 KCAL/MOL
REMARK 923 INTER-LIGAND FREE ENERGY PREDICTED BY IDOCK:   -6.56 KCAL/MOL
REMARK 924 INTRA-LIGAND FREE ENERGY PREDICTED BY IDOCK:   -0.98 KCAL/MOL
REMARK 927      BINDING AFFINITY PREDICTED BY RF-SCORE:    0.00 PKD
ROOT
HETATM    1  C   UNL     1     -11.668  14.981  67.287  1.00  0.00    -0.223 C  
HETATM    2  C   UNL     1     -12.283  15.146  68.684  1.00  0.00    -0.067 C  
HETATM    3  C   UNL     1     -11.307  14.479  69.641  1.00  0.00    -0.314 C  
HETATM    4  C   UNL     1     -10.157  13.963  68.764  1.00  0.00    -0.157 C  
HETATM    5  C   UNL     1      -9.080  15.041  68.627  1.00  0.00    -0.191 C  
HETATM    6  N   UNL     1     -10.824  13.683  67.393  1.00  0.00    -0.270 N  
HETATM    7  C   UNL     1      -9.460  16.255  67.759  1.00  0.00    -0.221 C  
HETATM    8  C   UNL     1     -11.759  12.453  67.493  1.00  0.00    -0.357 C  
HETATM    9  C   UNL     1     -10.778  16.184  66.972  1.00  0.00    -0.254 C  
ENDROOT
BRANCH   6  10
HETATM   10  C   UNL     1      -9.808  13.449  66.211  1.00  0.00    -0.290 C  
HETATM   11  C   UNL     1     -10.512  13.413  64.853  1.00  0.00    -0.404 C  
HETATM   12  C   UNL     1      -8.959  12.191  66.422  1.00  0.00    -0.138 C  
ENDBRANCH   6  10
BRANCH   7  13
HETATM   13  O   UNL     1      -9.469  17.438  68.580  1.00  0.00    -0.280 OA 
BRANCH  13  14
HETATM   14  C   UNL     1      -8.778  18.498  68.039  1.00  0.00    -0.295 C  
HETATM   15  C   UNL     1      -7.307  18.160  67.887  1.00  0.00    -0.225 C  
HETATM   16  O   UNL     1      -9.294  19.575  67.761  1.00  0.00    -0.307 OA 
HETATM   17  C   UNL     1      -6.771  18.832  66.616  1.00  0.00    -0.194 C  
HETATM   18  C   UNL     1      -6.535  18.548  69.133  1.00  0.00    -0.277 A  
HETATM   19  C   UNL     1      -5.866  17.568  69.880  1.00  0.00    -0.249 A  
HETATM   20  O   UNL     1      -7.412  18.273  65.470  1.00  0.00    -0.537 OA 
HETATM   21  H   UNL     1      -7.080  18.689  64.683  1.00  0.00     0.000 HD 
HETATM   22  C   UNL     1      -5.181  17.910  71.048  1.00  0.00    -0.241 A  
HETATM   23  C   UNL     1      -5.157  19.234  71.481  1.00  0.00    -0.338 A  
HETATM   24  C   UNL     1      -5.812  20.218  70.747  1.00  0.00    -0.341 A  
HETATM   25  C   UNL     1      -6.496  19.879  69.578  1.00  0.00    -0.389 A  
ENDBRANCH  13  14
ENDBRANCH   7  13
TORSDOF 3
ENDMDL
MODEL       26
REMARK 921   NORMALIZED FREE ENERGY PREDICTED BY IDOCK:   -5.47 KCAL/MOL
REMARK 922        TOTAL FREE ENERGY PREDICTED BY IDOCK:   -7.51 KCAL/MOL
REMARK 923 INTER-LIGAND FREE ENERGY PREDICTED BY IDOCK:   -6.70 KCAL/MOL
REMARK 924 INTRA-LIGAND FREE ENERGY PREDICTED BY IDOCK:   -0.81 KCAL/MOL
REMARK 927      BINDING AFFINITY PREDICTED BY RF-SCORE:    0.00 PKD
ROOT
HETATM    1  C   UNL     1      -8.327  19.359  68.528  1.00  0.00    -0.363 C  
HETATM    2  C   UNL     1      -9.758  19.914  68.547  1.00  0.00    -0.421 C  
HETATM    3  C   UNL     1     -10.387  19.468  67.235  1.00  0.00    -0.566 C  
HETATM    4  C   UNL     1      -9.300  18.661  66.511  1.00  0.00    -0.320 C  
HETATM    5  C   UNL     1      -9.396  17.185  66.905  1.00  0.00    -0.260 C  
HETATM    6  N   UNL     1      -7.971  19.274  67.019  1.00  0.00    -0.252 N  
HETATM    7  C   UNL     1      -8.962  16.852  68.345  1.00  0.00    -0.244 C  
HETATM    8  C   UNL     1      -7.783  20.699  66.442  1.00  0.00     0.009 C  
HETATM    9  C   UNL     1      -8.305  17.971  69.169  1.00  0.00     0.101 C  
ENDROOT
BRANCH   6  10
HETATM   10  C   UNL     1      -6.690  18.421  66.682  1.00  0.00    -0.194 C  
HETATM   11  C   UNL     1      -5.435  18.989  67.350  1.00  0.00    -0.162 C  
HETATM   12  C   UNL     1      -6.483  18.264  65.172  1.00  0.00     0.007 C  
ENDBRANCH   6  10
BRANCH   7  13
HETATM   13  O   UNL     1     -10.093  16.337  69.072  1.00  0.00    -0.232 OA 
BRANCH  13  14
HETATM   14  C   UNL     1     -10.380  15.019  68.798  1.00  0.00    -0.240 C  
HETATM   15  C   UNL     1     -11.873  14.821  68.616  1.00  0.00    -0.334 C  
HETATM   16  O   UNL     1      -9.533  14.135  68.752  1.00  0.00    -0.186 OA 
HETATM   17  C   UNL     1     -12.105  13.751  67.541  1.00  0.00    -0.331 C  
HETATM   18  C   UNL     1     -12.536  14.486  69.937  1.00  0.00    -0.300 A  
HETATM   19  C   UNL     1     -13.518  15.334  70.467  1.00  0.00    -0.128 A  
HETATM   20  O   UNL     1     -11.625  14.223  66.282  1.00  0.00    -0.349 OA 
HETATM   21  H   UNL     1     -11.769  13.560  65.616  1.00  0.00     0.000 HD 
HETATM   22  C   UNL     1     -14.110  15.052  71.700  1.00  0.00    -0.619 A  
HETATM   23  C   UNL     1     -13.727  13.920  72.416  1.00  0.00    -0.678 A  
HETATM   24  C   UNL     1     -12.756  13.066  71.901  1.00  0.00    -0.212 A  
HETATM   25  C   UNL     1     -12.164  13.344  70.668  1.00  0.00    -0.427 A  
ENDBRANCH  13  14
ENDBRANCH   7  13
TORSDOF 3
ENDMDL
MODEL       27
REMARK 921   NORMALIZED FREE ENERGY PREDICTED BY IDOCK:   -5.46 KCAL/MOL
REMARK 922        TOTAL FREE ENERGY PREDICTED BY IDOCK:   -7.49 KCAL/MOL
REMARK 923 INTER-LIGAND FREE ENERGY PREDICTED BY IDOCK:   -6.60 KCAL/MOL
REMARK 924 INTRA-LIGAND FREE ENERGY PREDICTED BY IDOCK:   -0.89 KCAL/MOL
REMARK 927      BINDING AFFINITY PREDICTED BY RF-SCORE:    0.00 PKD
ROOT
HETATM    1  C   UNL     1      -8.990  11.138  66.795  1.00  0.00    -0.165 C  
HETATM    2  C   UNL     1      -9.383  11.292  65.318  1.00  0.00    -0.225 C  
HETATM    3  C   UNL     1     -10.833  11.748  65.327  1.00  0.00    -0.343 C  
HETATM    4  C   UNL     1     -11.224  11.854  66.808  1.00  0.00    -0.327 C  
HETATM    5  C   UNL     1     -10.916  13.259  67.330  1.00  0.00    -0.287 C  
HETATM    6  N   UNL     1     -10.326  10.804  67.511  1.00  0.00    -0.196 N  
HETATM    7  C   UNL     1      -9.422  13.595  67.496  1.00  0.00    -0.222 C  
HETATM    8  C   UNL     1     -10.782   9.372  67.137  1.00  0.00    -0.163 C  
HETATM    9  C   UNL     1      -8.410  12.454  67.312  1.00  0.00    -0.184 C  
ENDROOT
BRANCH   6  10
HETATM   10  C   UNL     1     -10.289  10.927  69.082  1.00  0.00    -0.208 C  
HETATM   11  C   UNL     1      -9.317   9.926  69.709  1.00  0.00    -0.248 C  
HETATM   12  C   UNL     1     -11.685  10.798  69.702  1.00  0.00    -0.395 C  
ENDBRANCH   6  10
BRANCH   7  13
HETATM   13  O   UNL     1      -9.079  14.673  66.604  1.00  0.00    -0.252 OA 
BRANCH  13  14
HETATM   14  C   UNL     1      -8.059  15.475  67.063  1.00  0.00    -0.237 C  
HETATM   15  C   UNL     1      -8.547  16.380  68.179  1.00  0.00    -0.193 C  
HETATM   16  O   UNL     1      -6.927  15.469  66.594  1.00  0.00    -0.072 OA 
HETATM   17  C   UNL     1      -7.416  16.566  69.199  1.00  0.00    -0.218 C  
HETATM   18  C   UNL     1      -9.061  17.692  67.619  1.00  0.00    -0.241 A  
HETATM   19  C   UNL     1     -10.400  18.062  67.811  1.00  0.00    -0.403 A  
HETATM   20  O   UNL     1      -7.121  15.315  69.822  1.00  0.00    -0.186 OA 
HETATM   21  H   UNL     1      -6.421  15.430  70.454  1.00  0.00     0.000 HD 
HETATM   22  C   UNL     1     -10.891  19.252  67.271  1.00  0.00    -0.554 A  
HETATM   23  C   UNL     1     -10.051  20.085  66.534  1.00  0.00    -0.606 A  
HETATM   24  C   UNL     1      -8.719  19.732  66.340  1.00  0.00    -0.412 A  
HETATM   25  C   UNL     1      -8.224  18.544  66.880  1.00  0.00    -0.266 A  
ENDBRANCH  13  14
ENDBRANCH   7  13
TORSDOF 3
ENDMDL
MODEL       28
REMARK 921   NORMALIZED FREE ENERGY PREDICTED BY IDOCK:   -5.46 KCAL/MOL
REMARK 922        TOTAL FREE ENERGY PREDICTED BY IDOCK:   -7.49 KCAL/MOL
REMARK 923 INTER-LIGAND FREE ENERGY PREDICTED BY IDOCK:   -7.21 KCAL/MOL
REMARK 924 INTRA-LIGAND FREE ENERGY PREDICTED BY IDOCK:   -0.28 KCAL/MOL
REMARK 927      BINDING AFFINITY PREDICTED BY RF-SCORE:    0.00 PKD
ROOT
HETATM    1  C   UNL     1     -11.801  13.783  66.955  1.00  0.00    -0.413 C  
HETATM    2  C   UNL     1     -11.998  12.649  65.939  1.00  0.00    -0.497 C  
HETATM    3  C   UNL     1     -10.601  12.276  65.467  1.00  0.00    -0.304 C  
HETATM    4  C   UNL     1      -9.646  13.199  66.238  1.00  0.00    -0.234 C  
HETATM    5  C   UNL     1      -9.234  12.542  67.556  1.00  0.00    -0.188 C  
HETATM    6  N   UNL     1     -10.486  14.474  66.505  1.00  0.00    -0.281 N  
HETATM    7  C   UNL     1     -10.334  12.457  68.631  1.00  0.00    -0.182 C  
HETATM    8  C   UNL     1     -10.722  15.247  65.184  1.00  0.00    -0.436 C  
HETATM    9  C   UNL     1     -11.654  13.196  68.359  1.00  0.00    -0.372 C  
ENDROOT
BRANCH   6  10
HETATM   10  C   UNL     1      -9.855  15.459  67.561  1.00  0.00    -0.217 C  
HETATM   11  C   UNL     1     -10.833  16.564  67.965  1.00  0.00    -0.337 C  
HETATM   12  C   UNL     1      -8.530  16.054  67.072  1.00  0.00    -0.245 C  
ENDBRANCH   6  10
BRANCH   7  13
HETATM   13  O   UNL     1     -10.620  11.073  68.905  1.00  0.00    -0.188 OA 
BRANCH  13  14
HETATM   14  C   UNL     1     -11.852  10.860  69.481  1.00  0.00    -0.332 C  
HETATM   15  C   UNL     1     -11.721  10.688  70.982  1.00  0.00    -0.329 C  
HETATM   16  O   UNL     1     -12.896  10.785  68.844  1.00  0.00     0.061 OA 
HETATM   17  C   UNL     1     -12.947  11.309  71.663  1.00  0.00    -0.432 C  
HETATM   18  C   UNL     1     -11.521   9.228  71.340  1.00  0.00    -0.439 A  
HETATM   19  C   UNL     1     -10.349   8.817  71.991  1.00  0.00    -0.411 A  
HETATM   20  O   UNL     1     -12.957  12.720  71.440  1.00  0.00    -0.360 OA 
HETATM   21  H   UNL     1     -13.717  13.105  71.862  1.00  0.00     0.000 HD 
HETATM   22  C   UNL     1     -10.141   7.470  72.294  1.00  0.00    -0.244 A  
HETATM   23  C   UNL     1     -11.101   6.520  71.950  1.00  0.00    -0.300 A  
HETATM   24  C   UNL     1     -12.271   6.914  71.308  1.00  0.00    -0.427 A  
HETATM   25  C   UNL     1     -12.483   8.260  71.006  1.00  0.00    -0.103 A  
ENDBRANCH  13  14
ENDBRANCH   7  13
TORSDOF 3
ENDMDL
MODEL       29
REMARK 921   NORMALIZED FREE ENERGY PREDICTED BY IDOCK:   -5.46 KCAL/MOL
REMARK 922        TOTAL FREE ENERGY PREDICTED BY IDOCK:   -7.49 KCAL/MOL
REMARK 923 INTER-LIGAND FREE ENERGY PREDICTED BY IDOCK:   -6.54 KCAL/MOL
REMARK 924 INTRA-LIGAND FREE ENERGY PREDICTED BY IDOCK:   -0.95 KCAL/MOL
REMARK 927      BINDING AFFINITY PREDICTED BY RF-SCORE:    0.00 PKD
ROOT
HETATM    1  C   UNL     1      -7.536  17.826  66.228  1.00  0.00    -0.293 C  
HETATM    2  C   UNL     1      -6.134  17.511  66.769  1.00  0.00    -0.219 C  
HETATM    3  C   UNL     1      -6.175  17.875  68.246  1.00  0.00    -0.178 C  
HETATM    4  C   UNL     1      -7.603  18.374  68.507  1.00  0.00    -0.301 C  
HETATM    5  C   UNL     1      -8.502  17.202  68.906  1.00  0.00    -0.187 C  
HETATM    6  N   UNL     1      -8.052  18.965  67.147  1.00  0.00    -0.260 N  
HETATM    7  C   UNL     1      -8.844  16.212  67.778  1.00  0.00    -0.183 C  
HETATM    8  C   UNL     1      -7.279  20.274  66.848  1.00  0.00    -0.270 C  
HETATM    9  C   UNL     1      -8.423  16.587  66.348  1.00  0.00    -0.357 C  
ENDROOT
BRANCH   6  10
HETATM   10  C   UNL     1      -9.597  19.258  67.042  1.00  0.00    -0.324 C  
HETATM   11  C   UNL     1      -9.951  19.998  65.751  1.00  0.00    -0.386 C  
HETATM   12  C   UNL     1     -10.124  20.013  68.268  1.00  0.00    -0.531 C  
ENDBRANCH   6  10
BRANCH   7  13
HETATM   13  O   UNL     1      -8.299  14.919  68.103  1.00  0.00    -0.136 OA 
BRANCH  13  14
HETATM   14  C   UNL     1      -9.237  14.009  68.534  1.00  0.00    -0.170 C  
HETATM   15  C   UNL     1      -9.306  12.822  67.593  1.00  0.00    -0.191 C  
HETATM   16  O   UNL     1      -9.937  14.174  69.525  1.00  0.00     0.148 OA 
HETATM   17  C   UNL     1      -9.588  11.555  68.410  1.00  0.00    -0.195 C  
HETATM   18  C   UNL     1     -10.329  13.061  66.500  1.00  0.00    -0.278 A  
HETATM   19  C   UNL     1      -9.930  13.091  65.156  1.00  0.00    -0.170 A  
HETATM   20  O   UNL     1      -8.487  11.289  69.280  1.00  0.00    -0.376 OA 
HETATM   21  H   UNL     1      -8.662  10.504  69.787  1.00  0.00     0.000 HD 
HETATM   22  C   UNL     1     -10.859  13.345  64.145  1.00  0.00    -0.313 A  
HETATM   23  C   UNL     1     -12.195  13.572  64.465  1.00  0.00    -0.445 A  
HETATM   24  C   UNL     1     -12.607  13.540  65.794  1.00  0.00    -0.490 A  
HETATM   25  C   UNL     1     -11.681  13.285  66.807  1.00  0.00    -0.434 A  
ENDBRANCH  13  14
ENDBRANCH   7  13
TORSDOF 3
ENDMDL
MODEL       30
REMARK 921   NORMALIZED FREE ENERGY PREDICTED BY IDOCK:   -5.45 KCAL/MOL
REMARK 922        TOTAL FREE ENERGY PREDICTED BY IDOCK:   -7.48 KCAL/MOL
REMARK 923 INTER-LIGAND FREE ENERGY PREDICTED BY IDOCK:   -6.51 KCAL/MOL
REMARK 924 INTRA-LIGAND FREE ENERGY PREDICTED BY IDOCK:   -0.96 KCAL/MOL
REMARK 927      BINDING AFFINITY PREDICTED BY RF-SCORE:    0.00 PKD
ROOT
HETATM    1  C   UNL     1     -11.813  13.135  66.892  1.00  0.00    -0.386 C  
HETATM    2  C   UNL     1     -12.508  12.909  65.542  1.00  0.00    -0.462 C  
HETATM    3  C   UNL     1     -11.392  12.871  64.509  1.00  0.00    -0.382 C  
HETATM    4  C   UNL     1     -10.091  13.064  65.301  1.00  0.00    -0.231 C  
HETATM    5  C   UNL     1      -9.545  11.707  65.748  1.00  0.00    -0.255 C  
HETATM    6  N   UNL     1     -10.518  13.909  66.528  1.00  0.00    -0.279 N  
HETATM    7  C   UNL     1     -10.346  10.998  66.856  1.00  0.00    -0.235 C  
HETATM    8  C   UNL     1     -10.871  15.352  66.090  1.00  0.00    -0.313 C  
HETATM    9  C   UNL     1     -11.479  11.787  67.531  1.00  0.00    -0.373 C  
ENDROOT
BRANCH   6  10
HETATM   10  C   UNL     1      -9.439  13.981  67.676  1.00  0.00    -0.210 C  
HETATM   11  C   UNL     1      -9.965  14.722  68.906  1.00  0.00    -0.233 C  
HETATM   12  C   UNL     1      -8.122  14.594  67.189  1.00  0.00    -0.213 C  
ENDBRANCH   6  10
BRANCH   7  13
HETATM   13  O   UNL     1     -10.878   9.764  66.339  1.00  0.00    -0.003 OA 
BRANCH  13  14
HETATM   14  C   UNL     1     -10.093   8.665  66.602  1.00  0.00    -0.294 C  
HETATM   15  C   UNL     1     -10.742   7.780  67.649  1.00  0.00    -0.227 C  
HETATM   16  O   UNL     1      -9.004   8.466  66.078  1.00  0.00    -0.166 OA 
HETATM   17  C   UNL     1     -10.432   6.313  67.323  1.00  0.00    -0.254 C  
HETATM   18  C   UNL     1     -10.299   8.183  69.042  1.00  0.00    -0.229 A  
HETATM   19  C   UNL     1     -11.242   8.627  69.980  1.00  0.00    -0.098 A  
HETATM   20  O   UNL     1     -11.048   5.956  66.085  1.00  0.00    -0.683 OA 
HETATM   21  H   UNL     1     -10.856   5.047  65.883  1.00  0.00     0.000 HD 
HETATM   22  C   UNL     1     -10.840   9.033  71.254  1.00  0.00    -0.385 A  
HETATM   23  C   UNL     1      -9.492   8.999  71.604  1.00  0.00    -0.293 A  
HETATM   24  C   UNL     1      -8.545   8.556  70.685  1.00  0.00    -0.163 A  
HETATM   25  C   UNL     1      -8.944   8.148  69.412  1.00  0.00    -0.147 A  
ENDBRANCH  13  14
ENDBRANCH   7  13
TORSDOF 3
ENDMDL
MODEL       31
REMARK 921   NORMALIZED FREE ENERGY PREDICTED BY IDOCK:   -5.44 KCAL/MOL
REMARK 922        TOTAL FREE ENERGY PREDICTED BY IDOCK:   -7.48 KCAL/MOL
REMARK 923 INTER-LIGAND FREE ENERGY PREDICTED BY IDOCK:   -6.85 KCAL/MOL
REMARK 924 INTRA-LIGAND FREE ENERGY PREDICTED BY IDOCK:   -0.62 KCAL/MOL
REMARK 927      BINDING AFFINITY PREDICTED BY RF-SCORE:    0.00 PKD
ROOT
HETATM    1  C   UNL     1     -10.080   8.900  69.744  1.00  0.00    -0.199 C  
HETATM    2  C   UNL     1      -9.028   9.425  70.731  1.00  0.00    -0.254 C  
HETATM    3  C   UNL     1      -7.955  10.079  69.875  1.00  0.00    -0.184 C  
HETATM    4  C   UNL     1      -8.431   9.920  68.424  1.00  0.00    -0.111 C  
HETATM    5  C   UNL     1      -9.295  11.118  68.023  1.00  0.00    -0.166 C  
HETATM    6  N   UNL     1      -9.278   8.622  68.444  1.00  0.00    -0.138 N  
HETATM    7  C   UNL     1     -10.686  11.185  68.681  1.00  0.00    -0.198 C  
HETATM    8  C   UNL     1      -8.363   7.388  68.643  1.00  0.00    -0.129 C  
HETATM    9  C   UNL     1     -11.143   9.973  69.507  1.00  0.00    -0.279 C  
ENDROOT
BRANCH   6  10
HETATM   10  C   UNL     1     -10.155   8.397  67.154  1.00  0.00    -0.265 C  
HETATM   11  C   UNL     1     -10.802   7.010  67.140  1.00  0.00    -0.427 C  
HETATM   12  C   UNL     1      -9.360   8.643  65.868  1.00  0.00    -0.262 C  
ENDBRANCH   6  10
BRANCH   7  13
HETATM   13  O   UNL     1     -10.764  12.367  69.501  1.00  0.00     0.054 OA 
BRANCH  13  14
HETATM   14  C   UNL     1     -11.487  13.392  68.935  1.00  0.00    -0.304 C  
HETATM   15  C   UNL     1     -11.115  14.722  69.564  1.00  0.00    -0.302 C  
HETATM   16  O   UNL     1     -12.338  13.227  68.070  1.00  0.00    -0.168 OA 
HETATM   17  C   UNL     1     -11.173  15.814  68.489  1.00  0.00    -0.354 C  
HETATM   18  C   UNL     1     -12.002  15.018  70.757  1.00  0.00    -0.371 A  
HETATM   19  C   UNL     1     -11.441  15.161  72.034  1.00  0.00    -0.450 A  
HETATM   20  O   UNL     1     -10.174  15.567  67.499  1.00  0.00    -0.246 OA 
HETATM   21  H   UNL     1     -10.210  16.244  66.832  1.00  0.00     0.000 HD 
HETATM   22  C   UNL     1     -12.253  15.400  73.144  1.00  0.00    -0.567 A  
HETATM   23  C   UNL     1     -13.634  15.499  72.991  1.00  0.00    -0.593 A  
HETATM   24  C   UNL     1     -14.206  15.364  71.729  1.00  0.00    -0.632 A  
HETATM   25  C   UNL     1     -13.396  15.127  70.617  1.00  0.00    -0.304 A  
ENDBRANCH  13  14
ENDBRANCH   7  13
TORSDOF 3
ENDMDL
MODEL       32
REMARK 921   NORMALIZED FREE ENERGY PREDICTED BY IDOCK:   -5.44 KCAL/MOL
REMARK 922        TOTAL FREE ENERGY PREDICTED BY IDOCK:   -7.47 KCAL/MOL
REMARK 923 INTER-LIGAND FREE ENERGY PREDICTED BY IDOCK:   -6.86 KCAL/MOL
REMARK 924 INTRA-LIGAND FREE ENERGY PREDICTED BY IDOCK:   -0.61 KCAL/MOL
REMARK 927      BINDING AFFINITY PREDICTED BY RF-SCORE:    0.00 PKD
ROOT
HETATM    1  C   UNL     1      -9.145   8.772  69.031  1.00  0.00    -0.141 C  
HETATM    2  C   UNL     1      -7.803   9.389  68.612  1.00  0.00    -0.088 C  
HETATM    3  C   UNL     1      -7.596   8.973  67.164  1.00  0.00    -0.091 C  
HETATM    4  C   UNL     1      -8.833   8.141  66.793  1.00  0.00    -0.138 C  
HETATM    5  C   UNL     1      -9.928   9.053  66.237  1.00  0.00    -0.352 C  
HETATM    6  N   UNL     1      -9.280   7.510  68.136  1.00  0.00    -0.138 N  
HETATM    7  C   UNL     1     -10.612   9.974  67.264  1.00  0.00    -0.257 C  
HETATM    8  C   UNL     1      -8.263   6.433  68.588  1.00  0.00    -0.121 C  
HETATM    9  C   UNL     1     -10.276   9.761  68.748  1.00  0.00    -0.210 C  
ENDROOT
BRANCH   6  10
HETATM   10  C   UNL     1     -10.718   6.865  68.105  1.00  0.00    -0.205 C  
HETATM   11  C   UNL     1     -11.094   6.245  69.453  1.00  0.00    -0.477 C  
HETATM   12  C   UNL     1     -10.865   5.843  66.973  1.00  0.00    -0.379 C  
ENDBRANCH   6  10
BRANCH   7  13
HETATM   13  O   UNL     1     -10.347  11.347  66.916  1.00  0.00    -0.213 OA 
BRANCH  13  14
HETATM   14  C   UNL     1     -11.469  12.144  66.896  1.00  0.00    -0.351 C  
HETATM   15  C   UNL     1     -11.363  13.191  65.803  1.00  0.00    -0.331 C  
HETATM   16  O   UNL     1     -12.397  12.031  67.687  1.00  0.00    -0.345 OA 
HETATM   17  C   UNL     1     -12.758  13.435  65.211  1.00  0.00    -0.422 C  
HETATM   18  C   UNL     1     -10.715  14.455  66.331  1.00  0.00    -0.306 A  
HETATM   19  C   UNL     1      -9.507  14.909  65.783  1.00  0.00    -0.237 A  
HETATM   20  O   UNL     1     -13.218  12.249  64.562  1.00  0.00    -0.799 OA 
HETATM   21  H   UNL     1     -14.082  12.400  64.196  1.00  0.00     0.000 HD 
HETATM   22  C   UNL     1      -8.885  16.054  66.285  1.00  0.00    -0.379 A  
HETATM   23  C   UNL     1      -9.462  16.757  67.340  1.00  0.00    -0.236 A  
HETATM   24  C   UNL     1     -10.664  16.321  67.892  1.00  0.00    -0.329 A  
HETATM   25  C   UNL     1     -11.289  15.178  67.390  1.00  0.00    -0.309 A  
ENDBRANCH  13  14
ENDBRANCH   7  13
TORSDOF 3
ENDMDL
MODEL       33
REMARK 921   NORMALIZED FREE ENERGY PREDICTED BY IDOCK:   -5.43 KCAL/MOL
REMARK 922        TOTAL FREE ENERGY PREDICTED BY IDOCK:   -7.46 KCAL/MOL
REMARK 923 INTER-LIGAND FREE ENERGY PREDICTED BY IDOCK:   -6.62 KCAL/MOL
REMARK 924 INTRA-LIGAND FREE ENERGY PREDICTED BY IDOCK:   -0.84 KCAL/MOL
REMARK 927      BINDING AFFINITY PREDICTED BY RF-SCORE:    0.00 PKD
ROOT
HETATM    1  C   UNL     1     -10.625  10.684  66.264  1.00  0.00    -0.161 C  
HETATM    2  C   UNL     1     -10.892  10.451  67.758  1.00  0.00    -0.351 C  
HETATM    3  C   UNL     1      -9.524  10.456  68.423  1.00  0.00    -0.151 C  
HETATM    4  C   UNL     1      -8.516  10.704  67.291  1.00  0.00    -0.126 C  
HETATM    5  C   UNL     1      -8.289  12.207  67.114  1.00  0.00    -0.183 C  
HETATM    6  N   UNL     1      -9.202  10.106  66.036  1.00  0.00    -0.152 N  
HETATM    7  C   UNL     1      -9.466  12.991  66.505  1.00  0.00    -0.245 C  
HETATM    8  C   UNL     1      -9.241   8.561  66.130  1.00  0.00    -0.211 C  
HETATM    9  C   UNL     1     -10.656  12.183  65.964  1.00  0.00    -0.292 C  
ENDROOT
BRANCH   6  10
HETATM   10  C   UNL     1      -8.528  10.512  64.671  1.00  0.00    -0.139 C  
HETATM   11  C   UNL     1      -9.365  10.071  63.468  1.00  0.00    -0.301 C  
HETATM   12  C   UNL     1      -7.092   9.987  64.560  1.00  0.00    -0.139 C  
ENDBRANCH   6  10
BRANCH   7  13
HETATM   13  O   UNL     1      -9.948  13.945  67.470  1.00  0.00    -0.234 OA 
BRANCH  13  14
HETATM   14  C   UNL     1     -10.838  14.859  66.955  1.00  0.00    -0.315 C  
HETATM   15  C   UNL     1     -10.143  15.804  65.992  1.00  0.00    -0.359 C  
HETATM   16  O   UNL     1     -12.020  14.910  67.274  1.00  0.00    -0.316 OA 
HETATM   17  C   UNL     1     -11.112  16.157  64.856  1.00  0.00    -0.325 C  
HETATM   18  C   UNL     1      -9.617  17.023  66.723  1.00  0.00    -0.274 A  
HETATM   19  C   UNL     1      -8.242  17.297  66.736  1.00  0.00    -0.279 A  
HETATM   20  O   UNL     1     -11.408  14.985  64.096  1.00  0.00    -0.636 OA 
HETATM   21  H   UNL     1     -12.007  15.205  63.392  1.00  0.00     0.000 HD 
HETATM   22  C   UNL     1      -7.744  18.399  67.435  1.00  0.00    -0.226 A  
HETATM   23  C   UNL     1      -8.614  19.239  68.127  1.00  0.00    -0.363 A  
HETATM   24  C   UNL     1      -9.982  18.982  68.119  1.00  0.00    -0.449 A  
HETATM   25  C   UNL     1     -10.483  17.883  67.420  1.00  0.00    -0.390 A  
ENDBRANCH  13  14
ENDBRANCH   7  13
TORSDOF 3
ENDMDL
MODEL       34
REMARK 921   NORMALIZED FREE ENERGY PREDICTED BY IDOCK:   -5.42 KCAL/MOL
REMARK 922        TOTAL FREE ENERGY PREDICTED BY IDOCK:   -7.45 KCAL/MOL
REMARK 923 INTER-LIGAND FREE ENERGY PREDICTED BY IDOCK:   -6.88 KCAL/MOL
REMARK 924 INTRA-LIGAND FREE ENERGY PREDICTED BY IDOCK:   -0.57 KCAL/MOL
REMARK 927      BINDING AFFINITY PREDICTED BY RF-SCORE:    0.00 PKD
ROOT
HETATM    1  C   UNL     1     -10.336   9.595  67.520  1.00  0.00    -0.241 C  
HETATM    2  C   UNL     1     -10.319   9.184  69.000  1.00  0.00    -0.229 C  
HETATM    3  C   UNL     1      -8.967   9.634  69.533  1.00  0.00    -0.203 C  
HETATM    4  C   UNL     1      -8.257  10.301  68.346  1.00  0.00    -0.114 C  
HETATM    5  C   UNL     1      -8.591  11.793  68.308  1.00  0.00    -0.162 C  
HETATM    6  N   UNL     1      -8.841   9.581  67.104  1.00  0.00    -0.131 N  
HETATM    7  C   UNL     1     -10.033  12.142  67.895  1.00  0.00    -0.200 C  
HETATM    8  C   UNL     1      -8.326   8.122  67.038  1.00  0.00    -0.116 C  
HETATM    9  C   UNL     1     -10.924  10.999  67.384  1.00  0.00    -0.349 C  
ENDROOT
BRANCH   6  10
HETATM   10  C   UNL     1      -8.523  10.290  65.732  1.00  0.00    -0.157 C  
HETATM   11  C   UNL     1      -9.370   9.725  64.589  1.00  0.00    -0.318 C  
HETATM   12  C   UNL     1      -7.031  10.235  65.388  1.00  0.00    -0.139 C  
ENDBRANCH   6  10
BRANCH   7  13
HETATM   13  O   UNL     1     -10.694  12.795  68.995  1.00  0.00    -0.197 OA 
BRANCH  13  14
HETATM   14  C   UNL     1     -11.462  13.875  68.624  1.00  0.00    -0.298 C  
HETATM   15  C   UNL     1     -11.050  15.117  69.391  1.00  0.00    -0.283 C  
HETATM   16  O   UNL     1     -12.376  13.811  67.811  1.00  0.00    -0.251 OA 
HETATM   17  C   UNL     1     -11.194  16.339  68.474  1.00  0.00    -0.359 C  
HETATM   18  C   UNL     1     -11.844  15.244  70.676  1.00  0.00    -0.376 A  
HETATM   19  C   UNL     1     -11.188  15.228  71.915  1.00  0.00    -0.350 A  
HETATM   20  O   UNL     1     -10.273  16.236  67.388  1.00  0.00    -0.262 OA 
HETATM   21  H   UNL     1     -10.362  16.993  66.821  1.00  0.00     0.000 HD 
HETATM   22  C   UNL     1     -11.914  15.310  73.104  1.00  0.00    -0.529 A  
HETATM   23  C   UNL     1     -13.303  15.408  73.070  1.00  0.00    -0.632 A  
HETATM   24  C   UNL     1     -13.969  15.429  71.847  1.00  0.00    -0.629 A  
HETATM   25  C   UNL     1     -13.245  15.350  70.656  1.00  0.00    -0.356 A  
ENDBRANCH  13  14
ENDBRANCH   7  13
TORSDOF 3
ENDMDL
MODEL       35
REMARK 921   NORMALIZED FREE ENERGY PREDICTED BY IDOCK:   -5.39 KCAL/MOL
REMARK 922        TOTAL FREE ENERGY PREDICTED BY IDOCK:   -7.41 KCAL/MOL
REMARK 923 INTER-LIGAND FREE ENERGY PREDICTED BY IDOCK:   -6.40 KCAL/MOL
REMARK 924 INTRA-LIGAND FREE ENERGY PREDICTED BY IDOCK:   -1.01 KCAL/MOL
REMARK 927      BINDING AFFINITY PREDICTED BY RF-SCORE:    0.00 PKD
ROOT
HETATM    1  C   UNL     1     -11.183  15.631  67.827  1.00  0.00    -0.297 C  
HETATM    2  C   UNL     1     -11.458  15.000  69.199  1.00  0.00    -0.320 C  
HETATM    3  C   UNL     1     -10.811  13.624  69.153  1.00  0.00    -0.189 C  
HETATM    4  C   UNL     1     -10.174  13.515  67.760  1.00  0.00    -0.242 C  
HETATM    5  C   UNL     1      -8.739  14.044  67.799  1.00  0.00    -0.185 C  
HETATM    6  N   UNL     1     -11.062  14.418  66.866  1.00  0.00    -0.315 N  
HETATM    7  C   UNL     1      -8.595  15.568  67.962  1.00  0.00    -0.155 C  
HETATM    8  C   UNL     1     -12.453  13.768  66.661  1.00  0.00    -0.260 C  
HETATM    9  C   UNL     1      -9.873  16.418  67.876  1.00  0.00    -0.238 C  
ENDROOT
BRANCH   6  10
HETATM   10  C   UNL     1     -10.444  14.744  65.454  1.00  0.00    -0.380 C  
HETATM   11  C   UNL     1     -11.121  15.952  64.801  1.00  0.00    -0.397 C  
HETATM   12  C   UNL     1     -10.471  13.530  64.519  1.00  0.00    -0.426 C  
ENDBRANCH   6  10
BRANCH   7  13
HETATM   13  O   UNL     1      -7.928  15.849  69.207  1.00  0.00    -0.222 OA 
BRANCH  13  14
HETATM   14  C   UNL     1      -6.630  16.279  69.060  1.00  0.00    -0.169 C  
HETATM   15  C   UNL     1      -6.524  17.769  69.323  1.00  0.00    -0.244 C  
HETATM   16  O   UNL     1      -5.706  15.547  68.725  1.00  0.00    -0.094 OA 
HETATM   17  C   UNL     1      -5.180  18.060  70.004  1.00  0.00    -0.219 C  
HETATM   18  C   UNL     1      -6.721  18.555  68.042  1.00  0.00    -0.222 A  
HETATM   19  C   UNL     1      -7.788  19.458  67.926  1.00  0.00    -0.325 A  
HETATM   20  O   UNL     1      -5.151  17.442  71.291  1.00  0.00    -0.419 OA 
HETATM   21  H   UNL     1      -4.318  17.623  71.713  1.00  0.00     0.000 HD 
HETATM   22  C   UNL     1      -7.997  20.161  66.738  1.00  0.00    -0.343 A  
HETATM   23  C   UNL     1      -7.144  19.971  65.654  1.00  0.00    -0.338 A  
HETATM   24  C   UNL     1      -6.077  19.082  65.755  1.00  0.00    -0.241 A  
HETATM   25  C   UNL     1      -5.864  18.379  66.942  1.00  0.00    -0.166 A  
ENDBRANCH  13  14
ENDBRANCH   7  13
TORSDOF 3
ENDMDL
MODEL       36
REMARK 921   NORMALIZED FREE ENERGY PREDICTED BY IDOCK:   -5.35 KCAL/MOL
REMARK 922        TOTAL FREE ENERGY PREDICTED BY IDOCK:   -7.36 KCAL/MOL
REMARK 923 INTER-LIGAND FREE ENERGY PREDICTED BY IDOCK:   -6.27 KCAL/MOL
REMARK 924 INTRA-LIGAND FREE ENERGY PREDICTED BY IDOCK:   -1.09 KCAL/MOL
REMARK 927      BINDING AFFINITY PREDICTED BY RF-SCORE:    0.00 PKD
ROOT
HETATM    1  C   UNL     1     -10.083   9.166  71.526  1.00  0.00    -0.311 C  
HETATM    2  C   UNL     1      -8.725   8.465  71.671  1.00  0.00    -0.240 C  
HETATM    3  C   UNL     1      -8.956   7.030  71.220  1.00  0.00    -0.137 C  
HETATM    4  C   UNL     1     -10.436   6.958  70.819  1.00  0.00    -0.216 C  
HETATM    5  C   UNL     1     -10.593   7.309  69.338  1.00  0.00    -0.238 C  
HETATM    6  N   UNL     1     -11.122   8.027  71.707  1.00  0.00    -0.249 N  
HETATM    7  C   UNL     1     -10.364   8.789  68.976  1.00  0.00    -0.213 C  
HETATM    8  C   UNL     1     -11.143   7.564  73.184  1.00  0.00    -0.326 C  
HETATM    9  C   UNL     1     -10.194   9.787  70.133  1.00  0.00    -0.328 C  
ENDROOT
BRANCH   6  10
HETATM   10  C   UNL     1     -12.592   8.390  71.271  1.00  0.00    -0.217 C  
HETATM   11  C   UNL     1     -13.098   9.654  71.969  1.00  0.00    -0.537 C  
HETATM   12  C   UNL     1     -13.560   7.222  71.484  1.00  0.00    -0.442 C  
ENDBRANCH   6  10
BRANCH   7  13
HETATM   13  O   UNL     1      -9.225   8.889  68.100  1.00  0.00    -0.139 OA 
BRANCH  13  14
HETATM   14  C   UNL     1      -9.543   9.253  66.812  1.00  0.00    -0.183 C  
HETATM   15  C   UNL     1      -8.905  10.583  66.456  1.00  0.00    -0.155 C  
HETATM   16  O   UNL     1     -10.275   8.597  66.081  1.00  0.00    -0.210 OA 
HETATM   17  C   UNL     1      -8.501  10.561  64.976  1.00  0.00    -0.163 C  
HETATM   18  C   UNL     1      -9.832  11.732  66.800  1.00  0.00    -0.218 A  
HETATM   19  C   UNL     1      -9.439  12.698  67.737  1.00  0.00    -0.198 A  
HETATM   20  O   UNL     1      -7.482   9.582  64.771  1.00  0.00    -0.104 OA 
HETATM   21  H   UNL     1      -7.232   9.568  63.855  1.00  0.00     0.000 HD 
HETATM   22  C   UNL     1     -10.300  13.741  68.085  1.00  0.00    -0.252 A  
HETATM   23  C   UNL     1     -11.561  13.831  67.501  1.00  0.00    -0.387 A  
HETATM   24  C   UNL     1     -11.964  12.882  66.565  1.00  0.00    -0.447 A  
HETATM   25  C   UNL     1     -11.105  11.839  66.214  1.00  0.00    -0.364 A  
ENDBRANCH  13  14
ENDBRANCH   7  13
TORSDOF 3
ENDMDL
MODEL       37
REMARK 921   NORMALIZED FREE ENERGY PREDICTED BY IDOCK:   -5.32 KCAL/MOL
REMARK 922        TOTAL FREE ENERGY PREDICTED BY IDOCK:   -7.33 KCAL/MOL
REMARK 923 INTER-LIGAND FREE ENERGY PREDICTED BY IDOCK:   -6.40 KCAL/MOL
REMARK 924 INTRA-LIGAND FREE ENERGY PREDICTED BY IDOCK:   -0.93 KCAL/MOL
REMARK 927      BINDING AFFINITY PREDICTED BY RF-SCORE:    0.00 PKD
ROOT
HETATM    1  C   UNL     1      -8.434   8.317  70.101  1.00  0.00    -0.126 C  
HETATM    2  C   UNL     1      -7.609   7.961  68.857  1.00  0.00    -0.100 C  
HETATM    3  C   UNL     1      -8.618   7.499  67.816  1.00  0.00    -0.120 C  
HETATM    4  C   UNL     1      -9.991   7.618  68.492  1.00  0.00    -0.180 C  
HETATM    5  C   UNL     1     -10.575   9.012  68.249  1.00  0.00    -0.213 C  
HETATM    6  N   UNL     1      -9.690   7.411  69.998  1.00  0.00    -0.175 N  
HETATM    7  C   UNL     1      -9.884  10.164  69.002  1.00  0.00    -0.205 C  
HETATM    8  C   UNL     1      -9.299   5.937  70.269  1.00  0.00    -0.158 C  
HETATM    9  C   UNL     1      -8.825   9.794  70.053  1.00  0.00    -0.245 C  
ENDROOT
BRANCH   6  10
HETATM   10  C   UNL     1     -10.876   7.803  70.959  1.00  0.00    -0.239 C  
HETATM   11  C   UNL     1     -10.423   7.888  72.418  1.00  0.00    -0.339 C  
HETATM   12  C   UNL     1     -12.073   6.857  70.812  1.00  0.00    -0.400 C  
ENDBRANCH   6  10
BRANCH   7  13
HETATM   13  O   UNL     1      -9.300  11.069  68.047  1.00  0.00    -0.154 OA 
BRANCH  13  14
HETATM   14  C   UNL     1      -9.575  12.395  68.293  1.00  0.00    -0.211 C  
HETATM   15  C   UNL     1     -11.047  12.689  68.074  1.00  0.00    -0.288 C  
HETATM   16  O   UNL     1      -8.723  13.218  68.609  1.00  0.00    -0.099 OA 
HETATM   17  C   UNL     1     -11.502  13.740  69.094  1.00  0.00    -0.298 C  
HETATM   18  C   UNL     1     -11.303  13.107  66.639  1.00  0.00    -0.361 A  
HETATM   19  C   UNL     1     -12.150  12.343  65.824  1.00  0.00    -0.381 A  
HETATM   20  O   UNL     1     -11.413  13.199  70.413  1.00  0.00    -0.508 OA 
HETATM   21  H   UNL     1     -11.695  13.850  71.045  1.00  0.00     0.000 HD 
HETATM   22  C   UNL     1     -12.365  12.701  64.491  1.00  0.00    -0.537 A  
HETATM   23  C   UNL     1     -11.736  13.825  63.960  1.00  0.00    -0.364 A  
HETATM   24  C   UNL     1     -10.896  14.596  64.758  1.00  0.00    -0.402 A  
HETATM   25  C   UNL     1     -10.681  14.241  66.091  1.00  0.00    -0.295 A  
ENDBRANCH  13  14
ENDBRANCH   7  13
TORSDOF 3
ENDMDL
MODEL       38
REMARK 921   NORMALIZED FREE ENERGY PREDICTED BY IDOCK:   -5.28 KCAL/MOL
REMARK 922        TOTAL FREE ENERGY PREDICTED BY IDOCK:   -7.29 KCAL/MOL
REMARK 923 INTER-LIGAND FREE ENERGY PREDICTED BY IDOCK:   -6.49 KCAL/MOL
REMARK 924 INTRA-LIGAND FREE ENERGY PREDICTED BY IDOCK:   -0.80 KCAL/MOL
REMARK 927      BINDING AFFINITY PREDICTED BY RF-SCORE:    0.00 PKD
ROOT
HETATM    1  C   UNL     1     -11.075  12.166  66.477  1.00  0.00    -0.307 C  
HETATM    2  C   UNL     1     -11.900  12.799  67.606  1.00  0.00    -0.396 C  
HETATM    3  C   UNL     1     -11.036  12.690  68.854  1.00  0.00    -0.307 C  
HETATM    4  C   UNL     1      -9.737  12.010  68.397  1.00  0.00    -0.199 C  
HETATM    5  C   UNL     1      -8.725  13.066  67.948  1.00  0.00    -0.189 C  
HETATM    6  N   UNL     1     -10.173  11.129  67.199  1.00  0.00    -0.194 N  
HETATM    7  C   UNL     1      -9.050  13.778  66.622  1.00  0.00    -0.179 C  
HETATM    8  C   UNL     1     -11.030   9.938  67.692  1.00  0.00    -0.200 C  
HETATM    9  C   UNL     1     -10.229  13.241  65.795  1.00  0.00    -0.296 C  
ENDROOT
BRANCH   6  10
HETATM   10  C   UNL     1      -8.979  10.569  66.336  1.00  0.00    -0.159 C  
HETATM   11  C   UNL     1      -9.474   9.796  65.111  1.00  0.00    -0.338 C  
HETATM   12  C   UNL     1      -8.018   9.714  67.170  1.00  0.00    -0.106 C  
ENDBRANCH   6  10
BRANCH   7  13
HETATM   13  O   UNL     1      -9.258  15.180  66.878  1.00  0.00    -0.212 OA 
BRANCH  13  14
HETATM   14  C   UNL     1      -8.115  15.859  67.230  1.00  0.00    -0.184 C  
HETATM   15  C   UNL     1      -8.357  16.720  68.455  1.00  0.00    -0.243 C  
HETATM   16  O   UNL     1      -7.064  15.792  66.603  1.00  0.00    -0.177 OA 
HETATM   17  C   UNL     1      -7.084  16.739  69.311  1.00  0.00    -0.198 C  
HETATM   18  C   UNL     1      -8.820  18.107  68.054  1.00  0.00    -0.286 A  
HETATM   19  C   UNL     1     -10.079  18.573  68.458  1.00  0.00    -0.414 A  
HETATM   20  O   UNL     1      -6.823  15.427  69.811  1.00  0.00    -0.178 OA 
HETATM   21  H   UNL     1      -6.034  15.438  70.341  1.00  0.00     0.000 HD 
HETATM   22  C   UNL     1     -10.529  19.835  68.064  1.00  0.00    -0.523 A  
HETATM   23  C   UNL     1      -9.726  20.645  67.264  1.00  0.00    -0.562 A  
HETATM   24  C   UNL     1      -8.471  20.198  66.859  1.00  0.00    -0.376 A  
HETATM   25  C   UNL     1      -8.019  18.937  67.252  1.00  0.00    -0.261 A  
ENDBRANCH  13  14
ENDBRANCH   7  13
TORSDOF 3
ENDMDL
MODEL       39
REMARK 921   NORMALIZED FREE ENERGY PREDICTED BY IDOCK:   -5.28 KCAL/MOL
REMARK 922        TOTAL FREE ENERGY PREDICTED BY IDOCK:   -7.28 KCAL/MOL
REMARK 923 INTER-LIGAND FREE ENERGY PREDICTED BY IDOCK:   -6.62 KCAL/MOL
REMARK 924 INTRA-LIGAND FREE ENERGY PREDICTED BY IDOCK:   -0.66 KCAL/MOL
REMARK 927      BINDING AFFINITY PREDICTED BY RF-SCORE:    0.00 PKD
ROOT
HETATM    1  C   UNL     1      -9.673  13.681  66.176  1.00  0.00    -0.255 C  
HETATM    2  C   UNL     1     -10.080  14.419  64.892  1.00  0.00    -0.253 C  
HETATM    3  C   UNL     1     -11.286  15.265  65.273  1.00  0.00    -0.338 C  
HETATM    4  C   UNL     1     -11.524  14.995  66.766  1.00  0.00    -0.251 C  
HETATM    5  C   UNL     1     -10.725  15.989  67.610  1.00  0.00    -0.320 C  
HETATM    6  N   UNL     1     -10.996  13.554  66.978  1.00  0.00    -0.285 N  
HETATM    7  C   UNL     1      -9.199  15.784  67.615  1.00  0.00    -0.200 C  
HETATM    8  C   UNL     1     -11.934  12.531  66.289  1.00  0.00    -0.343 C  
HETATM    9  C   UNL     1      -8.649  14.515  66.945  1.00  0.00    -0.207 C  
ENDROOT
BRANCH   6  10
HETATM   10  C   UNL     1     -10.822  13.140  68.489  1.00  0.00    -0.262 C  
HETATM   11  C   UNL     1     -10.339  11.696  68.633  1.00  0.00    -0.229 C  
HETATM   12  C   UNL     1     -12.102  13.372  69.299  1.00  0.00    -0.312 C  
ENDBRANCH   6  10
BRANCH   7  13
HETATM   13  O   UNL     1      -8.566  16.936  67.027  1.00  0.00    -0.190 OA 
BRANCH  13  14
HETATM   14  C   UNL     1      -8.767  18.102  67.728  1.00  0.00    -0.255 C  
HETATM   15  C   UNL     1      -8.986  19.268  66.781  1.00  0.00    -0.360 C  
HETATM   16  O   UNL     1      -8.731  18.175  68.950  1.00  0.00    -0.237 OA 
HETATM   17  C   UNL     1     -10.000  20.234  67.407  1.00  0.00    -0.427 C  
HETATM   18  C   UNL     1      -7.669  19.934  66.435  1.00  0.00    -0.323 A  
HETATM   19  C   UNL     1      -7.225  19.968  65.105  1.00  0.00    -0.075 A  
HETATM   20  O   UNL     1     -11.269  19.590  67.522  1.00  0.00    -0.300 OA 
HETATM   21  H   UNL     1     -11.897  20.188  67.910  1.00  0.00     0.000 HD 
HETATM   22  C   UNL     1      -5.998  20.550  64.782  1.00  0.00    -0.304 A  
HETATM   23  C   UNL     1      -5.201  21.102  65.782  1.00  0.00    -0.244 A  
HETATM   24  C   UNL     1      -5.630  21.080  67.106  1.00  0.00    -0.301 A  
HETATM   25  C   UNL     1      -6.858  20.501  67.432  1.00  0.00    -0.353 A  
ENDBRANCH  13  14
ENDBRANCH   7  13
TORSDOF 3
ENDMDL
MODEL       40
REMARK 921   NORMALIZED FREE ENERGY PREDICTED BY IDOCK:   -5.26 KCAL/MOL
REMARK 922        TOTAL FREE ENERGY PREDICTED BY IDOCK:   -7.26 KCAL/MOL
REMARK 923 INTER-LIGAND FREE ENERGY PREDICTED BY IDOCK:   -6.55 KCAL/MOL
REMARK 924 INTRA-LIGAND FREE ENERGY PREDICTED BY IDOCK:   -0.72 KCAL/MOL
REMARK 927      BINDING AFFINITY PREDICTED BY RF-SCORE:    0.00 PKD
ROOT
HETATM    1  C   UNL     1      -7.747  17.951  66.435  1.00  0.00    -0.276 C  
HETATM    2  C   UNL     1      -6.506  17.074  66.657  1.00  0.00    -0.262 C  
HETATM    3  C   UNL     1      -6.562  16.648  68.116  1.00  0.00    -0.148 C  
HETATM    4  C   UNL     1      -7.841  17.282  68.682  1.00  0.00    -0.272 C  
HETATM    5  C   UNL     1      -9.024  16.330  68.494  1.00  0.00    -0.219 C  
HETATM    6  N   UNL     1      -8.035  18.564  67.832  1.00  0.00    -0.250 N  
HETATM    7  C   UNL     1      -9.516  16.156  67.045  1.00  0.00    -0.222 C  
HETATM    8  C   UNL     1      -6.947  19.609  68.182  1.00  0.00    -0.284 C  
HETATM    9  C   UNL     1      -8.915  17.080  65.973  1.00  0.00    -0.168 C  
ENDROOT
BRANCH   6  10
HETATM   10  C   UNL     1      -9.451  19.238  67.985  1.00  0.00    -0.335 C  
HETATM   11  C   UNL     1      -9.568  20.514  67.148  1.00  0.00    -0.570 C  
HETATM   12  C   UNL     1      -9.802  19.512  69.452  1.00  0.00    -0.243 C  
ENDBRANCH   6  10
BRANCH   7  13
HETATM   13  O   UNL     1      -9.325  14.786  66.643  1.00  0.00    -0.240 OA 
BRANCH  13  14
HETATM   14  C   UNL     1     -10.498  14.099  66.431  1.00  0.00    -0.283 C  
HETATM   15  C   UNL     1     -10.405  12.692  66.993  1.00  0.00    -0.241 C  
HETATM   16  O   UNL     1     -11.460  14.565  65.832  1.00  0.00    -0.339 OA 
HETATM   17  C   UNL     1     -11.777  12.287  67.546  1.00  0.00    -0.332 C  
HETATM   18  C   UNL     1      -9.881  11.730  65.946  1.00  0.00    -0.265 A  
HETATM   19  C   UNL     1      -8.679  11.040  66.162  1.00  0.00    -0.188 A  
HETATM   20  O   UNL     1     -12.113  13.121  68.656  1.00  0.00    -0.315 OA 
HETATM   21  H   UNL     1     -12.963  12.869  68.999  1.00  0.00     0.000 HD 
HETATM   22  C   UNL     1      -8.171  10.177  65.189  1.00  0.00    -0.151 A  
HETATM   23  C   UNL     1      -8.857   9.993  63.991  1.00  0.00    -0.246 A  
HETATM   24  C   UNL     1     -10.054  10.667  63.764  1.00  0.00    -0.336 A  
HETATM   25  C   UNL     1     -10.566  11.529  64.735  1.00  0.00    -0.362 A  
ENDBRANCH  13  14
ENDBRANCH   7  13
TORSDOF 3
ENDMDL
MODEL       41
REMARK 921   NORMALIZED FREE ENERGY PREDICTED BY IDOCK:   -5.24 KCAL/MOL
REMARK 922        TOTAL FREE ENERGY PREDICTED BY IDOCK:   -7.23 KCAL/MOL
REMARK 923 INTER-LIGAND FREE ENERGY PREDICTED BY IDOCK:   -6.58 KCAL/MOL
REMARK 924 INTRA-LIGAND FREE ENERGY PREDICTED BY IDOCK:   -0.66 KCAL/MOL
REMARK 927      BINDING AFFINITY PREDICTED BY RF-SCORE:    0.00 PKD
ROOT
HETATM    1  C   UNL     1      -9.496  15.549  68.959  1.00  0.00    -0.242 C  
HETATM    2  C   UNL     1     -10.472  15.563  70.144  1.00  0.00    -0.317 C  
HETATM    3  C   UNL     1     -11.857  15.412  69.533  1.00  0.00    -0.370 C  
HETATM    4  C   UNL     1     -11.630  15.303  68.019  1.00  0.00    -0.312 C  
HETATM    5  C   UNL     1     -11.440  13.837  67.623  1.00  0.00    -0.354 C  
HETATM    6  N   UNL     1     -10.327  16.105  67.773  1.00  0.00    -0.275 N  
HETATM    7  C   UNL     1     -10.113  13.194  68.068  1.00  0.00    -0.232 C  
HETATM    8  C   UNL     1     -10.584  17.620  67.974  1.00  0.00    -0.376 C  
HETATM    9  C   UNL     1      -9.046  14.114  68.681  1.00  0.00    -0.138 C  
ENDROOT
BRANCH   6  10
HETATM   10  C   UNL     1      -9.688  15.888  66.349  1.00  0.00    -0.287 C  
HETATM   11  C   UNL     1      -8.366  16.643  66.196  1.00  0.00    -0.305 C  
HETATM   12  C   UNL     1     -10.659  16.250  65.220  1.00  0.00    -0.357 C  
ENDBRANCH   6  10
BRANCH   7  13
HETATM   13  O   UNL     1     -10.392  12.122  68.988  1.00  0.00    -0.124 OA 
BRANCH  13  14
HETATM   14  C   UNL     1      -9.770  10.937  68.671  1.00  0.00    -0.185 C  
HETATM   15  C   UNL     1     -10.741   9.776  68.769  1.00  0.00    -0.243 C  
HETATM   16  O   UNL     1      -8.581  10.849  68.387  1.00  0.00    -0.131 OA 
HETATM   17  C   UNL     1     -10.404   8.752  67.678  1.00  0.00    -0.254 C  
HETATM   18  C   UNL     1     -10.728   9.182  70.163  1.00  0.00    -0.263 A  
HETATM   19  C   UNL     1     -11.894   9.188  70.943  1.00  0.00    -0.327 A  
HETATM   20  O   UNL     1     -10.628   9.329  66.391  1.00  0.00    -0.142 OA 
HETATM   21  H   UNL     1     -10.419   8.695  65.715  1.00  0.00     0.000 HD 
HETATM   22  C   UNL     1     -11.883   8.674  72.241  1.00  0.00    -0.436 A  
HETATM   23  C   UNL     1     -10.709   8.148  72.774  1.00  0.00    -0.391 A  
HETATM   24  C   UNL     1      -9.545   8.130  72.011  1.00  0.00    -0.284 A  
HETATM   25  C   UNL     1      -9.553   8.642  70.712  1.00  0.00    -0.231 A  
ENDBRANCH  13  14
ENDBRANCH   7  13
TORSDOF 3
ENDMDL
MODEL       42
REMARK 921   NORMALIZED FREE ENERGY PREDICTED BY IDOCK:   -5.23 KCAL/MOL
REMARK 922        TOTAL FREE ENERGY PREDICTED BY IDOCK:   -7.23 KCAL/MOL
REMARK 923 INTER-LIGAND FREE ENERGY PREDICTED BY IDOCK:   -6.18 KCAL/MOL
REMARK 924 INTRA-LIGAND FREE ENERGY PREDICTED BY IDOCK:   -1.05 KCAL/MOL
REMARK 927      BINDING AFFINITY PREDICTED BY RF-SCORE:    0.00 PKD
ROOT
HETATM    1  C   UNL     1      -9.290  12.853  66.493  1.00  0.00    -0.222 C  
HETATM    2  C   UNL     1      -9.091  13.937  67.562  1.00  0.00    -0.201 C  
HETATM    3  C   UNL     1     -10.490  14.382  67.959  1.00  0.00    -0.237 C  
HETATM    4  C   UNL     1     -11.449  13.530  67.114  1.00  0.00    -0.338 C  
HETATM    5  C   UNL     1     -11.791  12.237  67.857  1.00  0.00    -0.358 C  
HETATM    6  N   UNL     1     -10.643  13.220  65.827  1.00  0.00    -0.279 N  
HETATM    7  C   UNL     1     -10.651  11.206  67.961  1.00  0.00    -0.198 C  
HETATM    8  C   UNL     1     -10.480  14.503  64.974  1.00  0.00    -0.429 C  
HETATM    9  C   UNL     1      -9.368  11.480  67.161  1.00  0.00    -0.177 C  
ENDROOT
BRANCH   6  10
HETATM   10  C   UNL     1     -11.270  12.090  64.923  1.00  0.00    -0.320 C  
HETATM   11  C   UNL     1     -10.330  11.683  63.786  1.00  0.00    -0.445 C  
HETATM   12  C   UNL     1     -12.647  12.486  64.380  1.00  0.00    -0.497 C  
ENDBRANCH   6  10
BRANCH   7  13
HETATM   13  O   UNL     1     -10.309  11.019  69.347  1.00  0.00    -0.196 OA 
BRANCH  13  14
HETATM   14  C   UNL     1     -10.795   9.852  69.890  1.00  0.00    -0.278 C  
HETATM   15  C   UNL     1      -9.701   8.806  69.983  1.00  0.00    -0.182 C  
HETATM   16  O   UNL     1     -11.966   9.689  70.212  1.00  0.00    -0.177 OA 
HETATM   17  C   UNL     1      -9.919   7.969  71.250  1.00  0.00    -0.174 C  
HETATM   18  C   UNL     1      -9.652   7.967  68.721  1.00  0.00    -0.152 A  
HETATM   19  C   UNL     1      -8.496   7.956  67.927  1.00  0.00    -0.126 A  
HETATM   20  O   UNL     1      -9.757   8.795  72.404  1.00  0.00    -0.283 OA 
HETATM   21  H   UNL     1      -9.892   8.277  73.189  1.00  0.00     0.000 HD 
HETATM   22  C   UNL     1      -8.453   7.214  66.745  1.00  0.00    -0.121 A  
HETATM   23  C   UNL     1      -9.563   6.474  66.344  1.00  0.00    -0.151 A  
HETATM   24  C   UNL     1     -10.716   6.470  67.125  1.00  0.00    -0.438 A  
HETATM   25  C   UNL     1     -10.761   7.210  68.307  1.00  0.00    -0.202 A  
ENDBRANCH  13  14
ENDBRANCH   7  13
TORSDOF 3
ENDMDL
MODEL       43
REMARK 921   NORMALIZED FREE ENERGY PREDICTED BY IDOCK:   -5.23 KCAL/MOL
REMARK 922        TOTAL FREE ENERGY PREDICTED BY IDOCK:   -7.22 KCAL/MOL
REMARK 923 INTER-LIGAND FREE ENERGY PREDICTED BY IDOCK:   -6.39 KCAL/MOL
REMARK 924 INTRA-LIGAND FREE ENERGY PREDICTED BY IDOCK:   -0.83 KCAL/MOL
REMARK 927      BINDING AFFINITY PREDICTED BY RF-SCORE:    0.00 PKD
ROOT
HETATM    1  C   UNL     1      -8.386   9.389  68.250  1.00  0.00    -0.119 C  
HETATM    2  C   UNL     1      -7.206   9.789  67.353  1.00  0.00    -0.086 C  
HETATM    3  C   UNL     1      -7.518   9.205  65.983  1.00  0.00    -0.095 C  
HETATM    4  C   UNL     1      -8.873   8.499  66.135  1.00  0.00    -0.167 C  
HETATM    5  C   UNL     1     -10.009   9.478  65.831  1.00  0.00    -0.342 C  
HETATM    6  N   UNL     1      -8.911   8.069  67.624  1.00  0.00    -0.125 N  
HETATM    7  C   UNL     1     -10.241  10.577  66.884  1.00  0.00    -0.229 C  
HETATM    8  C   UNL     1      -7.897   6.926  67.878  1.00  0.00    -0.113 C  
HETATM    9  C   UNL     1      -9.459  10.477  68.203  1.00  0.00    -0.157 C  
ENDROOT
BRANCH   6  10
HETATM   10  C   UNL     1     -10.329   7.607  68.133  1.00  0.00    -0.204 C  
HETATM   11  C   UNL     1     -10.301   7.202  69.608  1.00  0.00    -0.224 C  
HETATM   12  C   UNL     1     -10.913   6.486  67.267  1.00  0.00    -0.475 C  
ENDBRANCH   6  10
BRANCH   7  13
HETATM   13  O   UNL     1      -9.989  11.863  66.286  1.00  0.00    -0.211 OA 
BRANCH  13  14
HETATM   14  C   UNL     1     -11.111  12.649  66.158  1.00  0.00    -0.292 C  
HETATM   15  C   UNL     1     -10.747  14.121  66.226  1.00  0.00    -0.293 C  
HETATM   16  O   UNL     1     -12.245  12.201  66.044  1.00  0.00    -0.609 OA 
HETATM   17  C   UNL     1     -11.667  14.905  65.281  1.00  0.00    -0.263 C  
HETATM   18  C   UNL     1     -10.800  14.622  67.655  1.00  0.00    -0.284 A  
HETATM   19  C   UNL     1      -9.644  15.124  68.269  1.00  0.00    -0.211 A  
HETATM   20  O   UNL     1     -11.418  14.511  63.931  1.00  0.00    -0.578 OA 
HETATM   21  H   UNL     1     -11.988  14.997  63.346  1.00  0.00     0.000 HD 
HETATM   22  C   UNL     1      -9.675  15.556  69.596  1.00  0.00    -0.276 A  
HETATM   23  C   UNL     1     -10.861  15.491  70.325  1.00  0.00    -0.358 A  
HETATM   24  C   UNL     1     -12.018  14.999  69.728  1.00  0.00    -0.366 A  
HETATM   25  C   UNL     1     -11.990  14.568  68.400  1.00  0.00    -0.309 A  
ENDBRANCH  13  14
ENDBRANCH   7  13
TORSDOF 3
ENDMDL
MODEL       44
REMARK 921   NORMALIZED FREE ENERGY PREDICTED BY IDOCK:   -5.22 KCAL/MOL
REMARK 922        TOTAL FREE ENERGY PREDICTED BY IDOCK:   -7.21 KCAL/MOL
REMARK 923 INTER-LIGAND FREE ENERGY PREDICTED BY IDOCK:   -6.00 KCAL/MOL
REMARK 924 INTRA-LIGAND FREE ENERGY PREDICTED BY IDOCK:   -1.21 KCAL/MOL
REMARK 927      BINDING AFFINITY PREDICTED BY RF-SCORE:    0.00 PKD
ROOT
HETATM    1  C   UNL     1     -10.397  13.906  68.527  1.00  0.00    -0.244 C  
HETATM    2  C   UNL     1     -11.826  13.433  68.226  1.00  0.00    -0.393 C  
HETATM    3  C   UNL     1     -12.220  14.122  66.928  1.00  0.00    -0.400 C  
HETATM    4  C   UNL     1     -10.999  14.958  66.519  1.00  0.00    -0.327 C  
HETATM    5  C   UNL     1     -10.065  14.124  65.639  1.00  0.00    -0.350 C  
HETATM    6  N   UNL     1     -10.311  15.306  67.864  1.00  0.00    -0.243 N  
HETATM    7  C   UNL     1      -9.300  12.998  66.361  1.00  0.00    -0.182 C  
HETATM    8  C   UNL     1     -11.171  16.320  68.659  1.00  0.00    -0.354 C  
HETATM    9  C   UNL     1      -9.393  12.942  67.893  1.00  0.00    -0.208 C  
ENDROOT
BRANCH   6  10
HETATM   10  C   UNL     1      -8.853  15.888  67.718  1.00  0.00    -0.175 C  
HETATM   11  C   UNL     1      -8.213  16.167  69.079  1.00  0.00    -0.244 C  
HETATM   12  C   UNL     1      -8.818  17.136  66.830  1.00  0.00    -0.255 C  
ENDBRANCH   6  10
BRANCH   7  13
HETATM   13  O   UNL     1      -9.708  11.728  65.819  1.00  0.00    -0.230 OA 
BRANCH  13  14
HETATM   14  C   UNL     1      -8.818  10.707  66.058  1.00  0.00    -0.175 C  
HETATM   15  C   UNL     1      -9.546   9.451  66.500  1.00  0.00    -0.267 C  
HETATM   16  O   UNL     1      -7.603  10.828  65.959  1.00  0.00    -0.149 OA 
HETATM   17  C   UNL     1      -8.812   8.227  65.938  1.00  0.00    -0.160 C  
HETATM   18  C   UNL     1      -9.688   9.416  68.009  1.00  0.00    -0.167 A  
HETATM   19  C   UNL     1     -10.961   9.403  68.596  1.00  0.00    -0.075 A  
HETATM   20  O   UNL     1      -8.890   8.232  64.513  1.00  0.00    -0.404 OA 
HETATM   21  H   UNL     1      -8.435   7.474  64.165  1.00  0.00     0.000 HD 
HETATM   22  C   UNL     1     -11.102   9.405  69.985  1.00  0.00    -0.248 A  
HETATM   23  C   UNL     1      -9.974   9.419  70.802  1.00  0.00    -0.358 A  
HETATM   24  C   UNL     1      -8.703   9.426  70.234  1.00  0.00    -0.261 A  
HETATM   25  C   UNL     1      -8.559   9.423  68.845  1.00  0.00    -0.131 A  
ENDBRANCH  13  14
ENDBRANCH   7  13
TORSDOF 3
ENDMDL
MODEL       45
REMARK 921   NORMALIZED FREE ENERGY PREDICTED BY IDOCK:   -5.21 KCAL/MOL
REMARK 922        TOTAL FREE ENERGY PREDICTED BY IDOCK:   -7.20 KCAL/MOL
REMARK 923 INTER-LIGAND FREE ENERGY PREDICTED BY IDOCK:   -6.43 KCAL/MOL
REMARK 924 INTRA-LIGAND FREE ENERGY PREDICTED BY IDOCK:   -0.77 KCAL/MOL
REMARK 927      BINDING AFFINITY PREDICTED BY RF-SCORE:    0.00 PKD
ROOT
HETATM    1  C   UNL     1     -11.312   7.133  70.690  1.00  0.00    -0.292 C  
HETATM    2  C   UNL     1     -12.320   8.256  70.972  1.00  0.00    -0.145 C  
HETATM    3  C   UNL     1     -11.531   9.345  71.682  1.00  0.00    -0.463 C  
HETATM    4  C   UNL     1     -10.092   8.818  71.774  1.00  0.00    -0.333 C  
HETATM    5  C   UNL     1      -9.302   9.238  70.533  1.00  0.00    -0.316 C  
HETATM    6  N   UNL     1     -10.256   7.277  71.819  1.00  0.00    -0.194 N  
HETATM    7  C   UNL     1      -9.689   8.524  69.224  1.00  0.00    -0.173 C  
HETATM    8  C   UNL     1     -10.869   6.842  73.173  1.00  0.00    -0.296 C  
HETATM    9  C   UNL     1     -10.673   7.348  69.318  1.00  0.00    -0.197 C  
ENDROOT
BRANCH   6  10
HETATM   10  C   UNL     1      -8.920   6.474  71.589  1.00  0.00    -0.143 C  
HETATM   11  C   UNL     1      -9.174   4.971  71.454  1.00  0.00    -0.184 C  
HETATM   12  C   UNL     1      -7.883   6.757  72.681  1.00  0.00    -0.100 C  
ENDBRANCH   6  10
BRANCH   7  13
HETATM   13  O   UNL     1     -10.205   9.494  68.294  1.00  0.00    -0.177 OA 
BRANCH  13  14
HETATM   14  C   UNL     1      -9.233  10.233  67.660  1.00  0.00    -0.144 C  
HETATM   15  C   UNL     1      -9.689  11.666  67.461  1.00  0.00    -0.185 C  
HETATM   16  O   UNL     1      -8.165   9.767  67.280  1.00  0.00    -0.116 OA 
HETATM   17  C   UNL     1      -8.481  12.599  67.610  1.00  0.00    -0.173 C  
HETATM   18  C   UNL     1     -10.399  11.824  66.131  1.00  0.00    -0.266 A  
HETATM   19  C   UNL     1     -11.741  12.229  66.092  1.00  0.00    -0.440 A  
HETATM   20  O   UNL     1      -7.988  12.536  68.949  1.00  0.00    -0.322 OA 
HETATM   21  H   UNL     1      -7.239  13.114  69.041  1.00  0.00     0.000 HD 
HETATM   22  C   UNL     1     -12.413  12.345  64.874  1.00  0.00    -0.439 A  
HETATM   23  C   UNL     1     -11.752  12.057  63.682  1.00  0.00    -0.587 A  
HETATM   24  C   UNL     1     -10.419  11.658  63.704  1.00  0.00    -0.483 A  
HETATM   25  C   UNL     1      -9.744  11.544  64.920  1.00  0.00    -0.264 A  
ENDBRANCH  13  14
ENDBRANCH   7  13
TORSDOF 3
ENDMDL
MODEL       46
REMARK 921   NORMALIZED FREE ENERGY PREDICTED BY IDOCK:   -5.14 KCAL/MOL
REMARK 922        TOTAL FREE ENERGY PREDICTED BY IDOCK:   -7.12 KCAL/MOL
REMARK 923 INTER-LIGAND FREE ENERGY PREDICTED BY IDOCK:   -6.07 KCAL/MOL
REMARK 924 INTRA-LIGAND FREE ENERGY PREDICTED BY IDOCK:   -1.05 KCAL/MOL
REMARK 927      BINDING AFFINITY PREDICTED BY RF-SCORE:    0.00 PKD
ROOT
HETATM    1  C   UNL     1      -8.418   8.878  69.766  1.00  0.00    -0.131 C  
HETATM    2  C   UNL     1      -7.012   9.050  69.173  1.00  0.00    -0.058 C  
HETATM    3  C   UNL     1      -7.122   8.603  67.724  1.00  0.00    -0.079 C  
HETATM    4  C   UNL     1      -8.591   8.200  67.527  1.00  0.00    -0.129 C  
HETATM    5  C   UNL     1      -9.409   9.413  67.078  1.00  0.00    -0.185 C  
HETATM    6  N   UNL     1      -9.045   7.729  68.932  1.00  0.00    -0.141 N  
HETATM    7  C   UNL     1      -9.644  10.493  68.150  1.00  0.00    -0.154 C  
HETATM    8  C   UNL     1      -8.365   6.385  69.293  1.00  0.00    -0.122 C  
HETATM    9  C   UNL     1      -9.212  10.173  69.590  1.00  0.00    -0.206 C  
ENDROOT
BRANCH   6  10
HETATM   10  C   UNL     1     -10.605   7.564  69.091  1.00  0.00    -0.197 C  
HETATM   11  C   UNL     1     -11.011   7.363  70.552  1.00  0.00    -0.270 C  
HETATM   12  C   UNL     1     -11.156   6.438  68.209  1.00  0.00    -0.359 C  
ENDBRANCH   6  10
BRANCH   7  13
HETATM   13  O   UNL     1      -9.011  11.717  67.733  1.00  0.00    -0.161 OA 
BRANCH  13  14
HETATM   14  C   UNL     1      -9.686  12.854  68.116  1.00  0.00    -0.227 C  
HETATM   15  C   UNL     1     -11.176  12.698  67.881  1.00  0.00    -0.310 C  
HETATM   16  O   UNL     1      -9.134  13.858  68.549  1.00  0.00    -0.189 OA 
HETATM   17  C   UNL     1     -11.935  13.430  68.996  1.00  0.00    -0.315 C  
HETATM   18  C   UNL     1     -11.554  13.179  66.494  1.00  0.00    -0.402 A  
HETATM   19  C   UNL     1     -12.123  12.290  65.571  1.00  0.00    -0.326 A  
HETATM   20  O   UNL     1     -11.676  12.795  70.249  1.00  0.00    -0.521 OA 
HETATM   21  H   UNL     1     -12.146  13.248  70.940  1.00  0.00     0.000 HD 
HETATM   22  C   UNL     1     -12.443  12.715  64.280  1.00  0.00    -0.494 A  
HETATM   23  C   UNL     1     -12.199  14.032  63.898  1.00  0.00    -0.336 A  
HETATM   24  C   UNL     1     -11.640  14.928  64.804  1.00  0.00    -0.410 A  
HETATM   25  C   UNL     1     -11.321  14.506  66.096  1.00  0.00    -0.348 A  
ENDBRANCH  13  14
ENDBRANCH   7  13
TORSDOF 3
ENDMDL
MODEL       47
REMARK 921   NORMALIZED FREE ENERGY PREDICTED BY IDOCK:   -5.08 KCAL/MOL
REMARK 922        TOTAL FREE ENERGY PREDICTED BY IDOCK:   -7.05 KCAL/MOL
REMARK 923 INTER-LIGAND FREE ENERGY PREDICTED BY IDOCK:   -6.49 KCAL/MOL
REMARK 924 INTRA-LIGAND FREE ENERGY PREDICTED BY IDOCK:   -0.56 KCAL/MOL
REMARK 927      BINDING AFFINITY PREDICTED BY RF-SCORE:    0.00 PKD
ROOT
HETATM    1  C   UNL     1      -9.487  15.679  68.874  1.00  0.00    -0.228 C  
HETATM    2  C   UNL     1     -10.464  15.664  70.058  1.00  0.00    -0.333 C  
HETATM    3  C   UNL     1     -11.849  15.525  69.444  1.00  0.00    -0.392 C  
HETATM    4  C   UNL     1     -11.621  15.452  67.927  1.00  0.00    -0.257 C  
HETATM    5  C   UNL     1     -11.428  13.996  67.498  1.00  0.00    -0.369 C  
HETATM    6  N   UNL     1     -10.319  16.262  67.700  1.00  0.00    -0.277 N  
HETATM    7  C   UNL     1     -10.100  13.345  67.928  1.00  0.00    -0.238 C  
HETATM    8  C   UNL     1     -10.579  17.771  67.937  1.00  0.00    -0.382 C  
HETATM    9  C   UNL     1      -9.035  14.252  68.563  1.00  0.00    -0.185 C  
ENDROOT
BRANCH   6  10
HETATM   10  C   UNL     1      -9.679  16.078  66.272  1.00  0.00    -0.306 C  
HETATM   11  C   UNL     1      -8.382  16.875  66.122  1.00  0.00    -0.286 C  
HETATM   12  C   UNL     1     -10.665  16.422  65.151  1.00  0.00    -0.309 C  
ENDBRANCH   6  10
BRANCH   7  13
HETATM   13  O   UNL     1     -10.379  12.251  68.823  1.00  0.00    -0.211 OA 
BRANCH  13  14
HETATM   14  C   UNL     1     -10.972  11.169  68.215  1.00  0.00    -0.226 C  
HETATM   15  C   UNL     1      -9.991  10.019  68.087  1.00  0.00    -0.176 C  
HETATM   16  O   UNL     1     -12.127  11.169  67.805  1.00  0.00    -0.606 OA 
HETATM   17  C   UNL     1     -10.747   8.697  68.267  1.00  0.00    -0.052 C  
HETATM   18  C   UNL     1      -9.241  10.098  66.771  1.00  0.00    -0.174 A  
HETATM   19  C   UNL     1      -7.847  10.244  66.763  1.00  0.00    -0.114 A  
HETATM   20  O   UNL     1     -11.260   8.616  69.598  1.00  0.00    -0.441 OA 
HETATM   21  H   UNL     1     -11.729   7.796  69.710  1.00  0.00     0.000 HD 
HETATM   22  C   UNL     1      -7.151  10.351  65.557  1.00  0.00    -0.133 A  
HETATM   23  C   UNL     1      -7.840  10.313  64.347  1.00  0.00    -0.117 A  
HETATM   24  C   UNL     1      -9.224  10.163  64.339  1.00  0.00    -0.306 A  
HETATM   25  C   UNL     1      -9.922  10.054  65.543  1.00  0.00    -0.367 A  
ENDBRANCH  13  14
ENDBRANCH   7  13
TORSDOF 3
ENDMDL
MODEL       48
REMARK 921   NORMALIZED FREE ENERGY PREDICTED BY IDOCK:   -5.08 KCAL/MOL
REMARK 922        TOTAL FREE ENERGY PREDICTED BY IDOCK:   -7.05 KCAL/MOL
REMARK 923 INTER-LIGAND FREE ENERGY PREDICTED BY IDOCK:   -6.24 KCAL/MOL
REMARK 924 INTRA-LIGAND FREE ENERGY PREDICTED BY IDOCK:   -0.81 KCAL/MOL
REMARK 927      BINDING AFFINITY PREDICTED BY RF-SCORE:    0.00 PKD
ROOT
HETATM    1  C   UNL     1      -8.694  11.502  66.325  1.00  0.00    -0.159 C  
HETATM    2  C   UNL     1      -9.619  11.404  65.104  1.00  0.00    -0.258 C  
HETATM    3  C   UNL     1     -10.624  10.312  65.438  1.00  0.00    -0.002 C  
HETATM    4  C   UNL     1     -10.251   9.827  66.846  1.00  0.00    -0.245 C  
HETATM    5  C   UNL     1     -10.996  10.652  67.898  1.00  0.00    -0.351 C  
HETATM    6  N   UNL     1      -8.725  10.078  66.941  1.00  0.00    -0.129 N  
HETATM    7  C   UNL     1     -10.522  12.108  68.060  1.00  0.00    -0.212 C  
HETATM    8  C   UNL     1      -7.961   9.090  66.024  1.00  0.00    -0.103 C  
HETATM    9  C   UNL     1      -9.250  12.531  67.309  1.00  0.00    -0.190 C  
ENDROOT
BRANCH   6  10
HETATM   10  C   UNL     1      -8.136   9.968  68.399  1.00  0.00    -0.101 C  
HETATM   11  C   UNL     1      -6.645  10.308  68.439  1.00  0.00    -0.056 C  
HETATM   12  C   UNL     1      -8.402   8.595  69.026  1.00  0.00    -0.119 C  
ENDBRANCH   6  10
BRANCH   7  13
HETATM   13  O   UNL     1     -11.597  12.997  67.699  1.00  0.00    -0.312 OA 
BRANCH  13  14
HETATM   14  C   UNL     1     -11.460  14.271  68.199  1.00  0.00    -0.308 C  
HETATM   15  C   UNL     1     -10.988  14.235  69.641  1.00  0.00    -0.159 C  
HETATM   16  O   UNL     1     -11.725  15.284  67.562  1.00  0.00    -0.291 OA 
HETATM   17  C   UNL     1     -10.054  15.425  69.890  1.00  0.00    -0.240 C  
HETATM   18  C   UNL     1     -12.169  14.200  70.591  1.00  0.00    -0.432 A  
HETATM   19  C   UNL     1     -12.347  13.110  71.455  1.00  0.00    -0.143 A  
HETATM   20  O   UNL     1      -8.874  15.283  69.098  1.00  0.00    -0.209 OA 
HETATM   21  H   UNL     1      -8.295  16.021  69.252  1.00  0.00     0.000 HD 
HETATM   22  C   UNL     1     -13.450  13.053  72.309  1.00  0.00    -0.645 A  
HETATM   23  C   UNL     1     -14.386  14.084  72.310  1.00  0.00    -0.520 A  
HETATM   24  C   UNL     1     -14.221  15.175  71.462  1.00  0.00    -0.647 A  
HETATM   25  C   UNL     1     -13.119  15.236  70.608  1.00  0.00    -0.407 A  
ENDBRANCH  13  14
ENDBRANCH   7  13
TORSDOF 3
ENDMDL
MODEL       49
REMARK 921   NORMALIZED FREE ENERGY PREDICTED BY IDOCK:   -5.07 KCAL/MOL
REMARK 922        TOTAL FREE ENERGY PREDICTED BY IDOCK:   -7.04 KCAL/MOL
REMARK 923 INTER-LIGAND FREE ENERGY PREDICTED BY IDOCK:   -6.01 KCAL/MOL
REMARK 924 INTRA-LIGAND FREE ENERGY PREDICTED BY IDOCK:   -1.03 KCAL/MOL
REMARK 927      BINDING AFFINITY PREDICTED BY RF-SCORE:    0.00 PKD
ROOT
HETATM    1  C   UNL     1      -9.191   6.168  69.581  1.00  0.00    -0.143 C  
HETATM    2  C   UNL     1      -8.072   6.330  70.619  1.00  0.00    -0.113 C  
HETATM    3  C   UNL     1      -7.424   7.672  70.316  1.00  0.00    -0.083 C  
HETATM    4  C   UNL     1      -8.201   8.245  69.122  1.00  0.00    -0.121 C  
HETATM    5  C   UNL     1      -9.386   9.076  69.619  1.00  0.00    -0.169 C  
HETATM    6  N   UNL     1      -8.700   6.990  68.359  1.00  0.00    -0.125 N  
HETATM    7  C   UNL     1     -10.545   8.277  70.243  1.00  0.00    -0.227 C  
HETATM    8  C   UNL     1      -7.510   6.267  67.681  1.00  0.00    -0.089 C  
HETATM    9  C   UNL     1     -10.494   6.745  70.135  1.00  0.00    -0.240 C  
ENDROOT
BRANCH   6  10
HETATM   10  C   UNL     1      -9.798   7.286  67.268  1.00  0.00    -0.171 C  
HETATM   11  C   UNL     1     -10.424   5.999  66.727  1.00  0.00    -0.329 C  
HETATM   12  C   UNL     1      -9.257   8.154  66.127  1.00  0.00    -0.230 C  
ENDBRANCH   6  10
BRANCH   7  13
HETATM   13  O   UNL     1     -10.679   8.645  71.629  1.00  0.00    -0.254 OA 
BRANCH  13  14
HETATM   14  C   UNL     1     -11.975   8.897  72.017  1.00  0.00    -0.369 C  
HETATM   15  C   UNL     1     -12.780   9.467  70.864  1.00  0.00    -0.231 C  
HETATM   16  O   UNL     1     -12.392   8.713  73.154  1.00  0.00    -0.059 OA 
HETATM   17  C   UNL     1     -14.220   8.945  70.956  1.00  0.00     0.119 C  
HETATM   18  C   UNL     1     -12.700  10.981  70.851  1.00  0.00    -0.452 A  
HETATM   19  C   UNL     1     -12.144  11.647  69.749  1.00  0.00    -0.357 A  
HETATM   20  O   UNL     1     -14.230   7.530  70.766  1.00  0.00    -0.574 OA 
HETATM   21  H   UNL     1     -15.122   7.206  70.823  1.00  0.00     0.000 HD 
HETATM   22  C   UNL     1     -12.034  13.039  69.742  1.00  0.00    -0.377 A  
HETATM   23  C   UNL     1     -12.478  13.780  70.834  1.00  0.00    -0.451 A  
HETATM   24  C   UNL     1     -13.037  13.134  71.933  1.00  0.00    -0.482 A  
HETATM   25  C   UNL     1     -13.150  11.743  71.942  1.00  0.00    -0.482 A  
ENDBRANCH  13  14
ENDBRANCH   7  13
TORSDOF 3
ENDMDL
MODEL       50
REMARK 921   NORMALIZED FREE ENERGY PREDICTED BY IDOCK:   -5.06 KCAL/MOL
REMARK 922        TOTAL FREE ENERGY PREDICTED BY IDOCK:   -7.02 KCAL/MOL
REMARK 923 INTER-LIGAND FREE ENERGY PREDICTED BY IDOCK:   -6.32 KCAL/MOL
REMARK 924 INTRA-LIGAND FREE ENERGY PREDICTED BY IDOCK:   -0.70 KCAL/MOL
REMARK 927      BINDING AFFINITY PREDICTED BY RF-SCORE:    0.00 PKD
ROOT
HETATM    1  C   UNL     1      -8.911  11.333  66.197  1.00  0.00    -0.202 C  
HETATM    2  C   UNL     1     -10.012  11.951  65.323  1.00  0.00    -0.280 C  
HETATM    3  C   UNL     1     -11.270  11.933  66.178  1.00  0.00    -0.387 C  
HETATM    4  C   UNL     1     -10.848  11.317  67.520  1.00  0.00    -0.245 C  
HETATM    5  C   UNL     1     -10.375  12.416  68.473  1.00  0.00    -0.232 C  
HETATM    6  N   UNL     1      -9.674  10.375  67.150  1.00  0.00    -0.168 N  
HETATM    7  C   UNL     1      -9.024  13.066  68.122  1.00  0.00    -0.198 C  
HETATM    8  C   UNL     1     -10.197   9.150  66.359  1.00  0.00    -0.230 C  
HETATM    9  C   UNL     1      -8.203  12.434  66.986  1.00  0.00    -0.141 C  
ENDROOT
BRANCH   6  10
HETATM   10  C   UNL     1      -8.841   9.859  68.385  1.00  0.00    -0.120 C  
HETATM   11  C   UNL     1      -7.646   9.007  67.950  1.00  0.00    -0.093 C  
HETATM   12  C   UNL     1      -9.713   9.103  69.392  1.00  0.00    -0.170 C  
ENDBRANCH   6  10
BRANCH   7  13
HETATM   13  O   UNL     1      -9.233  14.460  67.829  1.00  0.00    -0.183 OA 
BRANCH  13  14
HETATM   14  C   UNL     1      -9.808  15.167  68.860  1.00  0.00    -0.229 C  
HETATM   15  C   UNL     1     -10.997  15.968  68.365  1.00  0.00    -0.331 C  
HETATM   16  O   UNL     1      -9.378  15.166  70.007  1.00  0.00    -0.047 OA 
HETATM   17  C   UNL     1     -12.068  16.000  69.463  1.00  0.00    -0.097 C  
HETATM   18  C   UNL     1     -10.565  17.351  67.920  1.00  0.00    -0.383 A  
HETATM   19  C   UNL     1     -10.751  17.753  66.589  1.00  0.00    -0.124 A  
HETATM   20  O   UNL     1     -12.563  14.680  69.689  1.00  0.00    -0.554 OA 
HETATM   21  H   UNL     1     -13.226  14.699  70.370  1.00  0.00     0.000 HD 
HETATM   22  C   UNL     1     -10.325  19.012  66.161  1.00  0.00    -0.537 A  
HETATM   23  C   UNL     1      -9.710  19.883  67.057  1.00  0.00    -0.529 A  
HETATM   24  C   UNL     1      -9.523  19.501  68.382  1.00  0.00    -0.449 A  
HETATM   25  C   UNL     1      -9.949  18.243  68.813  1.00  0.00    -0.391 A  
ENDBRANCH  13  14
ENDBRANCH   7  13
TORSDOF 3
ENDMDL
MODEL       51
REMARK 921   NORMALIZED FREE ENERGY PREDICTED BY IDOCK:   -5.04 KCAL/MOL
REMARK 922        TOTAL FREE ENERGY PREDICTED BY IDOCK:   -7.00 KCAL/MOL
REMARK 923 INTER-LIGAND FREE ENERGY PREDICTED BY IDOCK:   -6.60 KCAL/MOL
REMARK 924 INTRA-LIGAND FREE ENERGY PREDICTED BY IDOCK:   -0.40 KCAL/MOL
REMARK 927      BINDING AFFINITY PREDICTED BY RF-SCORE:    0.00 PKD
ROOT
HETATM    1  C   UNL     1     -11.383  16.116  68.547  1.00  0.00    -0.359 C  
HETATM    2  C   UNL     1      -9.944  16.646  68.467  1.00  0.00    -0.261 C  
HETATM    3  C   UNL     1      -9.108  15.688  69.302  1.00  0.00    -0.270 C  
HETATM    4  C   UNL     1     -10.091  14.630  69.823  1.00  0.00     0.172 C  
HETATM    5  C   UNL     1     -10.189  13.472  68.828  1.00  0.00    -0.139 C  
HETATM    6  N   UNL     1     -11.443  15.383  69.914  1.00  0.00    -0.286 N  
HETATM    7  C   UNL     1     -10.919  13.786  67.510  1.00  0.00    -0.272 C  
HETATM    8  C   UNL     1     -11.405  16.416  71.068  1.00  0.00    -0.166 C  
HETATM    9  C   UNL     1     -11.635  15.141  67.397  1.00  0.00    -0.251 C  
ENDROOT
BRANCH   6  10
HETATM   10  C   UNL     1     -12.696  14.448  70.116  1.00  0.00    -0.207 C  
HETATM   11  C   UNL     1     -13.868  15.196  70.756  1.00  0.00    -0.176 C  
HETATM   12  C   UNL     1     -12.351  13.187  70.914  1.00  0.00    -0.393 C  
ENDBRANCH   6  10
BRANCH   7  13
HETATM   13  O   UNL     1      -9.994  13.652  66.414  1.00  0.00    -0.281 OA 
BRANCH  13  14
HETATM   14  C   UNL     1     -10.599  13.510  65.186  1.00  0.00    -0.355 C  
HETATM   15  C   UNL     1     -11.122  12.098  65.005  1.00  0.00    -0.368 C  
HETATM   16  O   UNL     1     -10.661  14.406  64.352  1.00  0.00    -0.270 OA 
HETATM   17  C   UNL     1     -12.427  12.150  64.200  1.00  0.00    -0.396 C  
HETATM   18  C   UNL     1     -10.069  11.213  64.369  1.00  0.00    -0.377 A  
HETATM   19  C   UNL     1      -9.581  10.093  65.057  1.00  0.00    -0.362 A  
HETATM   20  O   UNL     1     -13.428  12.836  64.952  1.00  0.00    -0.557 OA 
HETATM   21  H   UNL     1     -14.237  12.868  64.454  1.00  0.00     0.000 HD 
HETATM   22  C   UNL     1      -8.586   9.291  64.493  1.00  0.00    -0.217 A  
HETATM   23  C   UNL     1      -8.069   9.599  63.237  1.00  0.00    -0.149 A  
HETATM   24  C   UNL     1      -8.547  10.705  62.540  1.00  0.00    -0.276 A  
HETATM   25  C   UNL     1      -9.542  11.507  63.100  1.00  0.00    -0.381 A  
ENDBRANCH  13  14
ENDBRANCH   7  13
TORSDOF 3
ENDMDL
MODEL       52
REMARK 921   NORMALIZED FREE ENERGY PREDICTED BY IDOCK:   -5.03 KCAL/MOL
REMARK 922        TOTAL FREE ENERGY PREDICTED BY IDOCK:   -6.99 KCAL/MOL
REMARK 923 INTER-LIGAND FREE ENERGY PREDICTED BY IDOCK:   -5.85 KCAL/MOL
REMARK 924 INTRA-LIGAND FREE ENERGY PREDICTED BY IDOCK:   -1.13 KCAL/MOL
REMARK 927      BINDING AFFINITY PREDICTED BY RF-SCORE:    0.00 PKD
ROOT
HETATM    1  C   UNL     1     -10.130   6.871  70.267  1.00  0.00    -0.183 C  
HETATM    2  C   UNL     1     -11.612   6.521  70.069  1.00  0.00    -0.455 C  
HETATM    3  C   UNL     1     -12.354   7.242  71.184  1.00  0.00    -0.381 C  
HETATM    4  C   UNL     1     -11.276   7.995  71.977  1.00  0.00    -0.298 C  
HETATM    5  C   UNL     1     -11.073   9.391  71.387  1.00  0.00    -0.450 C  
HETATM    6  N   UNL     1     -10.000   7.135  71.791  1.00  0.00    -0.176 N  
HETATM    7  C   UNL     1     -10.376   9.440  70.015  1.00  0.00    -0.233 C  
HETATM    8  C   UNL     1     -10.133   5.802  72.569  1.00  0.00    -0.180 C  
HETATM    9  C   UNL     1      -9.789   8.129  69.467  1.00  0.00    -0.181 C  
ENDROOT
BRANCH   6  10
HETATM   10  C   UNL     1      -8.666   7.846  72.234  1.00  0.00    -0.147 C  
HETATM   11  C   UNL     1      -7.428   7.085  71.755  1.00  0.00    -0.087 C  
HETATM   12  C   UNL     1      -8.613   8.079  73.748  1.00  0.00    -0.328 C  
ENDBRANCH   6  10
BRANCH   7  13
HETATM   13  O   UNL     1     -11.285   9.988  69.042  1.00  0.00    -0.207 OA 
BRANCH  13  14
HETATM   14  C   UNL     1     -10.767  11.040  68.323  1.00  0.00    -0.196 C  
HETATM   15  C   UNL     1     -10.785  10.736  66.837  1.00  0.00    -0.309 C  
HETATM   16  O   UNL     1     -10.321  12.059  68.836  1.00  0.00    -0.188 OA 
HETATM   17  C   UNL     1     -11.069  12.032  66.067  1.00  0.00    -0.320 C  
HETATM   18  C   UNL     1      -9.494  10.065  66.411  1.00  0.00    -0.235 A  
HETATM   19  C   UNL     1      -9.518   8.773  65.867  1.00  0.00    -0.278 A  
HETATM   20  O   UNL     1     -12.383  12.497  66.378  1.00  0.00    -0.537 OA 
HETATM   21  H   UNL     1     -12.559  13.300  65.901  1.00  0.00     0.000 HD 
HETATM   22  C   UNL     1      -8.331   8.134  65.503  1.00  0.00    -0.160 A  
HETATM   23  C   UNL     1      -7.109   8.778  65.678  1.00  0.00    -0.083 A  
HETATM   24  C   UNL     1      -7.069  10.062  66.212  1.00  0.00    -0.105 A  
HETATM   25  C   UNL     1      -8.254  10.705  66.575  1.00  0.00    -0.138 A  
ENDBRANCH  13  14
ENDBRANCH   7  13
TORSDOF 3
ENDMDL
MODEL       53
REMARK 921   NORMALIZED FREE ENERGY PREDICTED BY IDOCK:   -5.03 KCAL/MOL
REMARK 922        TOTAL FREE ENERGY PREDICTED BY IDOCK:   -6.98 KCAL/MOL
REMARK 923 INTER-LIGAND FREE ENERGY PREDICTED BY IDOCK:   -5.91 KCAL/MOL
REMARK 924 INTRA-LIGAND FREE ENERGY PREDICTED BY IDOCK:   -1.07 KCAL/MOL
REMARK 927      BINDING AFFINITY PREDICTED BY RF-SCORE:    0.00 PKD
ROOT
HETATM    1  C   UNL     1     -10.082  13.764  68.371  1.00  0.00    -0.241 C  
HETATM    2  C   UNL     1     -11.175  13.485  69.413  1.00  0.00    -0.244 C  
HETATM    3  C   UNL     1     -12.495  13.676  68.681  1.00  0.00     0.254 C  
HETATM    4  C   UNL     1     -12.117  14.045  67.239  1.00  0.00    -0.370 C  
HETATM    5  C   UNL     1     -11.982  12.778  66.393  1.00  0.00    -0.443 C  
HETATM    6  N   UNL     1     -10.746  14.755  67.378  1.00  0.00    -0.275 N  
HETATM    7  C   UNL     1     -10.754  11.900  66.700  1.00  0.00    -0.256 C  
HETATM    8  C   UNL     1     -10.923  16.138  68.053  1.00  0.00    -0.338 C  
HETATM    9  C   UNL     1      -9.700  12.462  67.666  1.00  0.00    -0.195 C  
ENDROOT
BRANCH   6  10
HETATM   10  C   UNL     1      -9.975  14.952  66.017  1.00  0.00    -0.313 C  
HETATM   11  C   UNL     1      -8.693  15.768  66.202  1.00  0.00    -0.293 C  
HETATM   12  C   UNL     1     -10.866  15.571  64.936  1.00  0.00    -0.447 C  
ENDBRANCH   6  10
BRANCH   7  13
HETATM   13  O   UNL     1     -11.198  10.619  67.184  1.00  0.00    -0.296 OA 
BRANCH  13  14
HETATM   14  C   UNL     1     -10.449   9.559  66.729  1.00  0.00    -0.193 C  
HETATM   15  C   UNL     1     -10.208   8.554  67.841  1.00  0.00    -0.273 C  
HETATM   16  O   UNL     1     -10.012   9.476  65.588  1.00  0.00    -0.305 OA 
HETATM   17  C   UNL     1     -10.208   7.142  67.243  1.00  0.00    -0.245 C  
HETATM   18  C   UNL     1      -8.932   8.880  68.592  1.00  0.00    -0.137 A  
HETATM   19  C   UNL     1      -8.978   9.186  69.959  1.00  0.00    -0.201 A  
HETATM   20  O   UNL     1     -11.504   6.838  66.727  1.00  0.00    -0.733 OA 
HETATM   21  H   UNL     1     -11.504   5.963  66.357  1.00  0.00     0.000 HD 
HETATM   22  C   UNL     1      -7.813   9.520  70.652  1.00  0.00    -0.149 A  
HETATM   23  C   UNL     1      -6.590   9.552  69.987  1.00  0.00    -0.065 A  
HETATM   24  C   UNL     1      -6.527   9.246  68.630  1.00  0.00    -0.053 A  
HETATM   25  C   UNL     1      -7.690   8.910  67.935  1.00  0.00    -0.101 A  
ENDBRANCH  13  14
ENDBRANCH   7  13
TORSDOF 3
ENDMDL
MODEL       54
REMARK 921   NORMALIZED FREE ENERGY PREDICTED BY IDOCK:   -5.02 KCAL/MOL
REMARK 922        TOTAL FREE ENERGY PREDICTED BY IDOCK:   -6.98 KCAL/MOL
REMARK 923 INTER-LIGAND FREE ENERGY PREDICTED BY IDOCK:   -6.13 KCAL/MOL
REMARK 924 INTRA-LIGAND FREE ENERGY PREDICTED BY IDOCK:   -0.85 KCAL/MOL
REMARK 927      BINDING AFFINITY PREDICTED BY RF-SCORE:    0.00 PKD
ROOT
HETATM    1  C   UNL     1      -9.997   8.892  67.572  1.00  0.00    -0.203 C  
HETATM    2  C   UNL     1     -11.154   8.809  68.577  1.00  0.00     0.239 C  
HETATM    3  C   UNL     1     -10.882   9.898  69.604  1.00  0.00    -0.281 C  
HETATM    4  C   UNL     1      -9.585  10.581  69.147  1.00  0.00    -0.199 C  
HETATM    5  C   UNL     1      -9.908  11.737  68.199  1.00  0.00    -0.190 C  
HETATM    6  N   UNL     1      -8.814   9.463  68.398  1.00  0.00    -0.128 N  
HETATM    7  C   UNL     1     -10.419  11.331  66.803  1.00  0.00    -0.248 C  
HETATM    8  C   UNL     1      -8.308   8.397  69.401  1.00  0.00    -0.120 C  
HETATM    9  C   UNL     1     -10.372   9.841  66.433  1.00  0.00    -0.247 C  
ENDROOT
BRANCH   6  10
HETATM   10  C   UNL     1      -7.591   9.975  67.547  1.00  0.00    -0.091 C  
HETATM   11  C   UNL     1      -7.038   8.883  66.630  1.00  0.00    -0.084 C  
HETATM   12  C   UNL     1      -6.483  10.564  68.427  1.00  0.00    -0.055 C  
ENDBRANCH   6  10
BRANCH   7  13
HETATM   13  O   UNL     1     -11.765  11.815  66.635  1.00  0.00    -0.548 OA 
BRANCH  13  14
HETATM   14  C   UNL     1     -11.996  12.409  65.415  1.00  0.00    -0.398 C  
HETATM   15  C   UNL     1     -10.695  12.873  64.788  1.00  0.00    -0.354 C  
HETATM   16  O   UNL     1     -13.113  12.566  64.937  1.00  0.00    -0.833 OA 
HETATM   17  C   UNL     1     -10.784  12.696  63.267  1.00  0.00     0.015 C  
HETATM   18  C   UNL     1     -10.379  14.297  65.201  1.00  0.00    -0.440 A  
HETATM   19  C   UNL     1      -9.208  14.579  65.920  1.00  0.00    -0.003 A  
HETATM   20  O   UNL     1     -10.887  11.307  62.951  1.00  0.00    -0.781 OA 
HETATM   21  H   UNL     1     -10.942  11.197  62.008  1.00  0.00     0.000 HD 
HETATM   22  C   UNL     1      -8.925  15.882  66.334  1.00  0.00    -0.361 A  
HETATM   23  C   UNL     1      -9.807  16.918  66.033  1.00  0.00    -0.281 A  
HETATM   24  C   UNL     1     -10.971  16.655  65.316  1.00  0.00    -0.127 A  
HETATM   25  C   UNL     1     -11.255  15.353  64.899  1.00  0.00    -0.410 A  
ENDBRANCH  13  14
ENDBRANCH   7  13
TORSDOF 3
ENDMDL
MODEL       55
REMARK 921   NORMALIZED FREE ENERGY PREDICTED BY IDOCK:   -5.02 KCAL/MOL
REMARK 922        TOTAL FREE ENERGY PREDICTED BY IDOCK:   -6.97 KCAL/MOL
REMARK 923 INTER-LIGAND FREE ENERGY PREDICTED BY IDOCK:   -6.18 KCAL/MOL
REMARK 924 INTRA-LIGAND FREE ENERGY PREDICTED BY IDOCK:   -0.79 KCAL/MOL
REMARK 927      BINDING AFFINITY PREDICTED BY RF-SCORE:    0.00 PKD
ROOT
HETATM    1  C   UNL     1     -12.144  14.067  66.381  1.00  0.00    -0.455 C  
HETATM    2  C   UNL     1     -12.520  13.092  65.256  1.00  0.00    -0.555 C  
HETATM    3  C   UNL     1     -11.270  12.954  64.400  1.00  0.00    -0.389 C  
HETATM    4  C   UNL     1     -10.212  13.844  65.068  1.00  0.00    -0.358 C  
HETATM    5  C   UNL     1      -9.431  13.037  66.107  1.00  0.00    -0.159 C  
HETATM    6  N   UNL     1     -11.038  14.960  65.757  1.00  0.00    -0.337 N  
HETATM    7  C   UNL     1     -10.208  12.663  67.383  1.00  0.00    -0.217 C  
HETATM    8  C   UNL     1     -11.659  15.901  64.695  1.00  0.00    -0.200 C  
HETATM    9  C   UNL     1     -11.599  13.285  67.577  1.00  0.00    -0.388 C  
ENDROOT
BRANCH   6  10
HETATM   10  C   UNL     1     -10.223  15.831  66.787  1.00  0.00    -0.282 C  
HETATM   11  C   UNL     1     -11.135  16.746  67.607  1.00  0.00    -0.089 C  
HETATM   12  C   UNL     1      -9.110  16.635  66.108  1.00  0.00    -0.318 C  
ENDBRANCH   6  10
BRANCH   7  13
HETATM   13  O   UNL     1     -10.320  11.230  67.464  1.00  0.00    -0.185 OA 
BRANCH  13  14
HETATM   14  C   UNL     1      -9.216  10.613  68.006  1.00  0.00    -0.148 C  
HETATM   15  C   UNL     1      -8.858   9.365  67.221  1.00  0.00    -0.136 C  
HETATM   16  O   UNL     1      -8.638  11.013  69.009  1.00  0.00    -0.146 OA 
HETATM   17  C   UNL     1      -7.332   9.210  67.200  1.00  0.00    -0.087 C  
HETATM   18  C   UNL     1      -9.569   8.152  67.788  1.00  0.00    -0.180 A  
HETATM   19  C   UNL     1     -10.472   7.430  66.994  1.00  0.00    -0.404 A  
HETATM   20  O   UNL     1      -6.749  10.295  66.479  1.00  0.00    -0.080 OA 
HETATM   21  H   UNL     1      -5.803  10.199  66.467  1.00  0.00     0.000 HD 
HETATM   22  C   UNL     1     -11.157   6.332  67.518  1.00  0.00    -0.379 A  
HETATM   23  C   UNL     1     -10.948   5.943  68.839  1.00  0.00    -0.337 A  
HETATM   24  C   UNL     1     -10.051   6.647  69.638  1.00  0.00    -0.202 A  
HETATM   25  C   UNL     1      -9.364   7.744  69.116  1.00  0.00    -0.151 A  
ENDBRANCH  13  14
ENDBRANCH   7  13
TORSDOF 3
ENDMDL
MODEL       56
REMARK 921   NORMALIZED FREE ENERGY PREDICTED BY IDOCK:   -5.02 KCAL/MOL
REMARK 922        TOTAL FREE ENERGY PREDICTED BY IDOCK:   -6.97 KCAL/MOL
REMARK 923 INTER-LIGAND FREE ENERGY PREDICTED BY IDOCK:   -6.22 KCAL/MOL
REMARK 924 INTRA-LIGAND FREE ENERGY PREDICTED BY IDOCK:   -0.75 KCAL/MOL
REMARK 927      BINDING AFFINITY PREDICTED BY RF-SCORE:    0.00 PKD
ROOT
HETATM    1  C   UNL     1     -11.878  14.036  67.496  1.00  0.00    -0.407 C  
HETATM    2  C   UNL     1     -12.040  13.992  65.969  1.00  0.00    -0.461 C  
HETATM    3  C   UNL     1     -10.647  14.223  65.404  1.00  0.00    -0.367 C  
HETATM    4  C   UNL     1      -9.727  14.378  66.623  1.00  0.00    -0.278 C  
HETATM    5  C   UNL     1      -9.187  13.011  67.048  1.00  0.00    -0.232 C  
HETATM    6  N   UNL     1     -10.652  14.961  67.722  1.00  0.00    -0.258 N  
HETATM    7  C   UNL     1     -10.212  12.060  67.694  1.00  0.00    -0.199 C  
HETATM    8  C   UNL     1     -11.028  16.425  67.385  1.00  0.00    -0.145 C  
HETATM    9  C   UNL     1     -11.601  12.628  68.023  1.00  0.00    -0.394 C  
ENDROOT
BRANCH   6  10
HETATM   10  C   UNL     1     -10.043  14.918  69.175  1.00  0.00    -0.226 C  
HETATM   11  C   UNL     1     -11.010  15.488  70.215  1.00  0.00    -0.352 C  
HETATM   12  C   UNL     1      -8.683  15.619  69.250  1.00  0.00    -0.267 C  
ENDBRANCH   6  10
BRANCH   7  13
HETATM   13  O   UNL     1     -10.367  10.896  66.861  1.00  0.00    -0.219 OA 
BRANCH  13  14
HETATM   14  C   UNL     1      -9.432   9.914  67.094  1.00  0.00    -0.158 C  
HETATM   15  C   UNL     1     -10.091   8.666  67.652  1.00  0.00    -0.271 C  
HETATM   16  O   UNL     1      -8.230  10.061  66.906  1.00  0.00    -0.120 OA 
HETATM   17  C   UNL     1      -9.359   7.432  67.109  1.00  0.00    -0.142 C  
HETATM   18  C   UNL     1     -10.131   8.712  69.166  1.00  0.00    -0.203 A  
HETATM   19  C   UNL     1     -11.362   8.699  69.839  1.00  0.00     0.043 A  
HETATM   20  O   UNL     1      -9.531   7.355  65.694  1.00  0.00    -0.377 OA 
HETATM   21  H   UNL     1      -9.078   6.590  65.357  1.00  0.00     0.000 HD 
HETATM   22  C   UNL     1     -11.410   8.776  71.232  1.00  0.00    -0.357 A  
HETATM   23  C   UNL     1     -10.231   8.865  71.968  1.00  0.00    -0.363 A  
HETATM   24  C   UNL     1      -9.002   8.874  71.315  1.00  0.00    -0.312 A  
HETATM   25  C   UNL     1      -8.950   8.796  69.923  1.00  0.00    -0.152 A  
ENDBRANCH  13  14
ENDBRANCH   7  13
TORSDOF 3
ENDMDL
MODEL       57
REMARK 921   NORMALIZED FREE ENERGY PREDICTED BY IDOCK:   -5.01 KCAL/MOL
REMARK 922        TOTAL FREE ENERGY PREDICTED BY IDOCK:   -6.97 KCAL/MOL
REMARK 923 INTER-LIGAND FREE ENERGY PREDICTED BY IDOCK:   -6.11 KCAL/MOL
REMARK 924 INTRA-LIGAND FREE ENERGY PREDICTED BY IDOCK:   -0.85 KCAL/MOL
REMARK 927      BINDING AFFINITY PREDICTED BY RF-SCORE:    0.00 PKD
ROOT
HETATM    1  C   UNL     1     -10.685   8.796  69.473  1.00  0.00    -0.188 C  
HETATM    2  C   UNL     1     -10.127   9.287  70.817  1.00  0.00    -0.358 C  
HETATM    3  C   UNL     1      -8.617   9.325  70.642  1.00  0.00    -0.270 C  
HETATM    4  C   UNL     1      -8.357   8.868  69.200  1.00  0.00    -0.124 C  
HETATM    5  C   UNL     1      -8.364  10.075  68.260  1.00  0.00    -0.110 C  
HETATM    6  N   UNL     1      -9.545   7.925  68.882  1.00  0.00    -0.154 N  
HETATM    7  C   UNL     1      -9.740  10.721  68.016  1.00  0.00    -0.162 C  
HETATM    8  C   UNL     1      -9.416   6.609  69.689  1.00  0.00    -0.142 C  
HETATM    9  C   UNL     1     -10.976   9.995  68.569  1.00  0.00    -0.255 C  
ENDROOT
BRANCH   6  10
HETATM   10  C   UNL     1      -9.701   7.567  67.355  1.00  0.00    -0.159 C  
HETATM   11  C   UNL     1     -10.924   6.684  67.099  1.00  0.00    -0.478 C  
HETATM   12  C   UNL     1      -8.433   6.925  66.782  1.00  0.00    -0.118 C  
ENDBRANCH   6  10
BRANCH   7  13
HETATM   13  O   UNL     1      -9.725  12.070  68.521  1.00  0.00    -0.207 OA 
BRANCH  13  14
HETATM   14  C   UNL     1      -9.246  12.997  67.623  1.00  0.00    -0.200 C  
HETATM   15  C   UNL     1     -10.383  13.812  67.035  1.00  0.00    -0.260 C  
HETATM   16  O   UNL     1      -8.063  13.106  67.325  1.00  0.00    -0.174 OA 
HETATM   17  C   UNL     1      -9.897  15.249  66.805  1.00  0.00    -0.236 C  
HETATM   18  C   UNL     1     -10.916  13.158  65.775  1.00  0.00    -0.295 A  
HETATM   19  C   UNL     1     -12.249  12.730  65.714  1.00  0.00    -0.469 A  
HETATM   20  O   UNL     1      -9.597  15.861  68.060  1.00  0.00    -0.209 OA 
HETATM   21  H   UNL     1      -9.297  16.751  67.917  1.00  0.00     0.000 HD 
HETATM   22  C   UNL     1     -12.740  12.096  64.571  1.00  0.00    -0.245 A  
HETATM   23  C   UNL     1     -11.905  11.884  63.476  1.00  0.00    -0.560 A  
HETATM   24  C   UNL     1     -10.580  12.308  63.520  1.00  0.00    -0.488 A  
HETATM   25  C   UNL     1     -10.087  12.944  64.661  1.00  0.00    -0.254 A  
ENDBRANCH  13  14
ENDBRANCH   7  13
TORSDOF 3
ENDMDL
MODEL       58
REMARK 921   NORMALIZED FREE ENERGY PREDICTED BY IDOCK:   -5.00 KCAL/MOL
REMARK 922        TOTAL FREE ENERGY PREDICTED BY IDOCK:   -6.95 KCAL/MOL
REMARK 923 INTER-LIGAND FREE ENERGY PREDICTED BY IDOCK:   -6.61 KCAL/MOL
REMARK 924 INTRA-LIGAND FREE ENERGY PREDICTED BY IDOCK:   -0.34 KCAL/MOL
REMARK 927      BINDING AFFINITY PREDICTED BY RF-SCORE:    0.00 PKD
ROOT
HETATM    1  C   UNL     1      -9.166  19.780  68.259  1.00  0.00    -0.311 C  
HETATM    2  C   UNL     1     -10.006  20.331  67.098  1.00  0.00    -0.593 C  
HETATM    3  C   UNL     1      -9.404  19.728  65.837  1.00  0.00    -0.244 C  
HETATM    4  C   UNL     1      -8.247  18.840  66.317  1.00  0.00    -0.252 C  
HETATM    5  C   UNL     1      -8.755  17.424  66.594  1.00  0.00    -0.286 C  
HETATM    6  N   UNL     1      -7.773  19.514  67.630  1.00  0.00    -0.266 N  
HETATM    7  C   UNL     1      -9.650  17.269  67.838  1.00  0.00    -0.269 C  
HETATM    8  C   UNL     1      -7.069  20.859  67.319  1.00  0.00    -0.370 C  
HETATM    9  C   UNL     1      -9.788  18.481  68.772  1.00  0.00    -0.411 C  
ENDROOT
BRANCH   6  10
HETATM   10  C   UNL     1      -6.804  18.628  68.503  1.00  0.00    -0.264 C  
HETATM   11  C   UNL     1      -6.372  19.348  69.782  1.00  0.00    -0.316 C  
HETATM   12  C   UNL     1      -5.586  18.150  67.705  1.00  0.00    -0.151 C  
ENDBRANCH   6  10
BRANCH   7  13
HETATM   13  O   UNL     1     -10.962  16.844  67.424  1.00  0.00    -0.221 OA 
BRANCH  13  14
HETATM   14  C   UNL     1     -11.196  15.500  67.602  1.00  0.00    -0.291 C  
HETATM   15  C   UNL     1     -10.642  15.029  68.933  1.00  0.00    -0.242 C  
HETATM   16  O   UNL     1     -11.745  14.789  66.768  1.00  0.00    -0.366 OA 
HETATM   17  C   UNL     1     -11.569  13.949  69.505  1.00  0.00    -0.301 C  
HETATM   18  C   UNL     1      -9.208  14.559  68.782  1.00  0.00    -0.162 A  
HETATM   19  C   UNL     1      -8.179  15.202  69.484  1.00  0.00    -0.160 A  
HETATM   20  O   UNL     1     -12.845  14.519  69.801  1.00  0.00    -0.552 OA 
HETATM   21  H   UNL     1     -13.419  13.849  70.155  1.00  0.00     0.000 HD 
HETATM   22  C   UNL     1      -6.851  14.799  69.325  1.00  0.00    -0.144 A  
HETATM   23  C   UNL     1      -6.539  13.749  68.465  1.00  0.00    -0.099 A  
HETATM   24  C   UNL     1      -7.550  13.097  67.765  1.00  0.00    -0.155 A  
HETATM   25  C   UNL     1      -8.878  13.497  67.924  1.00  0.00    -0.190 A  
ENDBRANCH  13  14
ENDBRANCH   7  13
TORSDOF 3
ENDMDL
MODEL       59
REMARK 921   NORMALIZED FREE ENERGY PREDICTED BY IDOCK:   -4.95 KCAL/MOL
REMARK 922        TOTAL FREE ENERGY PREDICTED BY IDOCK:   -6.90 KCAL/MOL
REMARK 923 INTER-LIGAND FREE ENERGY PREDICTED BY IDOCK:   -5.97 KCAL/MOL
REMARK 924 INTRA-LIGAND FREE ENERGY PREDICTED BY IDOCK:   -0.93 KCAL/MOL
REMARK 927      BINDING AFFINITY PREDICTED BY RF-SCORE:    0.00 PKD
ROOT
HETATM    1  C   UNL     1     -12.191  12.834  65.619  1.00  0.00    -0.444 C  
HETATM    2  C   UNL     1     -12.472  12.200  64.250  1.00  0.00    -0.461 C  
HETATM    3  C   UNL     1     -11.184  12.353  63.456  1.00  0.00    -0.540 C  
HETATM    4  C   UNL     1     -10.199  13.059  64.400  1.00  0.00    -0.311 C  
HETATM    5  C   UNL     1      -9.421  12.022  65.212  1.00  0.00    -0.042 C  
HETATM    6  N   UNL     1     -11.107  13.906  65.328  1.00  0.00    -0.308 N  
HETATM    7  C   UNL     1     -10.229  11.278  66.292  1.00  0.00    -0.236 C  
HETATM    8  C   UNL     1     -11.730  15.084  64.538  1.00  0.00    -0.368 C  
HETATM    9  C   UNL     1     -11.657  11.770  66.578  1.00  0.00    -0.256 C  
ENDROOT
BRANCH   6  10
HETATM   10  C   UNL     1     -10.378  14.483  66.601  1.00  0.00    -0.274 C  
HETATM   11  C   UNL     1     -11.359  15.155  67.563  1.00  0.00    -0.325 C  
HETATM   12  C   UNL     1      -9.237  15.436  66.229  1.00  0.00    -0.354 C  
ENDBRANCH   6  10
BRANCH   7  13
HETATM   13  O   UNL     1     -10.273   9.876  65.965  1.00  0.00    -0.254 OA 
BRANCH  13  14
HETATM   14  C   UNL     1     -10.296   9.047  67.064  1.00  0.00    -0.269 C  
HETATM   15  C   UNL     1      -9.539   9.670  68.222  1.00  0.00    -0.153 C  
HETATM   16  O   UNL     1     -10.827   7.943  67.071  1.00  0.00    -0.305 OA 
HETATM   17  C   UNL     1     -10.238   9.291  69.534  1.00  0.00    -0.207 C  
HETATM   18  C   UNL     1      -8.079   9.262  68.190  1.00  0.00    -0.107 A  
HETATM   19  C   UNL     1      -7.079  10.236  68.052  1.00  0.00    -0.083 A  
HETATM   20  O   UNL     1     -11.541   9.875  69.570  1.00  0.00    -0.435 OA 
HETATM   21  H   UNL     1     -11.974   9.641  70.382  1.00  0.00     0.000 HD 
HETATM   22  C   UNL     1      -5.734   9.868  67.988  1.00  0.00    -0.039 A  
HETATM   23  C   UNL     1      -5.373   8.524  68.061  1.00  0.00    -0.035 A  
HETATM   24  C   UNL     1      -6.354   7.547  68.204  1.00  0.00    -0.048 A  
HETATM   25  C   UNL     1      -7.699   7.912  68.270  1.00  0.00    -0.121 A  
ENDBRANCH  13  14
ENDBRANCH   7  13
TORSDOF 3
ENDMDL
MODEL       60
REMARK 921   NORMALIZED FREE ENERGY PREDICTED BY IDOCK:   -4.95 KCAL/MOL
REMARK 922        TOTAL FREE ENERGY PREDICTED BY IDOCK:   -6.89 KCAL/MOL
REMARK 923 INTER-LIGAND FREE ENERGY PREDICTED BY IDOCK:   -6.01 KCAL/MOL
REMARK 924 INTRA-LIGAND FREE ENERGY PREDICTED BY IDOCK:   -0.88 KCAL/MOL
REMARK 927      BINDING AFFINITY PREDICTED BY RF-SCORE:    0.00 PKD
ROOT
HETATM    1  C   UNL     1     -10.000  13.334  66.481  1.00  0.00    -0.280 C  
HETATM    2  C   UNL     1     -10.082  13.820  65.027  1.00  0.00    -0.310 C  
HETATM    3  C   UNL     1     -10.733  15.193  65.091  1.00  0.00    -0.442 C  
HETATM    4  C   UNL     1     -10.991  15.458  66.582  1.00  0.00    -0.275 C  
HETATM    5  C   UNL     1      -9.777  16.148  67.207  1.00  0.00    -0.233 C  
HETATM    6  N   UNL     1     -11.185  14.045  67.188  1.00  0.00    -0.303 N  
HETATM    7  C   UNL     1      -8.525  15.268  67.378  1.00  0.00    -0.179 C  
HETATM    8  C   UNL     1     -12.526  13.435  66.709  1.00  0.00    -0.104 C  
HETATM    9  C   UNL     1      -8.666  13.765  67.092  1.00  0.00    -0.231 C  
ENDROOT
BRANCH   6  10
HETATM   10  C   UNL     1     -11.145  14.002  68.763  1.00  0.00    -0.264 C  
HETATM   11  C   UNL     1     -11.443  12.601  69.303  1.00  0.00    -0.354 C  
HETATM   12  C   UNL     1     -12.080  15.041  69.391  1.00  0.00    -0.290 C  
ENDBRANCH   6  10
BRANCH   7  13
HETATM   13  O   UNL     1      -7.460  15.801  66.568  1.00  0.00    -0.105 OA 
BRANCH  13  14
HETATM   14  C   UNL     1      -6.349  16.182  67.287  1.00  0.00    -0.169 C  
HETATM   15  C   UNL     1      -6.724  17.177  68.369  1.00  0.00    -0.170 C  
HETATM   16  O   UNL     1      -5.215  15.789  67.043  1.00  0.00    -0.318 OA 
HETATM   17  C   UNL     1      -5.841  16.930  69.599  1.00  0.00    -0.210 C  
HETATM   18  C   UNL     1      -6.632  18.597  67.848  1.00  0.00    -0.219 A  
HETATM   19  C   UNL     1      -7.773  19.411  67.815  1.00  0.00    -0.312 A  
HETATM   20  O   UNL     1      -6.128  15.643  70.146  1.00  0.00    -0.159 OA 
HETATM   21  H   UNL     1      -5.581  15.490  70.908  1.00  0.00     0.000 HD 
HETATM   22  C   UNL     1      -7.705  20.709  67.306  1.00  0.00    -0.359 A  
HETATM   23  C   UNL     1      -6.496  21.208  66.825  1.00  0.00    -0.376 A  
HETATM   24  C   UNL     1      -5.354  20.414  66.855  1.00  0.00    -0.190 A  
HETATM   25  C   UNL     1      -5.419  19.117  67.366  1.00  0.00    -0.162 A  
ENDBRANCH  13  14
ENDBRANCH   7  13
TORSDOF 3
ENDMDL
MODEL       61
REMARK 921   NORMALIZED FREE ENERGY PREDICTED BY IDOCK:   -4.92 KCAL/MOL
REMARK 922        TOTAL FREE ENERGY PREDICTED BY IDOCK:   -6.86 KCAL/MOL
REMARK 923 INTER-LIGAND FREE ENERGY PREDICTED BY IDOCK:   -6.10 KCAL/MOL
REMARK 924 INTRA-LIGAND FREE ENERGY PREDICTED BY IDOCK:   -0.76 KCAL/MOL
REMARK 927      BINDING AFFINITY PREDICTED BY RF-SCORE:    0.00 PKD
ROOT
HETATM    1  C   UNL     1      -9.078   6.285  69.646  1.00  0.00    -0.142 C  
HETATM    2  C   UNL     1     -10.348   5.548  69.198  1.00  0.00    -0.318 C  
HETATM    3  C   UNL     1     -11.498   6.249  69.905  1.00  0.00    -0.459 C  
HETATM    4  C   UNL     1     -10.852   7.374  70.726  1.00  0.00    -0.241 C  
HETATM    5  C   UNL     1     -10.764   8.650  69.885  1.00  0.00    -0.227 C  
HETATM    6  N   UNL     1      -9.434   6.839  71.051  1.00  0.00    -0.164 N  
HETATM    7  C   UNL     1      -9.733   8.624  68.742  1.00  0.00    -0.166 C  
HETATM    8  C   UNL     1      -9.521   5.675  72.070  1.00  0.00    -0.150 C  
HETATM    9  C   UNL     1      -8.775   7.425  68.673  1.00  0.00    -0.128 C  
ENDROOT
BRANCH   6  10
HETATM   10  C   UNL     1      -8.441   7.927  71.611  1.00  0.00    -0.116 C  
HETATM   11  C   UNL     1      -6.992   7.434  71.602  1.00  0.00    -0.058 C  
HETATM   12  C   UNL     1      -8.846   8.411  73.007  1.00  0.00    -0.233 C  
ENDBRANCH   6  10
BRANCH   7  13
HETATM   13  O   UNL     1     -10.421   8.747  67.483  1.00  0.00    -0.257 OA 
BRANCH  13  14
HETATM   14  C   UNL     1      -9.614   9.146  66.442  1.00  0.00    -0.245 C  
HETATM   15  C   UNL     1      -9.387  10.645  66.482  1.00  0.00    -0.192 C  
HETATM   16  O   UNL     1      -9.181   8.382  65.587  1.00  0.00    -0.154 OA 
HETATM   17  C   UNL     1      -7.961  10.945  66.001  1.00  0.00    -0.132 C  
HETATM   18  C   UNL     1     -10.448  11.371  65.679  1.00  0.00    -0.316 A  
HETATM   19  C   UNL     1     -11.304  12.286  66.308  1.00  0.00    -0.395 A  
HETATM   20  O   UNL     1      -7.018  10.390  66.919  1.00  0.00    -0.086 OA 
HETATM   21  H   UNL     1      -6.135  10.576  66.621  1.00  0.00     0.000 HD 
HETATM   22  C   UNL     1     -12.306  12.934  65.583  1.00  0.00    -0.482 A  
HETATM   23  C   UNL     1     -12.463  12.676  64.223  1.00  0.00    -0.494 A  
HETATM   24  C   UNL     1     -11.618  11.774  63.584  1.00  0.00    -0.521 A  
HETATM   25  C   UNL     1     -10.614  11.126  64.305  1.00  0.00    -0.425 A  
ENDBRANCH  13  14
ENDBRANCH   7  13
TORSDOF 3
ENDMDL
MODEL       62
REMARK 921   NORMALIZED FREE ENERGY PREDICTED BY IDOCK:   -4.85 KCAL/MOL
REMARK 922        TOTAL FREE ENERGY PREDICTED BY IDOCK:   -6.78 KCAL/MOL
REMARK 923 INTER-LIGAND FREE ENERGY PREDICTED BY IDOCK:   -6.08 KCAL/MOL
REMARK 924 INTRA-LIGAND FREE ENERGY PREDICTED BY IDOCK:   -0.70 KCAL/MOL
REMARK 927      BINDING AFFINITY PREDICTED BY RF-SCORE:    0.00 PKD
ROOT
HETATM    1  C   UNL     1     -10.068  13.180  64.695  1.00  0.00    -0.226 C  
HETATM    2  C   UNL     1     -11.421  13.717  64.208  1.00  0.00    -0.393 C  
HETATM    3  C   UNL     1     -12.473  12.901  64.943  1.00  0.00    -0.540 C  
HETATM    4  C   UNL     1     -11.690  11.930  65.839  1.00  0.00    -0.136 C  
HETATM    5  C   UNL     1     -11.426  12.574  67.202  1.00  0.00    -0.414 C  
HETATM    6  N   UNL     1     -10.359  11.704  65.078  1.00  0.00    -0.267 N  
HETATM    7  C   UNL     1     -10.399  13.721  67.209  1.00  0.00    -0.253 C  
HETATM    8  C   UNL     1     -10.608  10.867  63.799  1.00  0.00    -0.184 C  
HETATM    9  C   UNL     1      -9.608  13.977  65.916  1.00  0.00    -0.186 C  
ENDROOT
BRANCH   6  10
HETATM   10  C   UNL     1      -9.234  11.001  65.929  1.00  0.00    -0.199 C  
HETATM   11  C   UNL     1      -8.006  10.662  65.081  1.00  0.00    -0.036 C  
HETATM   12  C   UNL     1      -9.756   9.759  66.658  1.00  0.00    -0.257 C  
ENDBRANCH   6  10
BRANCH   7  13
HETATM   13  O   UNL     1     -11.054  14.940  67.607  1.00  0.00    -0.290 OA 
BRANCH  13  14
HETATM   14  C   UNL     1     -10.487  15.546  68.704  1.00  0.00    -0.237 C  
HETATM   15  C   UNL     1     -11.066  16.933  68.910  1.00  0.00    -0.128 C  
HETATM   16  O   UNL     1      -9.608  15.033  69.386  1.00  0.00    -0.202 OA 
HETATM   17  C   UNL     1     -11.158  17.215  70.415  1.00  0.00     0.796 C  
HETATM   18  C   UNL     1     -10.252  17.971  68.163  1.00  0.00    -0.392 A  
HETATM   19  C   UNL     1     -10.848  18.739  67.152  1.00  0.00    -0.375 A  
HETATM   20  O   UNL     1     -12.093  16.318  71.016  1.00  0.00    -0.560 OA 
HETATM   21  H   UNL     1     -12.151  16.493  71.948  1.00  0.00     0.000 HD 
HETATM   22  C   UNL     1     -10.098  19.673  66.435  1.00  0.00    -0.573 A  
HETATM   23  C   UNL     1      -8.746  19.850  66.719  1.00  0.00    -0.407 A  
HETATM   24  C   UNL     1      -8.142  19.099  67.722  1.00  0.00    -0.310 A  
HETATM   25  C   UNL     1      -8.889  18.165  68.443  1.00  0.00    -0.305 A  
ENDBRANCH  13  14
ENDBRANCH   7  13
TORSDOF 3
ENDMDL
MODEL       63
REMARK 921   NORMALIZED FREE ENERGY PREDICTED BY IDOCK:   -4.84 KCAL/MOL
REMARK 922        TOTAL FREE ENERGY PREDICTED BY IDOCK:   -6.77 KCAL/MOL
REMARK 923 INTER-LIGAND FREE ENERGY PREDICTED BY IDOCK:   -6.07 KCAL/MOL
REMARK 924 INTRA-LIGAND FREE ENERGY PREDICTED BY IDOCK:   -0.70 KCAL/MOL
REMARK 927      BINDING AFFINITY PREDICTED BY RF-SCORE:    0.00 PKD
ROOT
HETATM    1  C   UNL     1      -9.200  12.117  66.905  1.00  0.00    -0.203 C  
HETATM    2  C   UNL     1      -8.998  12.904  68.208  1.00  0.00    -0.175 C  
HETATM    3  C   UNL     1     -10.392  13.318  68.655  1.00  0.00    -0.206 C  
HETATM    4  C   UNL     1     -11.350  12.745  67.601  1.00  0.00    -0.310 C  
HETATM    5  C   UNL     1     -11.784  11.333  68.002  1.00  0.00    -0.305 C  
HETATM    6  N   UNL     1     -10.504  12.705  66.303  1.00  0.00    -0.248 N  
HETATM    7  C   UNL     1     -10.698  10.246  67.893  1.00  0.00    -0.264 C  
HETATM    8  C   UNL     1     -10.246  14.142  65.787  1.00  0.00    -0.332 C  
HETATM    9  C   UNL     1      -9.370  10.631  67.223  1.00  0.00    -0.166 C  
ENDROOT
BRANCH   6  10
HETATM   10  C   UNL     1     -11.142  11.858  65.137  1.00  0.00    -0.305 C  
HETATM   11  C   UNL     1     -10.181  11.700  63.956  1.00  0.00    -0.391 C  
HETATM   12  C   UNL     1     -12.485  12.433  64.676  1.00  0.00    -0.500 C  
ENDBRANCH   6  10
BRANCH   7  13
HETATM   13  O   UNL     1     -10.425   9.718  69.204  1.00  0.00    -0.197 OA 
BRANCH  13  14
HETATM   14  C   UNL     1     -10.512   8.347  69.283  1.00  0.00    -0.215 C  
HETATM   15  C   UNL     1     -10.628   7.898  70.727  1.00  0.00    -0.222 C  
HETATM   16  O   UNL     1     -10.463   7.606  68.308  1.00  0.00    -0.199 OA 
HETATM   17  C   UNL     1     -11.544   6.669  70.794  1.00  0.00    -0.376 C  
HETATM   18  C   UNL     1      -9.257   7.647  71.323  1.00  0.00    -0.155 A  
HETATM   19  C   UNL     1      -8.820   8.398  72.424  1.00  0.00    -0.294 A  
HETATM   20  O   UNL     1     -12.867   7.033  70.400  1.00  0.00    -0.558 OA 
HETATM   21  H   UNL     1     -13.434   6.272  70.442  1.00  0.00     0.000 HD 
HETATM   22  C   UNL     1      -7.545   8.199  72.958  1.00  0.00    -0.187 A  
HETATM   23  C   UNL     1      -6.694   7.248  72.399  1.00  0.00    -0.059 A  
HETATM   24  C   UNL     1      -7.116   6.491  71.310  1.00  0.00    -0.077 A  
HETATM   25  C   UNL     1      -8.390   6.687  70.775  1.00  0.00    -0.129 A  
ENDBRANCH  13  14
ENDBRANCH   7  13
TORSDOF 3
ENDMDL
MODEL       64
REMARK 921   NORMALIZED FREE ENERGY PREDICTED BY IDOCK:   -4.84 KCAL/MOL
REMARK 922        TOTAL FREE ENERGY PREDICTED BY IDOCK:   -6.76 KCAL/MOL
REMARK 923 INTER-LIGAND FREE ENERGY PREDICTED BY IDOCK:   -6.08 KCAL/MOL
REMARK 924 INTRA-LIGAND FREE ENERGY PREDICTED BY IDOCK:   -0.68 KCAL/MOL
REMARK 927      BINDING AFFINITY PREDICTED BY RF-SCORE:    0.00 PKD
ROOT
HETATM    1  C   UNL     1     -10.798  10.338  67.132  1.00  0.00    -0.212 C  
HETATM    2  C   UNL     1      -9.969   9.307  66.351  1.00  0.00    -0.356 C  
HETATM    3  C   UNL     1      -8.532   9.512  66.803  1.00  0.00    -0.129 C  
HETATM    4  C   UNL     1      -8.582  10.645  67.839  1.00  0.00    -0.124 C  
HETATM    5  C   UNL     1      -8.801  10.065  69.237  1.00  0.00    -0.184 C  
HETATM    6  N   UNL     1      -9.803  11.497  67.407  1.00  0.00    -0.185 N  
HETATM    7  C   UNL     1     -10.203   9.488  69.508  1.00  0.00    -0.213 C  
HETATM    8  C   UNL     1      -9.492  12.249  66.089  1.00  0.00    -0.217 C  
HETATM    9  C   UNL     1     -11.286   9.719  68.442  1.00  0.00    -0.076 C  
ENDROOT
BRANCH   6  10
HETATM   10  C   UNL     1     -10.279  12.544  68.484  1.00  0.00    -0.203 C  
HETATM   11  C   UNL     1     -11.720  12.998  68.240  1.00  0.00    -0.390 C  
HETATM   12  C   UNL     1      -9.334  13.747  68.575  1.00  0.00    -0.144 C  
ENDBRANCH   6  10
BRANCH   7  13
HETATM   13  O   UNL     1     -10.092   8.076  69.764  1.00  0.00    -0.189 OA 
BRANCH  13  14
HETATM   14  C   UNL     1     -11.267   7.488  70.172  1.00  0.00    -0.196 C  
HETATM   15  C   UNL     1     -11.634   7.934  71.574  1.00  0.00    -0.306 C  
HETATM   16  O   UNL     1     -11.896   6.684  69.492  1.00  0.00    -0.214 OA 
HETATM   17  C   UNL     1     -13.161   8.047  71.677  1.00  0.00    -0.329 C  
HETATM   18  C   UNL     1     -11.038   7.000  72.608  1.00  0.00    -0.317 A  
HETATM   19  C   UNL     1     -10.121   7.486  73.551  1.00  0.00    -0.378 A  
HETATM   20  O   UNL     1     -13.625   9.083  70.811  1.00  0.00    -0.503 OA 
HETATM   21  H   UNL     1     -14.571   9.153  70.875  1.00  0.00     0.000 HD 
HETATM   22  C   UNL     1      -9.540   6.627  74.486  1.00  0.00    -0.299 A  
HETATM   23  C   UNL     1      -9.871   5.273  74.490  1.00  0.00    -0.223 A  
HETATM   24  C   UNL     1     -10.784   4.777  73.564  1.00  0.00    -0.338 A  
HETATM   25  C   UNL     1     -11.367   5.634  72.629  1.00  0.00    -0.356 A  
ENDBRANCH  13  14
ENDBRANCH   7  13
TORSDOF 3
ENDMDL
MODEL       65
REMARK 921   NORMALIZED FREE ENERGY PREDICTED BY IDOCK:   -4.80 KCAL/MOL
REMARK 922        TOTAL FREE ENERGY PREDICTED BY IDOCK:   -6.72 KCAL/MOL
REMARK 923 INTER-LIGAND FREE ENERGY PREDICTED BY IDOCK:   -6.38 KCAL/MOL
REMARK 924 INTRA-LIGAND FREE ENERGY PREDICTED BY IDOCK:   -0.34 KCAL/MOL
REMARK 927      BINDING AFFINITY PREDICTED BY RF-SCORE:    0.00 PKD
ROOT
HETATM    1  C   UNL     1     -12.293  13.967  66.121  1.00  0.00    -0.465 C  
HETATM    2  C   UNL     1     -12.835  13.204  64.904  1.00  0.00    -0.349 C  
HETATM    3  C   UNL     1     -11.616  12.859  64.062  1.00  0.00    -0.486 C  
HETATM    4  C   UNL     1     -10.412  13.424  64.829  1.00  0.00    -0.403 C  
HETATM    5  C   UNL     1      -9.873  12.374  65.802  1.00  0.00    -0.253 C  
HETATM    6  N   UNL     1     -10.992  14.636  65.602  1.00  0.00    -0.322 N  
HETATM    7  C   UNL     1     -10.763  12.079  67.024  1.00  0.00    -0.242 C  
HETATM    8  C   UNL     1     -11.343  15.781  64.620  1.00  0.00    -0.337 C  
HETATM    9  C   UNL     1     -11.985  12.983  67.249  1.00  0.00    -0.379 C  
ENDROOT
BRANCH   6  10
HETATM   10  C   UNL     1     -10.042  15.206  66.724  1.00  0.00    -0.258 C  
HETATM   11  C   UNL     1     -10.777  16.174  67.654  1.00  0.00    -0.318 C  
HETATM   12  C   UNL     1      -8.786  15.858  66.137  1.00  0.00    -0.363 C  
ENDBRANCH   6  10
BRANCH   7  13
HETATM   13  O   UNL     1     -11.198  10.707  66.971  1.00  0.00    -0.266 OA 
BRANCH  13  14
HETATM   14  C   UNL     1     -10.303   9.861  66.357  1.00  0.00    -0.176 C  
HETATM   15  C   UNL     1      -9.590   8.999  67.381  1.00  0.00    -0.195 C  
HETATM   16  O   UNL     1     -10.098   9.849  65.149  1.00  0.00    -0.309 OA 
HETATM   17  C   UNL     1      -9.339   7.612  66.776  1.00  0.00    -0.172 C  
HETATM   18  C   UNL     1      -8.321   9.674  67.861  1.00  0.00    -0.117 A  
HETATM   19  C   UNL     1      -8.171  10.011  69.214  1.00  0.00    -0.147 A  
HETATM   20  O   UNL     1     -10.586   6.962  66.530  1.00  0.00    -0.497 OA 
HETATM   21  H   UNL     1     -10.431   6.102  66.155  1.00  0.00     0.000 HD 
HETATM   22  C   UNL     1      -7.019  10.664  69.660  1.00  0.00    -0.134 A  
HETATM   23  C   UNL     1      -6.006  10.986  68.760  1.00  0.00    -0.043 A  
HETATM   24  C   UNL     1      -6.139  10.654  67.414  1.00  0.00    -0.053 A  
HETATM   25  C   UNL     1      -7.288   9.999  66.967  1.00  0.00    -0.091 A  
ENDBRANCH  13  14
ENDBRANCH   7  13
TORSDOF 3
ENDMDL
MODEL       66
REMARK 921   NORMALIZED FREE ENERGY PREDICTED BY IDOCK:   -4.77 KCAL/MOL
REMARK 922        TOTAL FREE ENERGY PREDICTED BY IDOCK:   -6.68 KCAL/MOL
REMARK 923 INTER-LIGAND FREE ENERGY PREDICTED BY IDOCK:   -5.92 KCAL/MOL
REMARK 924 INTRA-LIGAND FREE ENERGY PREDICTED BY IDOCK:   -0.77 KCAL/MOL
REMARK 927      BINDING AFFINITY PREDICTED BY RF-SCORE:    0.00 PKD
ROOT
HETATM    1  C   UNL     1     -11.008   5.843  68.901  1.00  0.00    -0.267 C  
HETATM    2  C   UNL     1     -11.329   7.034  69.814  1.00  0.00    -0.226 C  
HETATM    3  C   UNL     1      -9.984   7.648  70.172  1.00  0.00    -0.186 C  
HETATM    4  C   UNL     1      -8.935   6.797  69.443  1.00  0.00    -0.137 C  
HETATM    5  C   UNL     1      -8.675   7.369  68.048  1.00  0.00    -0.124 C  
HETATM    6  N   UNL     1      -9.589   5.395  69.343  1.00  0.00    -0.138 N  
HETATM    7  C   UNL     1      -9.817   7.187  67.031  1.00  0.00    -0.198 C  
HETATM    8  C   UNL     1      -9.657   4.734  70.742  1.00  0.00    -0.179 C  
HETATM    9  C   UNL     1     -11.003   6.300  67.442  1.00  0.00    -0.447 C  
ENDROOT
BRANCH   6  10
HETATM   10  C   UNL     1      -8.862   4.407  68.353  1.00  0.00    -0.105 C  
HETATM   11  C   UNL     1      -9.516   3.024  68.346  1.00  0.00    -0.211 C  
HETATM   12  C   UNL     1      -7.361   4.301  68.644  1.00  0.00    -0.056 C  
ENDBRANCH   6  10
BRANCH   7  13
HETATM   13  O   UNL     1     -10.314   8.482  66.642  1.00  0.00    -0.298 OA 
BRANCH  13  14
HETATM   14  C   UNL     1      -9.449   9.196  65.845  1.00  0.00    -0.259 C  
HETATM   15  C   UNL     1      -9.303  10.619  66.350  1.00  0.00    -0.195 C  
HETATM   16  O   UNL     1      -8.910   8.736  64.845  1.00  0.00    -0.167 OA 
HETATM   17  C   UNL     1      -7.861  11.086  66.113  1.00  0.00    -0.117 C  
HETATM   18  C   UNL     1     -10.332  11.525  65.706  1.00  0.00    -0.295 A  
HETATM   19  C   UNL     1     -11.282  12.187  66.497  1.00  0.00    -0.378 A  
HETATM   20  O   UNL     1      -6.966  10.305  66.906  1.00  0.00    -0.086 OA 
HETATM   21  H   UNL     1      -6.073  10.594  66.759  1.00  0.00     0.000 HD 
HETATM   22  C   UNL     1     -12.256  12.997  65.909  1.00  0.00    -0.493 A  
HETATM   23  C   UNL     1     -12.291  13.156  64.526  1.00  0.00    -0.447 A  
HETATM   24  C   UNL     1     -11.351  12.510  63.728  1.00  0.00    -0.534 A  
HETATM   25  C   UNL     1     -10.376  11.700  64.312  1.00  0.00    -0.371 A  
ENDBRANCH  13  14
ENDBRANCH   7  13
TORSDOF 3
ENDMDL
MODEL       67
REMARK 921   NORMALIZED FREE ENERGY PREDICTED BY IDOCK:   -4.75 KCAL/MOL
REMARK 922        TOTAL FREE ENERGY PREDICTED BY IDOCK:   -6.66 KCAL/MOL
REMARK 923 INTER-LIGAND FREE ENERGY PREDICTED BY IDOCK:   -5.63 KCAL/MOL
REMARK 924 INTRA-LIGAND FREE ENERGY PREDICTED BY IDOCK:   -1.03 KCAL/MOL
REMARK 927      BINDING AFFINITY PREDICTED BY RF-SCORE:    0.00 PKD
ROOT
HETATM    1  C   UNL     1     -11.774   6.653  70.825  1.00  0.00    -0.388 C  
HETATM    2  C   UNL     1     -12.859   7.461  71.552  1.00  0.00    -0.416 C  
HETATM    3  C   UNL     1     -12.127   8.255  72.624  1.00  0.00    -0.326 C  
HETATM    4  C   UNL     1     -10.644   7.888  72.469  1.00  0.00    -0.315 C  
HETATM    5  C   UNL     1      -9.969   8.845  71.485  1.00  0.00    -0.391 C  
HETATM    6  N   UNL     1     -10.670   6.448  71.897  1.00  0.00    -0.218 N  
HETATM    7  C   UNL     1     -10.369   8.672  70.008  1.00  0.00    -0.207 C  
HETATM    8  C   UNL     1     -11.161   5.450  72.975  1.00  0.00    -0.311 C  
HETATM    9  C   UNL     1     -11.239   7.460  69.642  1.00  0.00    -0.065 C  
ENDROOT
BRANCH   6  10
HETATM   10  C   UNL     1      -9.284   5.945  71.339  1.00  0.00    -0.146 C  
HETATM   11  C   UNL     1      -9.416   4.608  70.606  1.00  0.00    -0.242 C  
HETATM   12  C   UNL     1      -8.218   5.864  72.436  1.00  0.00    -0.110 C  
ENDBRANCH   6  10
BRANCH   7  13
HETATM   13  O   UNL     1     -11.022   9.872  69.553  1.00  0.00    -0.231 OA 
BRANCH  13  14
HETATM   14  C   UNL     1     -10.768  10.182  68.237  1.00  0.00    -0.238 C  
HETATM   15  C   UNL     1      -9.328   9.867  67.879  1.00  0.00    -0.149 C  
HETATM   16  O   UNL     1     -11.596  10.681  67.484  1.00  0.00    -0.482 OA 
HETATM   17  C   UNL     1      -9.273   9.372  66.428  1.00  0.00    -0.169 C  
HETATM   18  C   UNL     1      -8.437  11.068  68.128  1.00  0.00    -0.135 A  
HETATM   19  C   UNL     1      -7.390  10.987  69.057  1.00  0.00    -0.123 A  
HETATM   20  O   UNL     1      -9.975   8.133  66.317  1.00  0.00    -0.433 OA 
HETATM   21  H   UNL     1      -9.941   7.826  65.418  1.00  0.00     0.000 HD 
HETATM   22  C   UNL     1      -6.585  12.098  69.318  1.00  0.00    -0.104 A  
HETATM   23  C   UNL     1      -6.818  13.301  68.656  1.00  0.00    -0.099 A  
HETATM   24  C   UNL     1      -7.852  13.395  67.728  1.00  0.00    -0.158 A  
HETATM   25  C   UNL     1      -8.656  12.286  67.463  1.00  0.00    -0.174 A  
ENDBRANCH  13  14
ENDBRANCH   7  13
TORSDOF 3
ENDMDL
MODEL       68
REMARK 921   NORMALIZED FREE ENERGY PREDICTED BY IDOCK:   -4.74 KCAL/MOL
REMARK 922        TOTAL FREE ENERGY PREDICTED BY IDOCK:   -6.65 KCAL/MOL
REMARK 923 INTER-LIGAND FREE ENERGY PREDICTED BY IDOCK:   -5.49 KCAL/MOL
REMARK 924 INTRA-LIGAND FREE ENERGY PREDICTED BY IDOCK:   -1.17 KCAL/MOL
REMARK 927      BINDING AFFINITY PREDICTED BY RF-SCORE:    0.00 PKD
ROOT
HETATM    1  C   UNL     1      -9.484  10.841  66.072  1.00  0.00    -0.194 C  
HETATM    2  C   UNL     1     -10.775  10.384  66.765  1.00  0.00    -0.235 C  
HETATM    3  C   UNL     1     -10.327   9.634  68.010  1.00  0.00    -0.262 C  
HETATM    4  C   UNL     1      -8.793   9.695  67.999  1.00  0.00    -0.119 C  
HETATM    5  C   UNL     1      -8.315  10.945  68.740  1.00  0.00    -0.151 C  
HETATM    6  N   UNL     1      -8.429   9.783  66.495  1.00  0.00    -0.123 N  
HETATM    7  C   UNL     1      -8.570  12.284  68.022  1.00  0.00    -0.176 C  
HETATM    8  C   UNL     1      -8.725   8.434  65.792  1.00  0.00    -0.169 C  
HETATM    9  C   UNL     1      -9.092  12.229  66.578  1.00  0.00    -0.188 C  
ENDROOT
BRANCH   6  10
HETATM   10  C   UNL     1      -6.931  10.182  66.210  1.00  0.00    -0.109 C  
HETATM   11  C   UNL     1      -6.625  10.210  64.711  1.00  0.00    -0.124 C  
HETATM   12  C   UNL     1      -5.943   9.278  66.954  1.00  0.00    -0.060 C  
ENDBRANCH   6  10
BRANCH   7  13
HETATM   13  O   UNL     1      -9.470  13.080  68.816  1.00  0.00    -0.053 OA 
BRANCH  13  14
HETATM   14  C   UNL     1      -9.510  14.407  68.452  1.00  0.00    -0.207 C  
HETATM   15  C   UNL     1     -10.944  14.874  68.281  1.00  0.00    -0.268 C  
HETATM   16  O   UNL     1      -8.511  15.089  68.260  1.00  0.00    -0.139 OA 
HETATM   17  C   UNL     1     -11.050  16.332  68.745  1.00  0.00    -0.355 C  
HETATM   18  C   UNL     1     -11.407  14.672  66.852  1.00  0.00    -0.361 A  
HETATM   19  C   UNL     1     -12.489  13.824  66.576  1.00  0.00    -0.356 A  
HETATM   20  O   UNL     1     -10.787  16.411  70.146  1.00  0.00    -0.331 OA 
HETATM   21  H   UNL     1     -10.853  17.315  70.434  1.00  0.00     0.000 HD 
HETATM   22  C   UNL     1     -12.902  13.604  65.260  1.00  0.00    -0.421 A  
HETATM   23  C   UNL     1     -12.239  14.230  64.207  1.00  0.00    -0.451 A  
HETATM   24  C   UNL     1     -11.166  15.078  64.465  1.00  0.00    -0.276 A  
HETATM   25  C   UNL     1     -10.752  15.301  65.780  1.00  0.00    -0.357 A  
ENDBRANCH  13  14
ENDBRANCH   7  13
TORSDOF 3
ENDMDL
MODEL       69
REMARK 921   NORMALIZED FREE ENERGY PREDICTED BY IDOCK:   -4.73 KCAL/MOL
REMARK 922        TOTAL FREE ENERGY PREDICTED BY IDOCK:   -6.64 KCAL/MOL
REMARK 923 INTER-LIGAND FREE ENERGY PREDICTED BY IDOCK:   -5.65 KCAL/MOL
REMARK 924 INTRA-LIGAND FREE ENERGY PREDICTED BY IDOCK:   -0.99 KCAL/MOL
REMARK 927      BINDING AFFINITY PREDICTED BY RF-SCORE:    0.00 PKD
ROOT
HETATM    1  C   UNL     1      -8.582   9.377  68.313  1.00  0.00    -0.120 C  
HETATM    2  C   UNL     1      -8.769   9.150  66.806  1.00  0.00    -0.138 C  
HETATM    3  C   UNL     1     -10.182   9.618  66.494  1.00  0.00    -0.294 C  
HETATM    4  C   UNL     1     -10.757  10.111  67.830  1.00  0.00    -0.277 C  
HETATM    5  C   UNL     1     -10.446  11.598  68.016  1.00  0.00    -0.217 C  
HETATM    6  N   UNL     1     -10.016   9.264  68.896  1.00  0.00    -0.176 N  
HETATM    7  C   UNL     1      -8.971  11.940  68.298  1.00  0.00    -0.178 C  
HETATM    8  C   UNL     1     -10.495   7.792  68.837  1.00  0.00    -0.194 C  
HETATM    9  C   UNL     1      -8.006  10.772  68.555  1.00  0.00    -0.130 C  
ENDROOT
BRANCH   6  10
HETATM   10  C   UNL     1     -10.180   9.789  70.373  1.00  0.00    -0.281 C  
HETATM   11  C   UNL     1      -9.394   8.936  71.371  1.00  0.00    -0.338 C  
HETATM   12  C   UNL     1     -11.651   9.898  70.785  1.00  0.00    -0.430 C  
ENDBRANCH   6  10
BRANCH   7  13
HETATM   13  O   UNL     1      -8.458  12.744  67.219  1.00  0.00    -0.179 OA 
BRANCH  13  14
HETATM   14  C   UNL     1      -7.481  13.633  67.602  1.00  0.00    -0.183 C  
HETATM   15  C   UNL     1      -8.017  14.611  68.631  1.00  0.00    -0.141 C  
HETATM   16  O   UNL     1      -6.349  13.642  67.133  1.00  0.00    -0.216 OA 
HETATM   17  C   UNL     1      -6.900  14.945  69.628  1.00  0.00    -0.181 C  
HETATM   18  C   UNL     1      -8.594  15.839  67.954  1.00  0.00    -0.160 A  
HETATM   19  C   UNL     1      -9.950  16.158  68.113  1.00  0.00    -0.230 A  
HETATM   20  O   UNL     1      -6.546  13.773  70.363  1.00  0.00    -0.393 OA 
HETATM   21  H   UNL     1      -5.854  13.980  70.981  1.00  0.00     0.000 HD 
HETATM   22  C   UNL     1     -10.499  17.268  67.467  1.00  0.00    -0.356 A  
HETATM   23  C   UNL     1      -9.699  18.070  66.657  1.00  0.00    -0.332 A  
HETATM   24  C   UNL     1      -8.350  17.769  66.493  1.00  0.00    -0.294 A  
HETATM   25  C   UNL     1      -7.798  16.662  67.139  1.00  0.00    -0.211 A  
ENDBRANCH  13  14
ENDBRANCH   7  13
TORSDOF 3
ENDMDL
MODEL       70
REMARK 921   NORMALIZED FREE ENERGY PREDICTED BY IDOCK:   -4.71 KCAL/MOL
REMARK 922        TOTAL FREE ENERGY PREDICTED BY IDOCK:   -6.62 KCAL/MOL
REMARK 923 INTER-LIGAND FREE ENERGY PREDICTED BY IDOCK:   -5.50 KCAL/MOL
REMARK 924 INTRA-LIGAND FREE ENERGY PREDICTED BY IDOCK:   -1.12 KCAL/MOL
REMARK 927      BINDING AFFINITY PREDICTED BY RF-SCORE:    0.00 PKD
ROOT
HETATM    1  C   UNL     1     -10.795   6.019  71.362  1.00  0.00    -0.270 C  
HETATM    2  C   UNL     1     -12.207   6.609  71.475  1.00  0.00    -0.391 C  
HETATM    3  C   UNL     1     -12.088   7.771  72.449  1.00  0.00    -0.297 C  
HETATM    4  C   UNL     1     -10.607   7.818  72.855  1.00  0.00    -0.366 C  
HETATM    5  C   UNL     1      -9.830   8.718  71.891  1.00  0.00    -0.395 C  
HETATM    6  N   UNL     1     -10.134   6.348  72.727  1.00  0.00    -0.177 N  
HETATM    7  C   UNL     1      -9.628   8.156  70.472  1.00  0.00    -0.170 C  
HETATM    8  C   UNL     1     -10.769   5.481  73.843  1.00  0.00    -0.221 C  
HETATM    9  C   UNL     1     -10.043   6.698  70.217  1.00  0.00    -0.201 C  
ENDROOT
BRANCH   6  10
HETATM   10  C   UNL     1      -8.569   6.163  72.773  1.00  0.00    -0.123 C  
HETATM   11  C   UNL     1      -8.159   4.714  72.498  1.00  0.00    -0.103 C  
HETATM   12  C   UNL     1      -7.969   6.660  74.092  1.00  0.00    -0.116 C  
ENDBRANCH   6  10
BRANCH   7  13
HETATM   13  O   UNL     1     -10.301   9.007  69.526  1.00  0.00    -0.198 OA 
BRANCH  13  14
HETATM   14  C   UNL     1      -9.564   9.282  68.397  1.00  0.00    -0.147 C  
HETATM   15  C   UNL     1     -10.309   8.846  67.149  1.00  0.00    -0.351 C  
HETATM   16  O   UNL     1      -8.442   9.776  68.422  1.00  0.00    -0.112 OA 
HETATM   17  C   UNL     1     -10.008   9.838  66.019  1.00  0.00    -0.272 C  
HETATM   18  C   UNL     1      -9.962   7.415  66.789  1.00  0.00    -0.300 A  
HETATM   19  C   UNL     1     -10.962   6.433  66.766  1.00  0.00    -0.321 A  
HETATM   20  O   UNL     1     -10.538  11.122  66.352  1.00  0.00    -0.252 OA 
HETATM   21  H   UNL     1     -10.352  11.736  65.652  1.00  0.00     0.000 HD 
HETATM   22  C   UNL     1     -10.647   5.105  66.468  1.00  0.00    -0.320 A  
HETATM   23  C   UNL     1      -9.330   4.745  66.191  1.00  0.00    -0.152 A  
HETATM   24  C   UNL     1      -8.327   5.710  66.205  1.00  0.00    -0.114 A  
HETATM   25  C   UNL     1      -8.639   7.038  66.501  1.00  0.00    -0.130 A  
ENDBRANCH  13  14
ENDBRANCH   7  13
TORSDOF 3
ENDMDL
MODEL       71
REMARK 921   NORMALIZED FREE ENERGY PREDICTED BY IDOCK:   -4.70 KCAL/MOL
REMARK 922        TOTAL FREE ENERGY PREDICTED BY IDOCK:   -6.60 KCAL/MOL
REMARK 923 INTER-LIGAND FREE ENERGY PREDICTED BY IDOCK:   -5.40 KCAL/MOL
REMARK 924 INTRA-LIGAND FREE ENERGY PREDICTED BY IDOCK:   -1.20 KCAL/MOL
REMARK 927      BINDING AFFINITY PREDICTED BY RF-SCORE:    0.00 PKD
ROOT
HETATM    1  C   UNL     1      -9.275  12.297  66.998  1.00  0.00    -0.205 C  
HETATM    2  C   UNL     1      -8.808  13.283  68.079  1.00  0.00    -0.190 C  
HETATM    3  C   UNL     1     -10.063  14.011  68.537  1.00  0.00    -0.236 C  
HETATM    4  C   UNL     1     -11.212  13.410  67.714  1.00  0.00    -0.279 C  
HETATM    5  C   UNL     1     -11.803  12.204  68.445  1.00  0.00    -0.360 C  
HETATM    6  N   UNL     1     -10.537  12.967  66.391  1.00  0.00    -0.269 N  
HETATM    7  C   UNL     1     -10.913  10.948  68.486  1.00  0.00    -0.230 C  
HETATM    8  C   UNL     1     -10.126  14.205  65.557  1.00  0.00    -0.336 C  
HETATM    9  C   UNL     1      -9.628  10.957  67.644  1.00  0.00    -0.177 C  
ENDROOT
BRANCH   6  10
HETATM   10  C   UNL     1     -11.425  12.025  65.492  1.00  0.00    -0.313 C  
HETATM   11  C   UNL     1     -10.632  11.445  64.318  1.00  0.00    -0.416 C  
HETATM   12  C   UNL     1     -12.695  12.727  65.002  1.00  0.00    -0.455 C  
ENDBRANCH   6  10
BRANCH   7  13
HETATM   13  O   UNL     1     -10.574  10.654  69.855  1.00  0.00    -0.238 OA 
BRANCH  13  14
HETATM   14  C   UNL     1     -10.293   9.328  70.089  1.00  0.00    -0.222 C  
HETATM   15  C   UNL     1      -9.081   9.186  70.990  1.00  0.00    -0.305 C  
HETATM   16  O   UNL     1     -10.925   8.402  69.594  1.00  0.00    -0.200 OA 
HETATM   17  C   UNL     1      -9.280   7.970  71.904  1.00  0.00    -0.167 C  
HETATM   18  C   UNL     1      -7.808   9.107  70.170  1.00  0.00    -0.114 A  
HETATM   19  C   UNL     1      -6.813  10.083  70.319  1.00  0.00    -0.147 A  
HETATM   20  O   UNL     1     -10.383   8.205  72.781  1.00  0.00    -0.313 OA 
HETATM   21  H   UNL     1     -10.507   7.451  73.347  1.00  0.00     0.000 HD 
HETATM   22  C   UNL     1      -5.652  10.038  69.544  1.00  0.00    -0.037 A  
HETATM   23  C   UNL     1      -5.474   9.018  68.612  1.00  0.00    -0.041 A  
HETATM   24  C   UNL     1      -6.451   8.039  68.457  1.00  0.00    -0.054 A  
HETATM   25  C   UNL     1      -7.611   8.080  69.231  1.00  0.00    -0.096 A  
ENDBRANCH  13  14
ENDBRANCH   7  13
TORSDOF 3
ENDMDL
MODEL       72
REMARK 921   NORMALIZED FREE ENERGY PREDICTED BY IDOCK:   -4.69 KCAL/MOL
REMARK 922        TOTAL FREE ENERGY PREDICTED BY IDOCK:   -6.59 KCAL/MOL
REMARK 923 INTER-LIGAND FREE ENERGY PREDICTED BY IDOCK:   -5.74 KCAL/MOL
REMARK 924 INTRA-LIGAND FREE ENERGY PREDICTED BY IDOCK:   -0.85 KCAL/MOL
REMARK 927      BINDING AFFINITY PREDICTED BY RF-SCORE:    0.00 PKD
ROOT
HETATM    1  C   UNL     1     -12.245  13.023  65.761  1.00  0.00    -0.453 C  
HETATM    2  C   UNL     1     -12.547  12.342  64.418  1.00  0.00    -0.489 C  
HETATM    3  C   UNL     1     -11.244  12.386  63.635  1.00  0.00    -0.544 C  
HETATM    4  C   UNL     1     -10.231  13.079  64.559  1.00  0.00    -0.308 C  
HETATM    5  C   UNL     1      -9.522  12.039  65.429  1.00  0.00    -0.080 C  
HETATM    6  N   UNL     1     -11.100  14.018  65.434  1.00  0.00    -0.309 N  
HETATM    7  C   UNL     1     -10.382  11.393  66.530  1.00  0.00    -0.236 C  
HETATM    8  C   UNL     1     -11.647  15.190  64.582  1.00  0.00    -0.357 C  
HETATM    9  C   UNL     1     -11.782  11.976  66.775  1.00  0.00    -0.339 C  
ENDROOT
BRANCH   6  10
HETATM   10  C   UNL     1     -10.353  14.612  66.689  1.00  0.00    -0.273 C  
HETATM   11  C   UNL     1     -11.298  15.413  67.587  1.00  0.00    -0.292 C  
HETATM   12  C   UNL     1      -9.135  15.451  66.290  1.00  0.00    -0.355 C  
ENDBRANCH   6  10
BRANCH   7  13
HETATM   13  O   UNL     1     -10.502   9.982  66.269  1.00  0.00    -0.189 OA 
BRANCH  13  14
HETATM   14  C   UNL     1      -9.944   9.184  67.242  1.00  0.00    -0.211 C  
HETATM   15  C   UNL     1      -8.511   8.832  66.892  1.00  0.00    -0.112 C  
HETATM   16  O   UNL     1     -10.553   8.792  68.230  1.00  0.00    -0.210 OA 
HETATM   17  C   UNL     1      -7.685   8.764  68.183  1.00  0.00    -0.101 C  
HETATM   18  C   UNL     1      -8.455   7.549  66.086  1.00  0.00    -0.147 A  
HETATM   19  C   UNL     1      -7.932   7.557  64.785  1.00  0.00    -0.132 A  
HETATM   20  O   UNL     1      -7.625  10.059  68.783  1.00  0.00    -0.077 OA 
HETATM   21  H   UNL     1      -7.114  10.017  69.583  1.00  0.00     0.000 HD 
HETATM   22  C   UNL     1      -7.908   6.387  64.022  1.00  0.00    -0.111 A  
HETATM   23  C   UNL     1      -8.405   5.198  64.551  1.00  0.00    -0.137 A  
HETATM   24  C   UNL     1      -8.922   5.174  65.843  1.00  0.00    -0.145 A  
HETATM   25  C   UNL     1      -8.946   6.341  66.608  1.00  0.00    -0.139 A  
ENDBRANCH  13  14
ENDBRANCH   7  13
TORSDOF 3
ENDMDL
MODEL       73
REMARK 921   NORMALIZED FREE ENERGY PREDICTED BY IDOCK:   -4.64 KCAL/MOL
REMARK 922        TOTAL FREE ENERGY PREDICTED BY IDOCK:   -6.53 KCAL/MOL
REMARK 923 INTER-LIGAND FREE ENERGY PREDICTED BY IDOCK:   -5.48 KCAL/MOL
REMARK 924 INTRA-LIGAND FREE ENERGY PREDICTED BY IDOCK:   -1.05 KCAL/MOL
REMARK 927      BINDING AFFINITY PREDICTED BY RF-SCORE:    0.00 PKD
ROOT
HETATM    1  C   UNL     1      -7.425  10.656  68.267  1.00  0.00    -0.091 C  
HETATM    2  C   UNL     1      -7.459  12.191  68.256  1.00  0.00    -0.107 C  
HETATM    3  C   UNL     1      -8.370  12.571  67.099  1.00  0.00    -0.179 C  
HETATM    4  C   UNL     1      -8.840  11.242  66.491  1.00  0.00    -0.179 C  
HETATM    5  C   UNL     1     -10.126  10.778  67.179  1.00  0.00    -0.243 C  
HETATM    6  N   UNL     1      -7.680  10.259  66.789  1.00  0.00    -0.108 N  
HETATM    7  C   UNL     1      -9.965  10.285  68.629  1.00  0.00    -0.173 C  
HETATM    8  C   UNL     1      -6.442  10.613  65.927  1.00  0.00    -0.121 C  
HETATM    9  C   UNL     1      -8.536  10.124  69.172  1.00  0.00    -0.167 C  
ENDROOT
BRANCH   6  10
HETATM   10  C   UNL     1      -8.037   8.741  66.557  1.00  0.00    -0.103 C  
HETATM   11  C   UNL     1      -6.871   7.819  66.922  1.00  0.00    -0.072 C  
HETATM   12  C   UNL     1      -8.519   8.475  65.128  1.00  0.00    -0.193 C  
ENDBRANCH   6  10
BRANCH   7  13
HETATM   13  O   UNL     1     -10.705  11.152  69.508  1.00  0.00    -0.222 OA 
BRANCH  13  14
HETATM   14  C   UNL     1     -11.899  10.622  69.941  1.00  0.00    -0.315 C  
HETATM   15  C   UNL     1     -11.801  10.192  71.393  1.00  0.00    -0.414 C  
HETATM   16  O   UNL     1     -12.883  10.489  69.224  1.00  0.00    -0.030 OA 
HETATM   17  C   UNL     1     -13.148  10.448  72.080  1.00  0.00    -0.416 C  
HETATM   18  C   UNL     1     -11.349   8.748  71.495  1.00  0.00    -0.375 A  
HETATM   19  C   UNL     1     -10.149   8.431  72.148  1.00  0.00    -0.376 A  
HETATM   20  O   UNL     1     -13.411  11.851  72.114  1.00  0.00    -0.537 OA 
HETATM   21  H   UNL     1     -14.246  12.010  72.539  1.00  0.00     0.000 HD 
HETATM   22  C   UNL     1      -9.707   7.108  72.218  1.00  0.00    -0.173 A  
HETATM   23  C   UNL     1     -10.459   6.089  71.637  1.00  0.00    -0.276 A  
HETATM   24  C   UNL     1     -11.654   6.388  70.990  1.00  0.00    -0.386 A  
HETATM   25  C   UNL     1     -12.099   7.709  70.920  1.00  0.00    -0.226 A  
ENDBRANCH  13  14
ENDBRANCH   7  13
TORSDOF 3
ENDMDL
MODEL       74
REMARK 921   NORMALIZED FREE ENERGY PREDICTED BY IDOCK:   -4.64 KCAL/MOL
REMARK 922        TOTAL FREE ENERGY PREDICTED BY IDOCK:   -6.53 KCAL/MOL
REMARK 923 INTER-LIGAND FREE ENERGY PREDICTED BY IDOCK:   -5.76 KCAL/MOL
REMARK 924 INTRA-LIGAND FREE ENERGY PREDICTED BY IDOCK:   -0.77 KCAL/MOL
REMARK 927      BINDING AFFINITY PREDICTED BY RF-SCORE:    0.00 PKD
ROOT
HETATM    1  C   UNL     1     -10.419  13.141  64.330  1.00  0.00    -0.407 C  
HETATM    2  C   UNL     1     -11.832  13.508  63.854  1.00  0.00    -0.460 C  
HETATM    3  C   UNL     1     -12.781  12.837  64.835  1.00  0.00    -0.479 C  
HETATM    4  C   UNL     1     -11.882  12.118  65.852  1.00  0.00    -0.272 C  
HETATM    5  C   UNL     1     -11.553  13.057  67.014  1.00  0.00    -0.413 C  
HETATM    6  N   UNL     1     -10.601  11.777  65.049  1.00  0.00    -0.277 N  
HETATM    7  C   UNL     1     -10.591  14.213  66.685  1.00  0.00    -0.278 C  
HETATM    8  C   UNL     1     -10.899  10.670  64.008  1.00  0.00     0.440 C  
HETATM    9  C   UNL     1      -9.914  14.205  65.305  1.00  0.00    -0.295 C  
ENDROOT
BRANCH   6  10
HETATM   10  C   UNL     1      -9.379  11.322  65.935  1.00  0.00    -0.219 C  
HETATM   11  C   UNL     1      -8.212  10.821  65.081  1.00  0.00    -0.034 C  
HETATM   12  C   UNL     1      -9.784  10.275  66.977  1.00  0.00    -0.217 C  
ENDBRANCH   6  10
BRANCH   7  13
HETATM   13  O   UNL     1     -11.280  15.465  66.861  1.00  0.00    -0.307 OA 
BRANCH  13  14
HETATM   14  C   UNL     1     -10.985  16.102  68.045  1.00  0.00    -0.338 C  
HETATM   15  C   UNL     1      -9.752  16.973  67.894  1.00  0.00    -0.263 C  
HETATM   16  O   UNL     1     -11.623  15.944  69.079  1.00  0.00    -0.370 OA 
HETATM   17  C   UNL     1      -9.923  18.231  68.755  1.00  0.00    -0.370 C  
HETATM   18  C   UNL     1      -8.498  16.191  68.232  1.00  0.00    -0.180 A  
HETATM   19  C   UNL     1      -7.506  15.997  67.260  1.00  0.00    -0.236 A  
HETATM   20  O   UNL     1     -11.007  19.013  68.252  1.00  0.00    -0.264 OA 
HETATM   21  H   UNL     1     -11.113  19.793  68.786  1.00  0.00     0.000 HD 
HETATM   22  C   UNL     1      -6.363  15.250  67.552  1.00  0.00    -0.129 A  
HETATM   23  C   UNL     1      -6.200  14.687  68.816  1.00  0.00    -0.087 A  
HETATM   24  C   UNL     1      -7.174  14.875  69.792  1.00  0.00    -0.128 A  
HETATM   25  C   UNL     1      -8.316  15.623  69.504  1.00  0.00    -0.176 A  
ENDBRANCH  13  14
ENDBRANCH   7  13
TORSDOF 3
ENDMDL
MODEL       75
REMARK 921   NORMALIZED FREE ENERGY PREDICTED BY IDOCK:   -4.62 KCAL/MOL
REMARK 922        TOTAL FREE ENERGY PREDICTED BY IDOCK:   -6.50 KCAL/MOL
REMARK 923 INTER-LIGAND FREE ENERGY PREDICTED BY IDOCK:   -5.63 KCAL/MOL
REMARK 924 INTRA-LIGAND FREE ENERGY PREDICTED BY IDOCK:   -0.88 KCAL/MOL
REMARK 927      BINDING AFFINITY PREDICTED BY RF-SCORE:    0.00 PKD
ROOT
HETATM    1  C   UNL     1      -7.966   9.145  69.747  1.00  0.00    -0.098 C  
HETATM    2  C   UNL     1      -7.300   8.886  68.388  1.00  0.00    -0.082 C  
HETATM    3  C   UNL     1      -8.166   7.841  67.701  1.00  0.00    -0.125 C  
HETATM    4  C   UNL     1      -9.308   7.542  68.683  1.00  0.00    -0.143 C  
HETATM    5  C   UNL     1     -10.480   8.491  68.425  1.00  0.00    -0.215 C  
HETATM    6  N   UNL     1      -8.688   7.811  70.078  1.00  0.00    -0.140 N  
HETATM    7  C   UNL     1     -10.250   9.959  68.831  1.00  0.00    -0.196 C  
HETATM    8  C   UNL     1      -7.645   6.719  70.421  1.00  0.00    -0.095 C  
HETATM    9  C   UNL     1      -8.971  10.289  69.617  1.00  0.00    -0.140 C  
ENDROOT
BRANCH   6  10
HETATM   10  C   UNL     1      -9.736   7.893  71.252  1.00  0.00    -0.157 C  
HETATM   11  C   UNL     1      -9.084   8.312  72.571  1.00  0.00    -0.323 C  
HETATM   12  C   UNL     1     -10.517   6.586  71.418  1.00  0.00    -0.246 C  
ENDBRANCH   6  10
BRANCH   7  13
HETATM   13  O   UNL     1     -10.305  10.788  67.655  1.00  0.00    -0.184 OA 
BRANCH  13  14
HETATM   14  C   UNL     1     -11.345  11.689  67.654  1.00  0.00    -0.295 C  
HETATM   15  C   UNL     1     -10.984  12.926  66.854  1.00  0.00    -0.294 C  
HETATM   16  O   UNL     1     -12.397  11.512  68.257  1.00  0.00    -0.468 OA 
HETATM   17  C   UNL     1     -12.240  13.441  66.139  1.00  0.00    -0.415 C  
HETATM   18  C   UNL     1     -10.339  13.971  67.744  1.00  0.00    -0.236 A  
HETATM   19  C   UNL     1      -9.027  14.397  67.493  1.00  0.00    -0.192 A  
HETATM   20  O   UNL     1     -12.673  12.477  65.178  1.00  0.00    -0.659 OA 
HETATM   21  H   UNL     1     -13.451  12.796  64.735  1.00  0.00     0.000 HD 
HETATM   22  C   UNL     1      -8.413  15.334  68.326  1.00  0.00    -0.154 A  
HETATM   23  C   UNL     1      -9.102  15.855  69.419  1.00  0.00    -0.222 A  
HETATM   24  C   UNL     1     -10.407  15.446  69.678  1.00  0.00    -0.283 A  
HETATM   25  C   UNL     1     -11.024  14.511  68.845  1.00  0.00    -0.268 A  
ENDBRANCH  13  14
ENDBRANCH   7  13
TORSDOF 3
ENDMDL
MODEL       76
REMARK 921   NORMALIZED FREE ENERGY PREDICTED BY IDOCK:   -4.60 KCAL/MOL
REMARK 922        TOTAL FREE ENERGY PREDICTED BY IDOCK:   -6.48 KCAL/MOL
REMARK 923 INTER-LIGAND FREE ENERGY PREDICTED BY IDOCK:   -5.75 KCAL/MOL
REMARK 924 INTRA-LIGAND FREE ENERGY PREDICTED BY IDOCK:   -0.73 KCAL/MOL
REMARK 927      BINDING AFFINITY PREDICTED BY RF-SCORE:    0.00 PKD
ROOT
HETATM    1  C   UNL     1      -9.064  11.692  65.883  1.00  0.00    -0.149 C  
HETATM    2  C   UNL     1      -8.252  12.133  67.109  1.00  0.00    -0.182 C  
HETATM    3  C   UNL     1      -9.272  12.655  68.109  1.00  0.00    -0.209 C  
HETATM    4  C   UNL     1     -10.639  12.484  67.431  1.00  0.00    -0.223 C  
HETATM    5  C   UNL     1     -11.217  11.106  67.759  1.00  0.00    -0.359 C  
HETATM    6  N   UNL     1     -10.326  12.595  65.917  1.00  0.00    -0.271 N  
HETATM    7  C   UNL     1     -10.514   9.912  67.088  1.00  0.00    -0.242 C  
HETATM    8  C   UNL     1      -9.941  14.051  65.554  1.00  0.00    -0.276 C  
HETATM    9  C   UNL     1      -9.448  10.218  66.024  1.00  0.00    -0.234 C  
ENDROOT
BRANCH   6  10
HETATM   10  C   UNL     1     -11.502  12.135  64.974  1.00  0.00    -0.323 C  
HETATM   11  C   UNL     1     -11.071  12.089  63.506  1.00  0.00    -0.519 C  
HETATM   12  C   UNL     1     -12.754  13.001  65.150  1.00  0.00    -0.461 C  
ENDBRANCH   6  10
BRANCH   7  13
HETATM   13  O   UNL     1      -9.934   9.073  68.105  1.00  0.00    -0.161 OA 
BRANCH  13  14
HETATM   14  C   UNL     1     -10.405   7.781  68.099  1.00  0.00    -0.200 C  
HETATM   15  C   UNL     1      -9.939   7.033  69.334  1.00  0.00    -0.165 C  
HETATM   16  O   UNL     1     -11.077   7.307  67.190  1.00  0.00    -0.295 OA 
HETATM   17  C   UNL     1     -11.043   6.064  69.776  1.00  0.00    -0.406 C  
HETATM   18  C   UNL     1      -8.614   6.342  69.075  1.00  0.00    -0.124 A  
HETATM   19  C   UNL     1      -7.482   6.685  69.828  1.00  0.00    -0.092 A  
HETATM   20  O   UNL     1     -12.193   6.804  70.188  1.00  0.00    -0.634 OA 
HETATM   21  H   UNL     1     -12.878   6.203  70.462  1.00  0.00     0.000 HD 
HETATM   22  C   UNL     1      -6.251   6.078  69.574  1.00  0.00    -0.030 A  
HETATM   23  C   UNL     1      -6.136   5.124  68.566  1.00  0.00    -0.030 A  
HETATM   24  C   UNL     1      -7.252   4.770  67.813  1.00  0.00    -0.066 A  
HETATM   25  C   UNL     1      -8.485   5.373  68.066  1.00  0.00    -0.097 A  
ENDBRANCH  13  14
ENDBRANCH   7  13
TORSDOF 3
ENDMDL
MODEL       77
REMARK 921   NORMALIZED FREE ENERGY PREDICTED BY IDOCK:   -4.52 KCAL/MOL
REMARK 922        TOTAL FREE ENERGY PREDICTED BY IDOCK:   -6.39 KCAL/MOL
REMARK 923 INTER-LIGAND FREE ENERGY PREDICTED BY IDOCK:   -5.90 KCAL/MOL
REMARK 924 INTRA-LIGAND FREE ENERGY PREDICTED BY IDOCK:   -0.49 KCAL/MOL
REMARK 927      BINDING AFFINITY PREDICTED BY RF-SCORE:    0.00 PKD
ROOT
HETATM    1  C   UNL     1      -8.748  10.731  67.254  1.00  0.00    -0.130 C  
HETATM    2  C   UNL     1      -8.991  10.681  65.739  1.00  0.00    -0.200 C  
HETATM    3  C   UNL     1     -10.477  10.945  65.555  1.00  0.00    -0.286 C  
HETATM    4  C   UNL     1     -11.038  11.151  66.969  1.00  0.00    -0.273 C  
HETATM    5  C   UNL     1     -10.957  12.629  67.354  1.00  0.00    -0.289 C  
HETATM    6  N   UNL     1     -10.106  10.303  67.872  1.00  0.00    -0.164 N  
HETATM    7  C   UNL     1      -9.541  13.171  67.623  1.00  0.00    -0.210 C  
HETATM    8  C   UNL     1     -10.346   8.793  67.622  1.00  0.00    -0.254 C  
HETATM    9  C   UNL     1      -8.387  12.157  67.671  1.00  0.00    -0.163 C  
ENDROOT
BRANCH   6  10
HETATM   10  C   UNL     1     -10.257  10.589  69.415  1.00  0.00    -0.221 C  
HETATM   11  C   UNL     1      -9.429   9.618  70.258  1.00  0.00    -0.300 C  
HETATM   12  C   UNL     1     -11.724  10.587  69.859  1.00  0.00    -0.372 C  
ENDBRANCH   6  10
BRANCH   7  13
HETATM   13  O   UNL     1      -9.231  14.187  66.651  1.00  0.00    -0.265 OA 
BRANCH  13  14
HETATM   14  C   UNL     1     -10.207  15.149  66.518  1.00  0.00    -0.276 C  
HETATM   15  C   UNL     1     -10.060  16.215  67.588  1.00  0.00    -0.248 C  
HETATM   16  O   UNL     1     -11.088  15.109  65.668  1.00  0.00    -0.336 OA 
HETATM   17  C   UNL     1     -10.456  17.573  66.994  1.00  0.00    -0.293 C  
HETATM   18  C   UNL     1     -10.863  15.851  68.821  1.00  0.00    -0.284 A  
HETATM   19  C   UNL     1     -10.217  15.657  70.050  1.00  0.00    -0.277 A  
HETATM   20  O   UNL     1      -9.534  17.934  65.965  1.00  0.00    -0.504 OA 
HETATM   21  H   UNL     1      -9.778  18.776  65.598  1.00  0.00     0.000 HD 
HETATM   22  C   UNL     1     -10.943  15.288  71.184  1.00  0.00    -0.249 A  
HETATM   23  C   UNL     1     -12.323  15.111  71.103  1.00  0.00    -0.404 A  
HETATM   24  C   UNL     1     -12.979  15.305  69.891  1.00  0.00     0.079 A  
HETATM   25  C   UNL     1     -12.256  15.675  68.756  1.00  0.00     0.023 A  
ENDBRANCH  13  14
ENDBRANCH   7  13
TORSDOF 3
ENDMDL
MODEL       78
REMARK 921   NORMALIZED FREE ENERGY PREDICTED BY IDOCK:   -4.51 KCAL/MOL
REMARK 922        TOTAL FREE ENERGY PREDICTED BY IDOCK:   -6.38 KCAL/MOL
REMARK 923 INTER-LIGAND FREE ENERGY PREDICTED BY IDOCK:   -6.01 KCAL/MOL
REMARK 924 INTRA-LIGAND FREE ENERGY PREDICTED BY IDOCK:   -0.37 KCAL/MOL
REMARK 927      BINDING AFFINITY PREDICTED BY RF-SCORE:    0.00 PKD
ROOT
HETATM    1  C   UNL     1      -9.457  16.668  68.931  1.00  0.00    -0.251 C  
HETATM    2  C   UNL     1     -10.584  17.467  68.261  1.00  0.00    -0.354 C  
HETATM    3  C   UNL     1     -10.314  17.381  66.767  1.00  0.00    -0.305 C  
HETATM    4  C   UNL     1      -9.048  16.524  66.626  1.00  0.00    -0.255 C  
HETATM    5  C   UNL     1      -9.427  15.046  66.509  1.00  0.00    -0.306 C  
HETATM    6  N   UNL     1      -8.268  16.783  67.940  1.00  0.00    -0.184 N  
HETATM    7  C   UNL     1      -9.964  14.393  67.796  1.00  0.00    -0.226 C  
HETATM    8  C   UNL     1      -7.707  18.226  67.955  1.00  0.00    -0.260 C  
HETATM    9  C   UNL     1      -9.888  15.211  69.095  1.00  0.00    -0.237 C  
ENDROOT
BRANCH   6  10
HETATM   10  C   UNL     1      -7.082  15.778  68.201  1.00  0.00    -0.116 C  
HETATM   11  C   UNL     1      -6.611  15.819  69.656  1.00  0.00    -0.182 C  
HETATM   12  C   UNL     1      -5.911  16.007  67.240  1.00  0.00    -0.106 C  
ENDBRANCH   6  10
BRANCH   7  13
HETATM   13  O   UNL     1     -11.327  13.979  67.582  1.00  0.00    -0.284 OA 
BRANCH  13  14
HETATM   14  C   UNL     1     -11.462  12.649  67.257  1.00  0.00    -0.342 C  
HETATM   15  C   UNL     1     -10.610  11.784  68.166  1.00  0.00    -0.230 C  
HETATM   16  O   UNL     1     -12.151  12.243  66.329  1.00  0.00    -0.626 OA 
HETATM   17  C   UNL     1     -11.345  10.463  68.429  1.00  0.00    -0.227 C  
HETATM   18  C   UNL     1      -9.227  11.585  67.577  1.00  0.00    -0.166 A  
HETATM   19  C   UNL     1      -8.095  12.038  68.270  1.00  0.00    -0.155 A  
HETATM   20  O   UNL     1     -12.546  10.719  69.158  1.00  0.00    -0.704 OA 
HETATM   21  H   UNL     1     -13.001   9.900  69.321  1.00  0.00     0.000 HD 
HETATM   22  C   UNL     1      -6.820  11.890  67.720  1.00  0.00    -0.094 A  
HETATM   23  C   UNL     1      -6.662  11.287  66.474  1.00  0.00    -0.105 A  
HETATM   24  C   UNL     1      -7.776  10.828  65.777  1.00  0.00    -0.094 A  
HETATM   25  C   UNL     1      -9.052  10.973  66.325  1.00  0.00    -0.196 A  
ENDBRANCH  13  14
ENDBRANCH   7  13
TORSDOF 3
ENDMDL
MODEL       79
REMARK 921   NORMALIZED FREE ENERGY PREDICTED BY IDOCK:   -4.50 KCAL/MOL
REMARK 922        TOTAL FREE ENERGY PREDICTED BY IDOCK:   -6.37 KCAL/MOL
REMARK 923 INTER-LIGAND FREE ENERGY PREDICTED BY IDOCK:   -5.37 KCAL/MOL
REMARK 924 INTRA-LIGAND FREE ENERGY PREDICTED BY IDOCK:   -1.00 KCAL/MOL
REMARK 927      BINDING AFFINITY PREDICTED BY RF-SCORE:    0.00 PKD
ROOT
HETATM    1  C   UNL     1     -11.756  14.989  67.228  1.00  0.00    -0.223 C  
HETATM    2  C   UNL     1     -12.259  14.082  66.096  1.00  0.00    -0.494 C  
HETATM    3  C   UNL     1     -11.060  13.241  65.683  1.00  0.00    -0.299 C  
HETATM    4  C   UNL     1      -9.911  13.683  66.601  1.00  0.00    -0.284 C  
HETATM    5  C   UNL     1      -9.902  12.834  67.873  1.00  0.00    -0.223 C  
HETATM    6  N   UNL     1     -10.241  15.160  66.935  1.00  0.00    -0.256 N  
HETATM    7  C   UNL     1     -11.055  13.100  68.860  1.00  0.00    -0.266 C  
HETATM    8  C   UNL     1     -10.045  16.050  65.683  1.00  0.00    -0.354 C  
HETATM    9  C   UNL     1     -11.974  14.298  68.575  1.00  0.00    -0.352 C  
ENDROOT
BRANCH   6  10
HETATM   10  C   UNL     1      -9.396  15.763  68.121  1.00  0.00    -0.194 C  
HETATM   11  C   UNL     1      -9.890  17.155  68.522  1.00  0.00    -0.297 C  
HETATM   12  C   UNL     1      -7.897  15.784  67.806  1.00  0.00    -0.155 C  
ENDBRANCH   6  10
BRANCH   7  13
HETATM   13  O   UNL     1     -11.858  11.911  68.979  1.00  0.00    -0.294 OA 
BRANCH  13  14
HETATM   14  C   UNL     1     -11.941  11.419  70.261  1.00  0.00    -0.373 C  
HETATM   15  C   UNL     1     -13.326  11.649  70.837  1.00  0.00     0.459 C  
HETATM   16  O   UNL     1     -11.000  10.903  70.853  1.00  0.00     0.354 OA 
HETATM   17  C   UNL     1     -13.693  10.464  71.739  1.00  0.00    -0.021 C  
HETATM   18  C   UNL     1     -13.394  12.983  71.555  1.00  0.00    -0.284 A  
HETATM   19  C   UNL     1     -14.280  13.976  71.113  1.00  0.00     0.199 A  
HETATM   20  O   UNL     1     -13.799   9.277  70.952  1.00  0.00    -0.579 OA 
HETATM   21  H   UNL     1     -14.026   8.542  71.511  1.00  0.00     0.000 HD 
HETATM   22  C   UNL     1     -14.326  15.219  71.747  1.00  0.00    -0.678 A  
HETATM   23  C   UNL     1     -13.488  15.484  72.827  1.00  0.00    -0.650 A  
HETATM   24  C   UNL     1     -12.606  14.507  73.280  1.00  0.00    -0.433 A  
HETATM   25  C   UNL     1     -12.559  13.262  72.650  1.00  0.00     0.328 A  
ENDBRANCH  13  14
ENDBRANCH   7  13
TORSDOF 3
ENDMDL
MODEL       80
REMARK 921   NORMALIZED FREE ENERGY PREDICTED BY IDOCK:   -4.47 KCAL/MOL
REMARK 922        TOTAL FREE ENERGY PREDICTED BY IDOCK:   -6.33 KCAL/MOL
REMARK 923 INTER-LIGAND FREE ENERGY PREDICTED BY IDOCK:   -5.85 KCAL/MOL
REMARK 924 INTRA-LIGAND FREE ENERGY PREDICTED BY IDOCK:   -0.48 KCAL/MOL
REMARK 927      BINDING AFFINITY PREDICTED BY RF-SCORE:    0.00 PKD
ROOT
HETATM    1  C   UNL     1     -10.056  13.914  65.714  1.00  0.00    -0.320 C  
HETATM    2  C   UNL     1     -10.409  14.894  66.843  1.00  0.00    -0.264 C  
HETATM    3  C   UNL     1     -11.742  14.415  67.397  1.00  0.00    -0.424 C  
HETATM    4  C   UNL     1     -12.106  13.168  66.578  1.00  0.00    -0.358 C  
HETATM    5  C   UNL     1     -11.528  11.918  67.246  1.00  0.00    -0.385 C  
HETATM    6  N   UNL     1     -11.432  13.410  65.203  1.00  0.00    -0.291 N  
HETATM    7  C   UNL     1      -9.998  11.767  67.165  1.00  0.00    -0.203 C  
HETATM    8  C   UNL     1     -12.160  14.546  64.442  1.00  0.00    -0.472 C  
HETATM    9  C   UNL     1      -9.229  12.758  66.278  1.00  0.00    -0.096 C  
ENDROOT
BRANCH   6  10
HETATM   10  C   UNL     1     -11.374  12.137  64.275  1.00  0.00    -0.360 C  
HETATM   11  C   UNL     1     -10.214  12.211  63.280  1.00  0.00    -0.341 C  
HETATM   12  C   UNL     1     -12.702  11.892  63.550  1.00  0.00    -0.530 C  
ENDBRANCH   6  10
BRANCH   7  13
HETATM   13  O   UNL     1      -9.449  11.807  68.496  1.00  0.00    -0.200 OA 
BRANCH  13  14
HETATM   14  C   UNL     1      -8.440  10.897  68.713  1.00  0.00    -0.150 C  
HETATM   15  C   UNL     1      -8.433   9.835  67.629  1.00  0.00    -0.122 C  
HETATM   16  O   UNL     1      -7.686  10.936  69.677  1.00  0.00    -0.083 OA 
HETATM   17  C   UNL     1      -6.982   9.430  67.340  1.00  0.00    -0.085 C  
HETATM   18  C   UNL     1      -9.308   8.662  68.022  1.00  0.00    -0.147 A  
HETATM   19  C   UNL     1     -10.421   8.320  67.239  1.00  0.00    -0.373 A  
HETATM   20  O   UNL     1      -6.273  10.542  66.791  1.00  0.00    -0.061 OA 
HETATM   21  H   UNL     1      -5.374  10.290  66.611  1.00  0.00     0.000 HD 
HETATM   22  C   UNL     1     -11.253   7.262  67.611  1.00  0.00     0.088 A  
HETATM   23  C   UNL     1     -10.982   6.534  68.768  1.00  0.00    -0.371 A  
HETATM   24  C   UNL     1      -9.879   6.858  69.552  1.00  0.00    -0.163 A  
HETATM   25  C   UNL     1      -9.044   7.914  69.181  1.00  0.00    -0.145 A  
ENDBRANCH  13  14
ENDBRANCH   7  13
TORSDOF 3
ENDMDL
MODEL       81
REMARK 921   NORMALIZED FREE ENERGY PREDICTED BY IDOCK:   -4.41 KCAL/MOL
REMARK 922        TOTAL FREE ENERGY PREDICTED BY IDOCK:   -6.26 KCAL/MOL
REMARK 923 INTER-LIGAND FREE ENERGY PREDICTED BY IDOCK:   -5.28 KCAL/MOL
REMARK 924 INTRA-LIGAND FREE ENERGY PREDICTED BY IDOCK:   -0.99 KCAL/MOL
REMARK 927      BINDING AFFINITY PREDICTED BY RF-SCORE:    0.00 PKD
ROOT
HETATM    1  C   UNL     1      -7.819   7.934  68.523  1.00  0.00    -0.119 C  
HETATM    2  C   UNL     1      -6.967   8.965  67.768  1.00  0.00    -0.075 C  
HETATM    3  C   UNL     1      -7.582   9.066  66.381  1.00  0.00    -0.092 C  
HETATM    4  C   UNL     1      -8.775   8.099  66.387  1.00  0.00    -0.149 C  
HETATM    5  C   UNL     1     -10.036   8.829  66.855  1.00  0.00    -0.348 C  
HETATM    6  N   UNL     1      -8.370   7.005  67.408  1.00  0.00    -0.122 N  
HETATM    7  C   UNL     1     -10.075   9.199  68.350  1.00  0.00    -0.196 C  
HETATM    8  C   UNL     1      -7.225   6.134  66.834  1.00  0.00    -0.074 C  
HETATM    9  C   UNL     1      -8.961   8.645  69.251  1.00  0.00    -0.145 C  
ENDROOT
BRANCH   6  10
HETATM   10  C   UNL     1      -9.550   6.059  67.850  1.00  0.00    -0.116 C  
HETATM   11  C   UNL     1      -9.114   5.075  68.938  1.00  0.00    -0.142 C  
HETATM   12  C   UNL     1     -10.172   5.319  66.660  1.00  0.00    -0.291 C  
ENDBRANCH   6  10
BRANCH   7  13
HETATM   13  O   UNL     1     -10.113  10.633  68.480  1.00  0.00    -0.159 OA 
BRANCH  13  14
HETATM   14  C   UNL     1     -11.348  11.130  68.827  1.00  0.00    -0.277 C  
HETATM   15  C   UNL     1     -11.442  11.333  70.328  1.00  0.00    -0.286 C  
HETATM   16  O   UNL     1     -12.248  11.337  68.022  1.00  0.00    -0.621 OA 
HETATM   17  C   UNL     1     -12.296  12.576  70.609  1.00  0.00    -0.282 C  
HETATM   18  C   UNL     1     -11.973  10.085  71.006  1.00  0.00    -0.469 A  
HETATM   19  C   UNL     1     -11.186   9.407  71.948  1.00  0.00    -0.233 A  
HETATM   20  O   UNL     1     -11.633  13.737  70.107  1.00  0.00    -0.432 OA 
HETATM   21  H   UNL     1     -12.162  14.508  70.281  1.00  0.00     0.000 HD 
HETATM   22  C   UNL     1     -11.652   8.238  72.552  1.00  0.00    -0.454 A  
HETATM   23  C   UNL     1     -12.908   7.734  72.223  1.00  0.00    -0.105 A  
HETATM   24  C   UNL     1     -13.703   8.398  71.293  1.00  0.00    -0.185 A  
HETATM   25  C   UNL     1     -13.240   9.568  70.688  1.00  0.00     0.099 A  
ENDBRANCH  13  14
ENDBRANCH   7  13
TORSDOF 3
ENDMDL
MODEL       82
REMARK 921   NORMALIZED FREE ENERGY PREDICTED BY IDOCK:   -4.37 KCAL/MOL
REMARK 922        TOTAL FREE ENERGY PREDICTED BY IDOCK:   -6.21 KCAL/MOL
REMARK 923 INTER-LIGAND FREE ENERGY PREDICTED BY IDOCK:   -5.29 KCAL/MOL
REMARK 924 INTRA-LIGAND FREE ENERGY PREDICTED BY IDOCK:   -0.93 KCAL/MOL
REMARK 927      BINDING AFFINITY PREDICTED BY RF-SCORE:    0.00 PKD
ROOT
HETATM    1  C   UNL     1      -9.248   6.815  68.759  1.00  0.00    -0.130 C  
HETATM    2  C   UNL     1     -10.575   6.108  68.449  1.00  0.00    -0.324 C  
HETATM    3  C   UNL     1     -11.532   6.534  69.552  1.00  0.00    -0.384 C  
HETATM    4  C   UNL     1     -10.727   7.482  70.453  1.00  0.00    -0.239 C  
HETATM    5  C   UNL     1     -10.868   8.922  69.956  1.00  0.00    -0.239 C  
HETATM    6  N   UNL     1      -9.263   6.995  70.301  1.00  0.00    -0.156 N  
HETATM    7  C   UNL     1     -10.144   9.244  68.635  1.00  0.00    -0.189 C  
HETATM    8  C   UNL     1      -9.079   5.622  70.994  1.00  0.00    -0.145 C  
HETATM    9  C   UNL     1      -9.210   8.171  68.054  1.00  0.00    -0.137 C  
ENDROOT
BRANCH   6  10
HETATM   10  C   UNL     1      -8.183   7.994  70.867  1.00  0.00    -0.103 C  
HETATM   11  C   UNL     1      -6.759   7.485  70.633  1.00  0.00    -0.043 C  
HETATM   12  C   UNL     1      -8.415   8.313  72.347  1.00  0.00    -0.252 C  
ENDBRANCH   6  10
BRANCH   7  13
HETATM   13  O   UNL     1     -11.119   9.606  67.639  1.00  0.00    -0.214 OA 
BRANCH  13  14
HETATM   14  C   UNL     1     -11.390  10.953  67.586  1.00  0.00    -0.270 C  
HETATM   15  C   UNL     1     -10.575  11.623  66.496  1.00  0.00    -0.292 C  
HETATM   16  O   UNL     1     -12.160  11.522  68.351  1.00  0.00    -0.556 OA 
HETATM   17  C   UNL     1     -11.412  12.743  65.865  1.00  0.00    -0.356 C  
HETATM   18  C   UNL     1      -9.247  12.112  67.042  1.00  0.00    -0.202 A  
HETATM   19  C   UNL     1      -8.045  11.606  66.527  1.00  0.00    -0.075 A  
HETATM   20  O   UNL     1     -12.546  12.181  65.204  1.00  0.00    -0.505 OA 
HETATM   21  H   UNL     1     -13.065  12.875  64.813  1.00  0.00     0.000 HD 
HETATM   22  C   UNL     1      -6.819  12.024  67.046  1.00  0.00    -0.097 A  
HETATM   23  C   UNL     1      -6.780  12.952  68.084  1.00  0.00    -0.096 A  
HETATM   24  C   UNL     1      -7.964  13.468  68.602  1.00  0.00    -0.073 A  
HETATM   25  C   UNL     1      -9.192  13.052  68.084  1.00  0.00    -0.212 A  
ENDBRANCH  13  14
ENDBRANCH   7  13
TORSDOF 3
ENDMDL
MODEL       83
REMARK 921   NORMALIZED FREE ENERGY PREDICTED BY IDOCK:   -4.36 KCAL/MOL
REMARK 922        TOTAL FREE ENERGY PREDICTED BY IDOCK:   -6.20 KCAL/MOL
REMARK 923 INTER-LIGAND FREE ENERGY PREDICTED BY IDOCK:   -5.37 KCAL/MOL
REMARK 924 INTRA-LIGAND FREE ENERGY PREDICTED BY IDOCK:   -0.83 KCAL/MOL
REMARK 927      BINDING AFFINITY PREDICTED BY RF-SCORE:    0.00 PKD
ROOT
HETATM    1  C   UNL     1      -9.470  12.440  65.980  1.00  0.00    -0.166 C  
HETATM    2  C   UNL     1      -8.596  12.848  67.175  1.00  0.00    -0.198 C  
HETATM    3  C   UNL     1      -9.549  13.466  68.186  1.00  0.00    -0.222 C  
HETATM    4  C   UNL     1     -10.942  13.382  67.545  1.00  0.00    -0.267 C  
HETATM    5  C   UNL     1     -11.611  12.059  67.921  1.00  0.00    -0.405 C  
HETATM    6  N   UNL     1     -10.661  13.436  66.022  1.00  0.00    -0.283 N  
HETATM    7  C   UNL     1     -11.015  10.801  67.262  1.00  0.00    -0.297 C  
HETATM    8  C   UNL     1     -10.179  14.850  65.615  1.00  0.00    -0.358 C  
HETATM    9  C   UNL     1      -9.957  11.003  66.166  1.00  0.00    -0.277 C  
ENDROOT
BRANCH   6  10
HETATM   10  C   UNL     1     -11.891  13.043  65.119  1.00  0.00    -0.369 C  
HETATM   11  C   UNL     1     -11.485  12.841  63.658  1.00  0.00    -0.544 C  
HETATM   12  C   UNL     1     -13.036  14.055  65.234  1.00  0.00    -0.315 C  
ENDBRANCH   6  10
BRANCH   7  13
HETATM   13  O   UNL     1     -10.472   9.945  68.285  1.00  0.00    -0.188 OA 
BRANCH  13  14
HETATM   14  C   UNL     1     -10.053   8.718  67.823  1.00  0.00    -0.207 C  
HETATM   15  C   UNL     1      -8.599   8.476  68.182  1.00  0.00    -0.138 C  
HETATM   16  O   UNL     1     -10.763   7.957  67.177  1.00  0.00    -0.326 OA 
HETATM   17  C   UNL     1      -8.403   6.985  68.486  1.00  0.00    -0.121 C  
HETATM   18  C   UNL     1      -7.684   8.982  67.085  1.00  0.00    -0.099 A  
HETATM   19  C   UNL     1      -6.755   9.998  67.356  1.00  0.00    -0.073 A  
HETATM   20  O   UNL     1      -9.149   6.630  69.650  1.00  0.00    -0.142 OA 
HETATM   21  H   UNL     1      -9.028   5.707  69.839  1.00  0.00     0.000 HD 
HETATM   22  C   UNL     1      -5.931  10.494  66.343  1.00  0.00    -0.084 A  
HETATM   23  C   UNL     1      -6.025   9.982  65.051  1.00  0.00    -0.107 A  
HETATM   24  C   UNL     1      -6.939   8.971  64.769  1.00  0.00    -0.084 A  
HETATM   25  C   UNL     1      -7.763   8.471  65.779  1.00  0.00    -0.098 A  
ENDBRANCH  13  14
ENDBRANCH   7  13
TORSDOF 3
ENDMDL
MODEL       84
REMARK 921   NORMALIZED FREE ENERGY PREDICTED BY IDOCK:   -4.34 KCAL/MOL
REMARK 922        TOTAL FREE ENERGY PREDICTED BY IDOCK:   -6.18 KCAL/MOL
REMARK 923 INTER-LIGAND FREE ENERGY PREDICTED BY IDOCK:   -5.22 KCAL/MOL
REMARK 924 INTRA-LIGAND FREE ENERGY PREDICTED BY IDOCK:   -0.96 KCAL/MOL
REMARK 927      BINDING AFFINITY PREDICTED BY RF-SCORE:    0.00 PKD
ROOT
HETATM    1  C   UNL     1      -9.389  15.698  66.195  1.00  0.00    -0.347 C  
HETATM    2  C   UNL     1     -10.294  16.896  65.874  1.00  0.00    -0.327 C  
HETATM    3  C   UNL     1     -11.410  16.853  66.907  1.00  0.00     0.612 C  
HETATM    4  C   UNL     1     -11.103  15.640  67.796  1.00  0.00    -0.311 C  
HETATM    5  C   UNL     1     -10.214  16.062  68.967  1.00  0.00    -0.236 C  
HETATM    6  N   UNL     1     -10.342  14.668  66.859  1.00  0.00    -0.262 N  
HETATM    7  C   UNL     1      -8.759  16.414  68.606  1.00  0.00    -0.234 C  
HETATM    8  C   UNL     1     -11.305  14.081  65.797  1.00  0.00    -0.312 C  
HETATM    9  C   UNL     1      -8.292  16.129  67.170  1.00  0.00    -0.225 C  
ENDROOT
BRANCH   6  10
HETATM   10  C   UNL     1      -9.625  13.476  67.601  1.00  0.00    -0.222 C  
HETATM   11  C   UNL     1      -8.575  12.802  66.715  1.00  0.00    -0.084 C  
HETATM   12  C   UNL     1     -10.625  12.450  68.143  1.00  0.00    -0.232 C  
ENDBRANCH   6  10
BRANCH   7  13
HETATM   13  O   UNL     1      -8.519  17.801  68.909  1.00  0.00    -0.245 OA 
BRANCH  13  14
HETATM   14  C   UNL     1      -7.189  18.119  69.057  1.00  0.00    -0.215 C  
HETATM   15  C   UNL     1      -6.924  19.545  68.611  1.00  0.00    -0.357 C  
HETATM   16  O   UNL     1      -6.342  17.330  69.460  1.00  0.00    -0.239 OA 
HETATM   17  C   UNL     1      -5.839  20.154  69.508  1.00  0.00    -0.319 C  
HETATM   18  C   UNL     1      -6.568  19.589  67.138  1.00  0.00    -0.209 A  
HETATM   19  C   UNL     1      -7.376  20.301  66.239  1.00  0.00    -0.286 A  
HETATM   20  O   UNL     1      -6.324  20.256  70.847  1.00  0.00    -0.495 OA 
HETATM   21  H   UNL     1      -5.652  20.633  71.403  1.00  0.00     0.000 HD 
HETATM   22  C   UNL     1      -7.075  20.319  64.876  1.00  0.00    -0.015 A  
HETATM   23  C   UNL     1      -5.965  19.628  64.396  1.00  0.00    -0.310 A  
HETATM   24  C   UNL     1      -5.151  18.921  65.276  1.00  0.00    -0.191 A  
HETATM   25  C   UNL     1      -5.448  18.902  66.640  1.00  0.00    -0.163 A  
ENDBRANCH  13  14
ENDBRANCH   7  13
TORSDOF 3
ENDMDL
MODEL       85
REMARK 921   NORMALIZED FREE ENERGY PREDICTED BY IDOCK:   -4.34 KCAL/MOL
REMARK 922        TOTAL FREE ENERGY PREDICTED BY IDOCK:   -6.17 KCAL/MOL
REMARK 923 INTER-LIGAND FREE ENERGY PREDICTED BY IDOCK:   -5.25 KCAL/MOL
REMARK 924 INTRA-LIGAND FREE ENERGY PREDICTED BY IDOCK:   -0.92 KCAL/MOL
REMARK 927      BINDING AFFINITY PREDICTED BY RF-SCORE:    0.00 PKD
ROOT
HETATM    1  C   UNL     1     -11.562  14.692  67.224  1.00  0.00    -0.387 C  
HETATM    2  C   UNL     1     -11.632  14.416  65.716  1.00  0.00    -0.353 C  
HETATM    3  C   UNL     1     -10.200  14.523  65.214  1.00  0.00    -0.431 C  
HETATM    4  C   UNL     1      -9.352  14.843  66.454  1.00  0.00    -0.297 C  
HETATM    5  C   UNL     1      -8.884  13.546  67.116  1.00  0.00    -0.231 C  
HETATM    6  N   UNL     1     -10.322  15.611  67.387  1.00  0.00    -0.269 N  
HETATM    7  C   UNL     1      -9.978  12.731  67.832  1.00  0.00    -0.229 C  
HETATM    8  C   UNL     1     -10.627  17.014  66.806  1.00  0.00    -0.191 C  
HETATM    9  C   UNL     1     -11.365  13.376  67.978  1.00  0.00    -0.320 C  
ENDROOT
BRANCH   6  10
HETATM   10  C   UNL     1      -9.805  15.779  68.867  1.00  0.00    -0.224 C  
HETATM   11  C   UNL     1     -10.710  16.702  69.685  1.00  0.00    -0.286 C  
HETATM   12  C   UNL     1      -8.349  16.254  68.917  1.00  0.00    -0.231 C  
ENDBRANCH   6  10
BRANCH   7  13
HETATM   13  O   UNL     1     -10.121  11.456  67.178  1.00  0.00    -0.193 OA 
BRANCH  13  14
HETATM   14  C   UNL     1     -10.529  10.443  68.013  1.00  0.00    -0.196 C  
HETATM   15  C   UNL     1      -9.567  10.283  69.175  1.00  0.00    -0.229 C  
HETATM   16  O   UNL     1     -11.518   9.749  67.807  1.00  0.00    -0.022 OA 
HETATM   17  C   UNL     1     -10.360   9.890  70.428  1.00  0.00    -0.260 C  
HETATM   18  C   UNL     1      -8.471   9.293  68.833  1.00  0.00    -0.129 A  
HETATM   19  C   UNL     1      -7.131   9.705  68.814  1.00  0.00    -0.067 A  
HETATM   20  O   UNL     1     -11.234  10.957  70.798  1.00  0.00    -0.367 OA 
HETATM   21  H   UNL     1     -11.725  10.713  71.574  1.00  0.00     0.000 HD 
HETATM   22  C   UNL     1      -6.118   8.808  68.467  1.00  0.00    -0.046 A  
HETATM   23  C   UNL     1      -6.433   7.493  68.136  1.00  0.00    -0.049 A  
HETATM   24  C   UNL     1      -7.758   7.068  68.155  1.00  0.00    -0.113 A  
HETATM   25  C   UNL     1      -8.773   7.961  68.503  1.00  0.00    -0.131 A  
ENDBRANCH  13  14
ENDBRANCH   7  13
TORSDOF 3
ENDMDL
MODEL       86
REMARK 921   NORMALIZED FREE ENERGY PREDICTED BY IDOCK:   -4.33 KCAL/MOL
REMARK 922        TOTAL FREE ENERGY PREDICTED BY IDOCK:   -6.16 KCAL/MOL
REMARK 923 INTER-LIGAND FREE ENERGY PREDICTED BY IDOCK:   -4.99 KCAL/MOL
REMARK 924 INTRA-LIGAND FREE ENERGY PREDICTED BY IDOCK:   -1.17 KCAL/MOL
REMARK 927      BINDING AFFINITY PREDICTED BY RF-SCORE:    0.00 PKD
ROOT
HETATM    1  C   UNL     1      -9.830  12.904  67.145  1.00  0.00    -0.225 C  
HETATM    2  C   UNL     1     -10.668  11.890  67.938  1.00  0.00    -0.239 C  
HETATM    3  C   UNL     1     -12.027  11.860  67.255  1.00  0.00    -0.065 C  
HETATM    4  C   UNL     1     -11.922  12.848  66.084  1.00  0.00    -0.429 C  
HETATM    5  C   UNL     1     -11.424  12.123  64.832  1.00  0.00    -0.379 C  
HETATM    6  N   UNL     1     -10.877  13.890  66.561  1.00  0.00    -0.293 N  
HETATM    7  C   UNL     1      -9.946  11.690  64.857  1.00  0.00    -0.255 C  
HETATM    8  C   UNL     1     -11.469  14.762  67.696  1.00  0.00    -0.347 C  
HETATM    9  C   UNL     1      -9.078  12.184  66.025  1.00  0.00    -0.057 C  
ENDROOT
BRANCH   6  10
HETATM   10  C   UNL     1     -10.339  14.839  65.424  1.00  0.00    -0.386 C  
HETATM   11  C   UNL     1      -9.361  15.882  65.968  1.00  0.00    -0.385 C  
HETATM   12  C   UNL     1     -11.477  15.508  64.647  1.00  0.00    -0.326 C  
ENDBRANCH   6  10
BRANCH   7  13
HETATM   13  O   UNL     1      -9.874  10.253  64.796  1.00  0.00    -0.307 OA 
BRANCH  13  14
HETATM   14  C   UNL     1      -8.632   9.770  64.456  1.00  0.00    -0.184 C  
HETATM   15  C   UNL     1      -8.212   8.657  65.397  1.00  0.00    -0.137 C  
HETATM   16  O   UNL     1      -7.957  10.218  63.537  1.00  0.00    -0.159 OA 
HETATM   17  C   UNL     1      -7.409   7.615  64.609  1.00  0.00    -0.085 C  
HETATM   18  C   UNL     1      -7.452   9.216  66.584  1.00  0.00    -0.086 A  
HETATM   19  C   UNL     1      -7.952   9.046  67.883  1.00  0.00    -0.102 A  
HETATM   20  O   UNL     1      -8.250   6.995  63.636  1.00  0.00    -0.313 OA 
HETATM   21  H   UNL     1      -7.753   6.349  63.147  1.00  0.00     0.000 HD 
HETATM   22  C   UNL     1      -7.278   9.587  68.980  1.00  0.00    -0.071 A  
HETATM   23  C   UNL     1      -6.097  10.301  68.791  1.00  0.00    -0.047 A  
HETATM   24  C   UNL     1      -5.586  10.474  67.508  1.00  0.00    -0.044 A  
HETATM   25  C   UNL     1      -6.257   9.933  66.410  1.00  0.00    -0.070 A  
ENDBRANCH  13  14
ENDBRANCH   7  13
TORSDOF 3
ENDMDL
MODEL       87
REMARK 921   NORMALIZED FREE ENERGY PREDICTED BY IDOCK:   -4.32 KCAL/MOL
REMARK 922        TOTAL FREE ENERGY PREDICTED BY IDOCK:   -6.15 KCAL/MOL
REMARK 923 INTER-LIGAND FREE ENERGY PREDICTED BY IDOCK:   -5.36 KCAL/MOL
REMARK 924 INTRA-LIGAND FREE ENERGY PREDICTED BY IDOCK:   -0.80 KCAL/MOL
REMARK 927      BINDING AFFINITY PREDICTED BY RF-SCORE:    0.00 PKD
ROOT
HETATM    1  C   UNL     1      -9.818   4.176  66.597  1.00  0.00    -0.185 C  
HETATM    2  C   UNL     1      -9.580   3.846  68.077  1.00  0.00    -0.189 C  
HETATM    3  C   UNL     1      -8.279   4.543  68.447  1.00  0.00    -0.086 C  
HETATM    4  C   UNL     1      -7.819   5.262  67.171  1.00  0.00    -0.100 C  
HETATM    5  C   UNL     1      -8.409   6.673  67.124  1.00  0.00    -0.113 C  
HETATM    6  N   UNL     1      -8.393   4.395  66.021  1.00  0.00    -0.113 N  
HETATM    7  C   UNL     1      -9.925   6.753  66.860  1.00  0.00    -0.191 C  
HETATM    8  C   UNL     1      -7.643   3.042  65.944  1.00  0.00    -0.073 C  
HETATM    9  C   UNL     1     -10.652   5.453  66.483  1.00  0.00    -0.353 C  
ENDROOT
BRANCH   6  10
HETATM   10  C   UNL     1      -8.345   5.081  64.603  1.00  0.00    -0.141 C  
HETATM   11  C   UNL     1      -9.008   4.216  63.529  1.00  0.00    -0.127 C  
HETATM   12  C   UNL     1      -6.917   5.459  64.195  1.00  0.00    -0.048 C  
ENDBRANCH   6  10
BRANCH   7  13
HETATM   13  O   UNL     1     -10.573   7.337  68.006  1.00  0.00    -0.208 OA 
BRANCH  13  14
HETATM   14  C   UNL     1     -10.303   8.675  68.178  1.00  0.00    -0.216 C  
HETATM   15  C   UNL     1      -9.808   8.946  69.587  1.00  0.00    -0.182 C  
HETATM   16  O   UNL     1     -10.481   9.522  67.311  1.00  0.00    -0.246 OA 
HETATM   17  C   UNL     1      -8.757  10.062  69.539  1.00  0.00    -0.192 C  
HETATM   18  C   UNL     1     -10.967   9.262  70.511  1.00  0.00    -0.318 A  
HETATM   19  C   UNL     1     -11.232   8.440  71.616  1.00  0.00    -0.343 A  
HETATM   20  O   UNL     1      -7.613   9.614  68.811  1.00  0.00    -0.074 OA 
HETATM   21  H   UNL     1      -6.962  10.306  68.782  1.00  0.00     0.000 HD 
HETATM   22  C   UNL     1     -12.317   8.704  72.453  1.00  0.00    -0.426 A  
HETATM   23  C   UNL     1     -13.149   9.792  72.197  1.00  0.00    -0.513 A  
HETATM   24  C   UNL     1     -12.896  10.620  71.108  1.00  0.00    -0.518 A  
HETATM   25  C   UNL     1     -11.810  10.360  70.270  1.00  0.00    -0.399 A  
ENDBRANCH  13  14
ENDBRANCH   7  13
TORSDOF 3
ENDMDL
MODEL       88
REMARK 921   NORMALIZED FREE ENERGY PREDICTED BY IDOCK:   -4.30 KCAL/MOL
REMARK 922        TOTAL FREE ENERGY PREDICTED BY IDOCK:   -6.13 KCAL/MOL
REMARK 923 INTER-LIGAND FREE ENERGY PREDICTED BY IDOCK:   -5.08 KCAL/MOL
REMARK 924 INTRA-LIGAND FREE ENERGY PREDICTED BY IDOCK:   -1.05 KCAL/MOL
REMARK 927      BINDING AFFINITY PREDICTED BY RF-SCORE:    0.00 PKD
ROOT
HETATM    1  C   UNL     1      -9.419   9.678  67.439  1.00  0.00    -0.142 C  
HETATM    2  C   UNL     1      -8.349   9.608  68.537  1.00  0.00    -0.117 C  
HETATM    3  C   UNL     1      -7.942  11.049  68.803  1.00  0.00    -0.144 C  
HETATM    4  C   UNL     1      -8.801  11.901  67.858  1.00  0.00    -0.172 C  
HETATM    5  C   UNL     1     -10.113  12.283  68.546  1.00  0.00    -0.192 C  
HETATM    6  N   UNL     1      -9.072  10.969  66.650  1.00  0.00    -0.162 N  
HETATM    7  C   UNL     1     -11.120  11.135  68.745  1.00  0.00    -0.236 C  
HETATM    8  C   UNL     1      -7.773  10.755  65.835  1.00  0.00    -0.118 C  
HETATM    9  C   UNL     1     -10.804   9.787  68.077  1.00  0.00    -0.276 C  
ENDROOT
BRANCH   6  10
HETATM   10  C   UNL     1     -10.201  11.479  65.675  1.00  0.00    -0.248 C  
HETATM   11  C   UNL     1     -10.261  10.650  64.390  1.00  0.00    -0.400 C  
HETATM   12  C   UNL     1     -10.056  12.971  65.357  1.00  0.00    -0.265 C  
ENDBRANCH   6  10
BRANCH   7  13
HETATM   13  O   UNL     1     -11.321  10.923  70.155  1.00  0.00    -0.293 OA 
BRANCH  13  14
HETATM   14  C   UNL     1     -12.270   9.971  70.447  1.00  0.00    -0.170 C  
HETATM   15  C   UNL     1     -11.805   9.079  71.583  1.00  0.00    -0.431 C  
HETATM   16  O   UNL     1     -13.325   9.852  69.834  1.00  0.00     0.418 OA 
HETATM   17  C   UNL     1     -13.018   8.690  72.439  1.00  0.00    -0.351 C  
HETATM   18  C   UNL     1     -11.049   7.879  71.048  1.00  0.00    -0.268 A  
HETATM   19  C   UNL     1      -9.707   7.678  71.399  1.00  0.00    -0.183 A  
HETATM   20  O   UNL     1     -13.557   9.856  73.064  1.00  0.00    -0.217 OA 
HETATM   21  H   UNL     1     -14.308   9.615  73.594  1.00  0.00     0.000 HD 
HETATM   22  C   UNL     1      -8.992   6.594  70.884  1.00  0.00    -0.147 A  
HETATM   23  C   UNL     1      -9.611   5.700  70.014  1.00  0.00    -0.214 A  
HETATM   24  C   UNL     1     -10.945   5.883  69.660  1.00  0.00    -0.447 A  
HETATM   25  C   UNL     1     -11.662   6.964  70.175  1.00  0.00    -0.306 A  
ENDBRANCH  13  14
ENDBRANCH   7  13
TORSDOF 3
ENDMDL
MODEL       89
REMARK 921   NORMALIZED FREE ENERGY PREDICTED BY IDOCK:   -4.28 KCAL/MOL
REMARK 922        TOTAL FREE ENERGY PREDICTED BY IDOCK:   -6.10 KCAL/MOL
REMARK 923 INTER-LIGAND FREE ENERGY PREDICTED BY IDOCK:   -5.47 KCAL/MOL
REMARK 924 INTRA-LIGAND FREE ENERGY PREDICTED BY IDOCK:   -0.64 KCAL/MOL
REMARK 927      BINDING AFFINITY PREDICTED BY RF-SCORE:    0.00 PKD
ROOT
HETATM    1  C   UNL     1      -9.246  12.004  68.122  1.00  0.00    -0.195 C  
HETATM    2  C   UNL     1     -10.446  12.811  68.640  1.00  0.00    -0.230 C  
HETATM    3  C   UNL     1     -11.680  12.069  68.149  1.00  0.00    -0.398 C  
HETATM    4  C   UNL     1     -11.149  10.853  67.376  1.00  0.00    -0.307 C  
HETATM    5  C   UNL     1     -10.974   9.666  68.325  1.00  0.00    -0.172 C  
HETATM    6  N   UNL     1      -9.775  11.321  66.833  1.00  0.00    -0.189 N  
HETATM    7  C   UNL     1      -9.813   9.782  69.330  1.00  0.00    -0.205 C  
HETATM    8  C   UNL     1      -9.970  12.379  65.718  1.00  0.00    -0.254 C  
HETATM    9  C   UNL     1      -8.841  10.960  69.163  1.00  0.00    -0.050 C  
ENDROOT
BRANCH   6  10
HETATM   10  C   UNL     1      -8.867  10.160  66.273  1.00  0.00    -0.148 C  
HETATM   11  C   UNL     1      -7.428  10.626  66.037  1.00  0.00    -0.137 C  
HETATM   12  C   UNL     1      -9.454   9.532  65.004  1.00  0.00    -0.273 C  
ENDBRANCH   6  10
BRANCH   7  13
HETATM   13  O   UNL     1     -10.347   9.801  70.668  1.00  0.00    -0.289 OA 
BRANCH  13  14
HETATM   14  C   UNL     1     -11.126   8.709  70.974  1.00  0.00    -0.264 C  
HETATM   15  C   UNL     1     -10.264   7.543  71.422  1.00  0.00    -0.201 C  
HETATM   16  O   UNL     1     -12.345   8.689  70.856  1.00  0.00    -0.202 OA 
HETATM   17  C   UNL     1     -11.013   6.760  72.509  1.00  0.00    -0.247 C  
HETATM   18  C   UNL     1      -9.869   6.682  70.238  1.00  0.00    -0.188 A  
HETATM   19  C   UNL     1      -8.516   6.522  69.905  1.00  0.00    -0.135 A  
HETATM   20  O   UNL     1     -11.176   7.582  73.665  1.00  0.00    -0.583 OA 
HETATM   21  H   UNL     1     -11.639   7.097  74.339  1.00  0.00     0.000 HD 
HETATM   22  C   UNL     1      -8.144   5.759  68.797  1.00  0.00    -0.102 A  
HETATM   23  C   UNL     1      -9.118   5.147  68.010  1.00  0.00    -0.123 A  
HETATM   24  C   UNL     1     -10.464   5.293  68.332  1.00  0.00    -0.143 A  
HETATM   25  C   UNL     1     -10.839   6.054  69.440  1.00  0.00    -0.433 A  
ENDBRANCH  13  14
ENDBRANCH   7  13
TORSDOF 3
ENDMDL
MODEL       90
REMARK 921   NORMALIZED FREE ENERGY PREDICTED BY IDOCK:   -4.27 KCAL/MOL
REMARK 922        TOTAL FREE ENERGY PREDICTED BY IDOCK:   -6.10 KCAL/MOL
REMARK 923 INTER-LIGAND FREE ENERGY PREDICTED BY IDOCK:   -5.54 KCAL/MOL
REMARK 924 INTRA-LIGAND FREE ENERGY PREDICTED BY IDOCK:   -0.56 KCAL/MOL
REMARK 927      BINDING AFFINITY PREDICTED BY RF-SCORE:    0.00 PKD
ROOT
HETATM    1  C   UNL     1      -9.897  14.045  68.429  1.00  0.00    -0.232 C  
HETATM    2  C   UNL     1     -10.770  13.670  69.635  1.00  0.00     0.218 C  
HETATM    3  C   UNL     1     -12.147  13.367  69.065  1.00  0.00    -0.299 C  
HETATM    4  C   UNL     1     -12.017  13.565  67.547  1.00  0.00    -0.346 C  
HETATM    5  C   UNL     1     -11.597  12.252  66.883  1.00  0.00    -0.427 C  
HETATM    6  N   UNL     1     -10.901  14.630  67.399  1.00  0.00    -0.291 N  
HETATM    7  C   UNL     1     -10.147  11.806  67.148  1.00  0.00    -0.203 C  
HETATM    8  C   UNL     1     -11.409  16.011  67.885  1.00  0.00    -0.218 C  
HETATM    9  C   UNL     1      -9.220  12.792  67.875  1.00  0.00    -0.205 C  
ENDROOT
BRANCH   6  10
HETATM   10  C   UNL     1     -10.340  14.786  65.935  1.00  0.00    -0.320 C  
HETATM   11  C   UNL     1      -9.235  15.842  65.857  1.00  0.00    -0.337 C  
HETATM   12  C   UNL     1     -11.451  15.080  64.921  1.00  0.00    -0.399 C  
ENDBRANCH   6  10
BRANCH   7  13
HETATM   13  O   UNL     1     -10.162  10.558  67.867  1.00  0.00    -0.170 OA 
BRANCH  13  14
HETATM   14  C   UNL     1      -9.207   9.661  67.447  1.00  0.00    -0.130 C  
HETATM   15  C   UNL     1      -9.848   8.354  67.019  1.00  0.00    -0.296 C  
HETATM   16  O   UNL     1      -8.004   9.892  67.462  1.00  0.00    -0.105 OA 
HETATM   17  C   UNL     1      -9.058   7.775  65.839  1.00  0.00    -0.072 C  
HETATM   18  C   UNL     1      -9.951   7.397  68.190  1.00  0.00    -0.190 A  
HETATM   19  C   UNL     1     -11.206   6.950  68.627  1.00  0.00    -0.082 A  
HETATM   20  O   UNL     1      -9.171   8.645  64.712  1.00  0.00    -0.404 OA 
HETATM   21  H   UNL     1      -8.681   8.286  63.980  1.00  0.00     0.000 HD 
HETATM   22  C   UNL     1     -11.312   6.096  69.725  1.00  0.00    -0.452 A  
HETATM   23  C   UNL     1     -10.167   5.678  70.399  1.00  0.00    -0.302 A  
HETATM   24  C   UNL     1      -8.914   6.109  69.974  1.00  0.00    -0.148 A  
HETATM   25  C   UNL     1      -8.804   6.962  68.875  1.00  0.00    -0.129 A  
ENDBRANCH  13  14
ENDBRANCH   7  13
TORSDOF 3
ENDMDL
MODEL       91
REMARK 921   NORMALIZED FREE ENERGY PREDICTED BY IDOCK:   -4.27 KCAL/MOL
REMARK 922        TOTAL FREE ENERGY PREDICTED BY IDOCK:   -6.10 KCAL/MOL
REMARK 923 INTER-LIGAND FREE ENERGY PREDICTED BY IDOCK:   -5.16 KCAL/MOL
REMARK 924 INTRA-LIGAND FREE ENERGY PREDICTED BY IDOCK:   -0.94 KCAL/MOL
REMARK 927      BINDING AFFINITY PREDICTED BY RF-SCORE:    0.00 PKD
ROOT
HETATM    1  C   UNL     1      -7.914  16.617  66.463  1.00  0.00    -0.307 C  
HETATM    2  C   UNL     1      -7.113  15.320  66.649  1.00  0.00     0.887 C  
HETATM    3  C   UNL     1      -6.167  15.588  67.810  1.00  0.00    -0.178 C  
HETATM    4  C   UNL     1      -6.464  17.025  68.261  1.00  0.00    -0.151 C  
HETATM    5  C   UNL     1      -7.561  17.021  69.328  1.00  0.00    -0.055 C  
HETATM    6  N   UNL     1      -6.961  17.730  66.974  1.00  0.00    -0.170 N  
HETATM    7  C   UNL     1      -8.976  16.675  68.827  1.00  0.00    -0.253 C  
HETATM    8  C   UNL     1      -5.789  17.918  65.979  1.00  0.00    -0.215 C  
HETATM    9  C   UNL     1      -9.186  16.561  67.309  1.00  0.00    -0.224 C  
ENDROOT
BRANCH   6  10
HETATM   10  C   UNL     1      -7.642  19.130  67.220  1.00  0.00    -0.232 C  
HETATM   11  C   UNL     1      -8.114  19.772  65.914  1.00  0.00    -0.263 C  
HETATM   12  C   UNL     1      -6.731  20.084  68.001  1.00  0.00    -0.314 C  
ENDBRANCH   6  10
BRANCH   7  13
HETATM   13  O   UNL     1      -9.414  15.455  69.454  1.00  0.00    -0.246 OA 
BRANCH  13  14
HETATM   14  C   UNL     1     -10.779  15.280  69.443  1.00  0.00    -0.265 C  
HETATM   15  C   UNL     1     -11.131  13.804  69.419  1.00  0.00    -0.206 C  
HETATM   16  O   UNL     1     -11.582  16.205  69.417  1.00  0.00    -0.321 OA 
HETATM   17  C   UNL     1     -12.406  13.584  70.242  1.00  0.00    -0.300 C  
HETATM   18  C   UNL     1     -11.253  13.305  67.993  1.00  0.00    -0.307 A  
HETATM   19  C   UNL     1     -10.400  12.295  67.525  1.00  0.00    -0.214 A  
HETATM   20  O   UNL     1     -12.153  13.894  71.613  1.00  0.00    -0.288 OA 
HETATM   21  H   UNL     1     -12.943  13.757  72.123  1.00  0.00     0.000 HD 
HETATM   22  C   UNL     1     -10.483  11.852  66.203  1.00  0.00    -0.272 A  
HETATM   23  C   UNL     1     -11.416  12.413  65.335  1.00  0.00    -0.402 A  
HETATM   24  C   UNL     1     -12.273  13.414  65.786  1.00  0.00    -0.507 A  
HETATM   25  C   UNL     1     -12.194  13.857  67.107  1.00  0.00    -0.353 A  
ENDBRANCH  13  14
ENDBRANCH   7  13
TORSDOF 3
ENDMDL
MODEL       92
REMARK 921   NORMALIZED FREE ENERGY PREDICTED BY IDOCK:   -4.24 KCAL/MOL
REMARK 922        TOTAL FREE ENERGY PREDICTED BY IDOCK:   -6.06 KCAL/MOL
REMARK 923 INTER-LIGAND FREE ENERGY PREDICTED BY IDOCK:   -6.09 KCAL/MOL
REMARK 924 INTRA-LIGAND FREE ENERGY PREDICTED BY IDOCK:    0.02 KCAL/MOL
REMARK 927      BINDING AFFINITY PREDICTED BY RF-SCORE:    0.00 PKD
ROOT
HETATM    1  C   UNL     1     -10.717  17.051  67.037  1.00  0.00    -0.149 C  
HETATM    2  C   UNL     1      -9.976  17.854  65.959  1.00  0.00    -0.217 C  
HETATM    3  C   UNL     1      -8.523  17.411  66.046  1.00  0.00    -0.127 C  
HETATM    4  C   UNL     1      -8.480  16.358  67.163  1.00  0.00    -0.183 C  
HETATM    5  C   UNL     1      -8.732  14.967  66.579  1.00  0.00    -0.204 C  
HETATM    6  N   UNL     1      -9.634  16.767  68.113  1.00  0.00    -0.236 N  
HETATM    7  C   UNL     1     -10.173  14.694  66.107  1.00  0.00    -0.301 C  
HETATM    8  C   UNL     1      -9.277  18.076  68.860  1.00  0.00    -0.136 C  
HETATM    9  C   UNL     1     -11.242  15.747  66.437  1.00  0.00     0.034 C  
ENDROOT
BRANCH   6  10
HETATM   10  C   UNL     1     -10.021  15.669  69.176  1.00  0.00    -0.244 C  
HETATM   11  C   UNL     1     -11.081  16.175  70.157  1.00  0.00    -0.373 C  
HETATM   12  C   UNL     1      -8.795  15.134  69.922  1.00  0.00     0.188 C  
ENDBRANCH   6  10
BRANCH   7  13
HETATM   13  O   UNL     1     -10.168  14.460  64.686  1.00  0.00    -0.362 OA 
BRANCH  13  14
HETATM   14  C   UNL     1     -10.520  13.178  64.330  1.00  0.00    -0.407 C  
HETATM   15  C   UNL     1     -11.805  12.762  65.021  1.00  0.00    -0.423 C  
HETATM   16  O   UNL     1      -9.851  12.472  63.585  1.00  0.00    -0.323 OA 
HETATM   17  C   UNL     1     -12.612  11.866  64.072  1.00  0.00    -0.282 C  
HETATM   18  C   UNL     1     -11.509  12.100  66.352  1.00  0.00    -0.430 A  
HETATM   19  C   UNL     1     -11.988  12.666  67.542  1.00  0.00    -0.314 A  
HETATM   20  O   UNL     1     -13.018  12.619  62.930  1.00  0.00    -0.411 OA 
HETATM   21  H   UNL     1     -13.518  12.064  62.342  1.00  0.00     0.000 HD 
HETATM   22  C   UNL     1     -11.692  12.082  68.775  1.00  0.00    -0.377 A  
HETATM   23  C   UNL     1     -10.915  10.928  68.834  1.00  0.00    -0.278 A  
HETATM   24  C   UNL     1     -10.436  10.351  67.661  1.00  0.00    -0.277 A  
HETATM   25  C   UNL     1     -10.732  10.931  66.426  1.00  0.00    -0.257 A  
ENDBRANCH  13  14
ENDBRANCH   7  13
TORSDOF 3
ENDMDL
MODEL       93
REMARK 921   NORMALIZED FREE ENERGY PREDICTED BY IDOCK:   -4.23 KCAL/MOL
REMARK 922        TOTAL FREE ENERGY PREDICTED BY IDOCK:   -6.05 KCAL/MOL
REMARK 923 INTER-LIGAND FREE ENERGY PREDICTED BY IDOCK:   -5.42 KCAL/MOL
REMARK 924 INTRA-LIGAND FREE ENERGY PREDICTED BY IDOCK:   -0.63 KCAL/MOL
REMARK 927      BINDING AFFINITY PREDICTED BY RF-SCORE:    0.00 PKD
ROOT
HETATM    1  C   UNL     1     -10.674   7.208  69.326  1.00  0.00    -0.215 C  
HETATM    2  C   UNL     1     -11.623   7.982  70.253  1.00  0.00    -0.003 C  
HETATM    3  C   UNL     1     -10.724   8.716  71.237  1.00  0.00    -0.322 C  
HETATM    4  C   UNL     1      -9.288   8.351  70.835  1.00  0.00    -0.166 C  
HETATM    5  C   UNL     1      -8.762   9.354  69.807  1.00  0.00    -0.189 C  
HETATM    6  N   UNL     1      -9.420   6.942  70.201  1.00  0.00    -0.162 N  
HETATM    7  C   UNL     1      -9.388   9.261  68.403  1.00  0.00    -0.138 C  
HETATM    8  C   UNL     1      -9.750   5.892  71.291  1.00  0.00    -0.173 C  
HETATM    9  C   UNL     1     -10.320   8.073  68.116  1.00  0.00    -0.250 C  
ENDROOT
BRANCH   6  10
HETATM   10  C   UNL     1      -8.144   6.463  69.409  1.00  0.00    -0.118 C  
HETATM   11  C   UNL     1      -8.408   5.173  68.630  1.00  0.00    -0.088 C  
HETATM   12  C   UNL     1      -6.924   6.310  70.323  1.00  0.00    -0.062 C  
ENDBRANCH   6  10
BRANCH   7  13
HETATM   13  O   UNL     1     -10.090  10.486  68.117  1.00  0.00    -0.152 OA 
BRANCH  13  14
HETATM   14  C   UNL     1      -9.303  11.460  67.547  1.00  0.00    -0.164 C  
HETATM   15  C   UNL     1     -10.085  12.748  67.371  1.00  0.00    -0.219 C  
HETATM   16  O   UNL     1      -8.142  11.279  67.200  1.00  0.00    -0.137 OA 
HETATM   17  C   UNL     1      -9.143  13.937  67.597  1.00  0.00    -0.197 C  
HETATM   18  C   UNL     1     -10.765  12.782  66.016  1.00  0.00    -0.295 A  
HETATM   19  C   UNL     1     -12.163  12.854  65.932  1.00  0.00    -0.469 A  
HETATM   20  O   UNL     1      -8.696  13.944  68.954  1.00  0.00    -0.357 OA 
HETATM   21  H   UNL     1      -8.112  14.681  69.094  1.00  0.00     0.000 HD 
HETATM   22  C   UNL     1     -12.801  12.852  64.690  1.00  0.00    -0.323 A  
HETATM   23  C   UNL     1     -12.050  12.777  63.519  1.00  0.00    -0.642 A  
HETATM   24  C   UNL     1     -10.661  12.709  63.587  1.00  0.00    -0.410 A  
HETATM   25  C   UNL     1     -10.021  12.713  64.827  1.00  0.00    -0.164 A  
ENDBRANCH  13  14
ENDBRANCH   7  13
TORSDOF 3
ENDMDL
MODEL       94
REMARK 921   NORMALIZED FREE ENERGY PREDICTED BY IDOCK:   -4.23 KCAL/MOL
REMARK 922        TOTAL FREE ENERGY PREDICTED BY IDOCK:   -6.04 KCAL/MOL
REMARK 923 INTER-LIGAND FREE ENERGY PREDICTED BY IDOCK:   -4.90 KCAL/MOL
REMARK 924 INTRA-LIGAND FREE ENERGY PREDICTED BY IDOCK:   -1.14 KCAL/MOL
REMARK 927      BINDING AFFINITY PREDICTED BY RF-SCORE:    0.00 PKD
ROOT
HETATM    1  C   UNL     1      -9.950   8.913  71.081  1.00  0.00    -0.272 C  
HETATM    2  C   UNL     1      -8.649   8.113  71.234  1.00  0.00    -0.162 C  
HETATM    3  C   UNL     1      -9.056   6.650  71.138  1.00  0.00    -0.152 C  
HETATM    4  C   UNL     1     -10.576   6.658  70.919  1.00  0.00    -0.224 C  
HETATM    5  C   UNL     1     -10.888   6.708  69.422  1.00  0.00    -0.340 C  
HETATM    6  N   UNL     1     -11.051   7.959  71.617  1.00  0.00    -0.239 N  
HETATM    7  C   UNL     1     -10.581   8.045  68.722  1.00  0.00    -0.118 C  
HETATM    8  C   UNL     1     -10.925   7.819  73.154  1.00  0.00    -0.310 C  
HETATM    9  C   UNL     1     -10.183   9.237  69.606  1.00  0.00    -0.219 C  
ENDROOT
BRANCH   6  10
HETATM   10  C   UNL     1     -12.529   8.382  71.268  1.00  0.00    -0.244 C  
HETATM   11  C   UNL     1     -12.913   9.706  71.931  1.00  0.00    -0.527 C  
HETATM   12  C   UNL     1     -13.538   7.282  71.614  1.00  0.00    -0.435 C  
ENDBRANCH   6  10
BRANCH   7  13
HETATM   13  O   UNL     1      -9.558   7.834  67.730  1.00  0.00    -0.141 OA 
BRANCH  13  14
HETATM   14  C   UNL     1      -9.561   8.767  66.718  1.00  0.00    -0.206 C  
HETATM   15  C   UNL     1      -8.143   9.115  66.304  1.00  0.00    -0.111 C  
HETATM   16  O   UNL     1     -10.581   9.264  66.255  1.00  0.00    -0.105 OA 
HETATM   17  C   UNL     1      -8.116   9.372  64.792  1.00  0.00    -0.131 C  
HETATM   18  C   UNL     1      -7.620  10.285  67.114  1.00  0.00    -0.092 A  
HETATM   19  C   UNL     1      -6.494  10.126  67.934  1.00  0.00    -0.062 A  
HETATM   20  O   UNL     1      -8.433   8.167  64.094  1.00  0.00    -0.372 OA 
HETATM   21  H   UNL     1      -8.415   8.327  63.158  1.00  0.00     0.000 HD 
HETATM   22  C   UNL     1      -6.024  11.188  68.709  1.00  0.00    -0.043 A  
HETATM   23  C   UNL     1      -6.674  12.420  68.674  1.00  0.00    -0.083 A  
HETATM   24  C   UNL     1      -7.791  12.594  67.861  1.00  0.00    -0.154 A  
HETATM   25  C   UNL     1      -8.261  11.535  67.083  1.00  0.00    -0.161 A  
ENDBRANCH  13  14
ENDBRANCH   7  13
TORSDOF 3
ENDMDL
MODEL       95
REMARK 921   NORMALIZED FREE ENERGY PREDICTED BY IDOCK:   -4.23 KCAL/MOL
REMARK 922        TOTAL FREE ENERGY PREDICTED BY IDOCK:   -6.04 KCAL/MOL
REMARK 923 INTER-LIGAND FREE ENERGY PREDICTED BY IDOCK:   -4.94 KCAL/MOL
REMARK 924 INTRA-LIGAND FREE ENERGY PREDICTED BY IDOCK:   -1.10 KCAL/MOL
REMARK 927      BINDING AFFINITY PREDICTED BY RF-SCORE:    0.00 PKD
ROOT
HETATM    1  C   UNL     1      -9.440   7.653  71.469  1.00  0.00    -0.143 C  
HETATM    2  C   UNL     1      -8.546   6.456  71.824  1.00  0.00    -0.128 C  
HETATM    3  C   UNL     1      -9.438   5.230  71.702  1.00  0.00    -0.187 C  
HETATM    4  C   UNL     1     -10.812   5.761  71.268  1.00  0.00    -0.247 C  
HETATM    5  C   UNL     1     -10.895   5.810  69.741  1.00  0.00    -0.419 C  
HETATM    6  N   UNL     1     -10.869   7.191  71.863  1.00  0.00    -0.224 N  
HETATM    7  C   UNL     1     -10.041   6.898  69.063  1.00  0.00    -0.170 C  
HETATM    8  C   UNL     1     -10.995   7.127  73.405  1.00  0.00    -0.236 C  
HETATM    9  C   UNL     1      -9.353   7.932  69.968  1.00  0.00    -0.157 C  
ENDROOT
BRANCH   6  10
HETATM   10  C   UNL     1     -12.038   8.084  71.298  1.00  0.00    -0.291 C  
HETATM   11  C   UNL     1     -11.922   9.537  71.764  1.00  0.00    -0.443 C  
HETATM   12  C   UNL     1     -13.417   7.509  71.637  1.00  0.00    -0.429 C  
ENDBRANCH   6  10
BRANCH   7  13
HETATM   13  O   UNL     1      -9.047   6.268  68.233  1.00  0.00    -0.116 OA 
BRANCH  13  14
HETATM   14  C   UNL     1      -9.276   6.408  66.883  1.00  0.00    -0.135 C  
HETATM   15  C   UNL     1      -8.193   7.253  66.239  1.00  0.00    -0.123 C  
HETATM   16  O   UNL     1     -10.250   5.938  66.307  1.00  0.00    -0.128 OA 
HETATM   17  C   UNL     1      -7.922   6.721  64.826  1.00  0.00    -0.120 C  
HETATM   18  C   UNL     1      -8.576   8.720  66.257  1.00  0.00    -0.144 A  
HETATM   19  C   UNL     1      -7.780   9.647  66.945  1.00  0.00    -0.098 A  
HETATM   20  O   UNL     1      -7.381   5.402  64.905  1.00  0.00    -0.064 OA 
HETATM   21  H   UNL     1      -7.213   5.073  64.030  1.00  0.00     0.000 HD 
HETATM   22  C   UNL     1      -8.142  10.995  66.995  1.00  0.00    -0.136 A  
HETATM   23  C   UNL     1      -9.302  11.430  66.358  1.00  0.00    -0.219 A  
HETATM   24  C   UNL     1     -10.100  10.523  65.667  1.00  0.00    -0.333 A  
HETATM   25  C   UNL     1      -9.739   9.175  65.614  1.00  0.00    -0.247 A  
ENDBRANCH  13  14
ENDBRANCH   7  13
TORSDOF 3
ENDMDL
MODEL       96
REMARK 921   NORMALIZED FREE ENERGY PREDICTED BY IDOCK:   -4.18 KCAL/MOL
REMARK 922        TOTAL FREE ENERGY PREDICTED BY IDOCK:   -5.99 KCAL/MOL
REMARK 923 INTER-LIGAND FREE ENERGY PREDICTED BY IDOCK:   -5.48 KCAL/MOL
REMARK 924 INTRA-LIGAND FREE ENERGY PREDICTED BY IDOCK:   -0.51 KCAL/MOL
REMARK 927      BINDING AFFINITY PREDICTED BY RF-SCORE:    0.00 PKD
ROOT
HETATM    1  C   UNL     1      -7.274   9.917  67.558  1.00  0.00    -0.089 C  
HETATM    2  C   UNL     1      -8.279   8.788  67.827  1.00  0.00    -0.111 C  
HETATM    3  C   UNL     1      -9.211   9.319  68.905  1.00  0.00    -0.143 C  
HETATM    4  C   UNL     1      -8.719  10.741  69.211  1.00  0.00    -0.030 C  
HETATM    5  C   UNL     1      -9.420  11.746  68.295  1.00  0.00    -0.193 C  
HETATM    6  N   UNL     1      -7.201  10.691  68.901  1.00  0.00    -0.082 N  
HETATM    7  C   UNL     1      -8.996  11.705  66.814  1.00  0.00    -0.189 C  
HETATM    8  C   UNL     1      -6.465   9.836  69.963  1.00  0.00    -0.074 C  
HETATM    9  C   UNL     1      -7.799  10.818  66.440  1.00  0.00    -0.148 C  
ENDROOT
BRANCH   6  10
HETATM   10  C   UNL     1      -6.506  12.103  68.821  1.00  0.00    -0.078 C  
HETATM   11  C   UNL     1      -5.148  12.031  68.120  1.00  0.00    -0.052 C  
HETATM   12  C   UNL     1      -6.376  12.759  70.200  1.00  0.00     0.062 C  
ENDBRANCH   6  10
BRANCH   7  13
HETATM   13  O   UNL     1     -10.129  11.328  66.009  1.00  0.00    -0.222 OA 
BRANCH  13  14
HETATM   14  C   UNL     1     -11.298  11.968  66.355  1.00  0.00    -0.354 C  
HETATM   15  C   UNL     1     -11.513  13.197  65.492  1.00  0.00    -0.343 C  
HETATM   16  O   UNL     1     -12.030  11.599  67.265  1.00  0.00    -0.627 OA 
HETATM   17  C   UNL     1     -13.016  13.363  65.229  1.00  0.00    -0.190 C  
HETATM   18  C   UNL     1     -10.886  14.419  66.133  1.00  0.00    -0.309 A  
HETATM   19  C   UNL     1      -9.862  15.113  65.472  1.00  0.00    -0.356 A  
HETATM   20  O   UNL     1     -13.491  12.262  64.453  1.00  0.00    -0.686 OA 
HETATM   21  H   UNL     1     -14.422  12.365  64.290  1.00  0.00     0.000 HD 
HETATM   22  C   UNL     1      -9.255  16.220  66.069  1.00  0.00    -0.351 A  
HETATM   23  C   UNL     1      -9.664  16.645  67.331  1.00  0.00    -0.251 A  
HETATM   24  C   UNL     1     -10.683  15.969  67.997  1.00  0.00    -0.309 A  
HETATM   25  C   UNL     1     -11.293  14.864  67.402  1.00  0.00    -0.354 A  
ENDBRANCH  13  14
ENDBRANCH   7  13
TORSDOF 3
ENDMDL
MODEL       97
REMARK 921   NORMALIZED FREE ENERGY PREDICTED BY IDOCK:   -4.16 KCAL/MOL
REMARK 922        TOTAL FREE ENERGY PREDICTED BY IDOCK:   -5.96 KCAL/MOL
REMARK 923 INTER-LIGAND FREE ENERGY PREDICTED BY IDOCK:   -4.96 KCAL/MOL
REMARK 924 INTRA-LIGAND FREE ENERGY PREDICTED BY IDOCK:   -1.00 KCAL/MOL
REMARK 927      BINDING AFFINITY PREDICTED BY RF-SCORE:    0.00 PKD
ROOT
HETATM    1  C   UNL     1     -11.491   6.847  71.068  1.00  0.00    -0.314 C  
HETATM    2  C   UNL     1     -12.496   7.925  71.497  1.00  0.00    -0.341 C  
HETATM    3  C   UNL     1     -11.673   8.999  72.191  1.00  0.00    -0.366 C  
HETATM    4  C   UNL     1     -10.219   8.510  72.127  1.00  0.00    -0.333 C  
HETATM    5  C   UNL     1      -9.554   9.013  70.844  1.00  0.00    -0.328 C  
HETATM    6  N   UNL     1     -10.341   6.965  72.104  1.00  0.00    -0.198 N  
HETATM    7  C   UNL     1     -10.041   8.356  69.539  1.00  0.00    -0.200 C  
HETATM    8  C   UNL     1     -10.819   6.445  73.483  1.00  0.00    -0.174 C  
HETATM    9  C   UNL     1     -10.984   7.149  69.658  1.00  0.00    -0.236 C  
ENDROOT
BRANCH   6  10
HETATM   10  C   UNL     1      -9.012   6.212  71.715  1.00  0.00    -0.141 C  
HETATM   11  C   UNL     1      -9.229   4.703  71.584  1.00  0.00    -0.183 C  
HETATM   12  C   UNL     1      -7.870   6.519  72.689  1.00  0.00    -0.103 C  
ENDBRANCH   6  10
BRANCH   7  13
HETATM   13  O   UNL     1     -10.662   9.356  68.710  1.00  0.00    -0.220 OA 
BRANCH  13  14
HETATM   14  C   UNL     1      -9.835   9.870  67.738  1.00  0.00    -0.155 C  
HETATM   15  C   UNL     1     -10.082   9.188  66.406  1.00  0.00    -0.345 C  
HETATM   16  O   UNL     1      -8.992  10.734  67.951  1.00  0.00    -0.135 OA 
HETATM   17  C   UNL     1      -9.902  10.214  65.280  1.00  0.00    -0.319 C  
HETATM   18  C   UNL     1      -9.187   7.974  66.250  1.00  0.00    -0.237 A  
HETATM   19  C   UNL     1      -9.750   6.698  66.106  1.00  0.00     0.030 A  
HETATM   20  O   UNL     1     -10.906  11.224  65.386  1.00  0.00    -0.261 OA 
HETATM   21  H   UNL     1     -10.795  11.860  64.688  1.00  0.00     0.000 HD 
HETATM   22  C   UNL     1      -8.933   5.571  65.995  1.00  0.00    -0.154 A  
HETATM   23  C   UNL     1      -7.547   5.706  66.027  1.00  0.00    -0.087 A  
HETATM   24  C   UNL     1      -6.974   6.967  66.165  1.00  0.00    -0.068 A  
HETATM   25  C   UNL     1      -7.787   8.096  66.274  1.00  0.00    -0.095 A  
ENDBRANCH  13  14
ENDBRANCH   7  13
TORSDOF 3
ENDMDL
MODEL       98
REMARK 921   NORMALIZED FREE ENERGY PREDICTED BY IDOCK:   -4.15 KCAL/MOL
REMARK 922        TOTAL FREE ENERGY PREDICTED BY IDOCK:   -5.95 KCAL/MOL
REMARK 923 INTER-LIGAND FREE ENERGY PREDICTED BY IDOCK:   -5.19 KCAL/MOL
REMARK 924 INTRA-LIGAND FREE ENERGY PREDICTED BY IDOCK:   -0.77 KCAL/MOL
REMARK 927      BINDING AFFINITY PREDICTED BY RF-SCORE:    0.00 PKD
ROOT
HETATM    1  C   UNL     1      -8.505   5.769  67.948  1.00  0.00    -0.103 C  
HETATM    2  C   UNL     1      -9.406   5.820  66.706  1.00  0.00    -0.140 C  
HETATM    3  C   UNL     1     -10.830   5.709  67.229  1.00  0.00    -0.217 C  
HETATM    4  C   UNL     1     -10.701   5.611  68.756  1.00  0.00    -0.197 C  
HETATM    5  C   UNL     1     -10.723   7.011  69.373  1.00  0.00    -0.259 C  
HETATM    6  N   UNL     1      -9.321   4.942  68.977  1.00  0.00    -0.119 N  
HETATM    7  C   UNL     1      -9.468   7.868  69.124  1.00  0.00    -0.155 C  
HETATM    8  C   UNL     1      -9.369   3.456  68.540  1.00  0.00    -0.168 C  
HETATM    9  C   UNL     1      -8.260   7.187  68.463  1.00  0.00    -0.125 C  
ENDROOT
BRANCH   6  10
HETATM   10  C   UNL     1      -8.793   5.014  70.460  1.00  0.00    -0.121 C  
HETATM   11  C   UNL     1      -7.373   4.459  70.587  1.00  0.00    -0.048 C  
HETATM   12  C   UNL     1      -9.742   4.319  71.443  1.00  0.00    -0.252 C  
ENDBRANCH   6  10
BRANCH   7  13
HETATM   13  O   UNL     1      -9.833   9.027  68.352  1.00  0.00    -0.157 OA 
BRANCH  13  14
HETATM   14  C   UNL     1     -10.278  10.086  69.110  1.00  0.00    -0.210 C  
HETATM   15  C   UNL     1     -11.408  10.813  68.406  1.00  0.00    -0.367 C  
HETATM   16  O   UNL     1      -9.787  10.405  70.186  1.00  0.00    -0.059 OA 
HETATM   17  C   UNL     1     -12.408  11.313  69.456  1.00  0.00    -0.175 C  
HETATM   18  C   UNL     1     -10.867  11.924  67.528  1.00  0.00    -0.283 A  
HETATM   19  C   UNL     1     -11.086  11.897  66.143  1.00  0.00    -0.374 A  
HETATM   20  O   UNL     1     -13.018  10.198  70.108  1.00  0.00    -0.580 OA 
HETATM   21  H   UNL     1     -13.638  10.508  70.759  1.00  0.00     0.000 HD 
HETATM   22  C   UNL     1     -10.563  12.898  65.322  1.00  0.00    -0.316 A  
HETATM   23  C   UNL     1      -9.816  13.936  65.874  1.00  0.00    -0.287 A  
HETATM   24  C   UNL     1      -9.595  13.979  67.248  1.00  0.00    -0.238 A  
HETATM   25  C   UNL     1     -10.118  12.981  68.071  1.00  0.00    -0.235 A  
ENDBRANCH  13  14
ENDBRANCH   7  13
TORSDOF 3
ENDMDL
MODEL       99
REMARK 921   NORMALIZED FREE ENERGY PREDICTED BY IDOCK:   -4.12 KCAL/MOL
REMARK 922        TOTAL FREE ENERGY PREDICTED BY IDOCK:   -5.92 KCAL/MOL
REMARK 923 INTER-LIGAND FREE ENERGY PREDICTED BY IDOCK:   -5.14 KCAL/MOL
REMARK 924 INTRA-LIGAND FREE ENERGY PREDICTED BY IDOCK:   -0.78 KCAL/MOL
REMARK 927      BINDING AFFINITY PREDICTED BY RF-SCORE:    0.00 PKD
ROOT
HETATM    1  C   UNL     1     -11.726  13.818  67.349  1.00  0.00    -0.382 C  
HETATM    2  C   UNL     1     -11.657  13.481  65.853  1.00  0.00    -0.359 C  
HETATM    3  C   UNL     1     -10.177  13.478  65.503  1.00  0.00    -0.308 C  
HETATM    4  C   UNL     1      -9.443  13.801  66.812  1.00  0.00    -0.275 C  
HETATM    5  C   UNL     1      -9.131  12.509  67.569  1.00  0.00    -0.187 C  
HETATM    6  N   UNL     1     -10.452  14.667  67.608  1.00  0.00    -0.242 N  
HETATM    7  C   UNL     1     -10.344  11.795  68.195  1.00  0.00    -0.200 C  
HETATM    8  C   UNL     1     -10.604  16.059  66.945  1.00  0.00    -0.300 C  
HETATM    9  C   UNL     1     -11.694  12.528  68.169  1.00  0.00    -0.400 C  
ENDROOT
BRANCH   6  10
HETATM   10  C   UNL     1     -10.081  14.869  69.126  1.00  0.00    -0.226 C  
HETATM   11  C   UNL     1     -11.241  15.474  69.920  1.00  0.00    -0.322 C  
HETATM   12  C   UNL     1      -8.806  15.700  69.301  1.00  0.00    -0.264 C  
ENDBRANCH   6  10
BRANCH   7  13
HETATM   13  O   UNL     1     -10.501  10.503  67.578  1.00  0.00    -0.208 OA 
BRANCH  13  14
HETATM   14  C   UNL     1     -10.139   9.450  68.387  1.00  0.00    -0.185 C  
HETATM   15  C   UNL     1      -8.635   9.254  68.374  1.00  0.00    -0.124 C  
HETATM   16  O   UNL     1     -10.943   8.754  68.996  1.00  0.00    -0.089 OA 
HETATM   17  C   UNL     1      -8.180   8.799  69.767  1.00  0.00    -0.117 C  
HETATM   18  C   UNL     1      -8.228   8.293  67.275  1.00  0.00    -0.120 A  
HETATM   19  C   UNL     1      -7.382   8.722  66.242  1.00  0.00    -0.087 A  
HETATM   20  O   UNL     1      -8.423   9.839  70.715  1.00  0.00    -0.365 OA 
HETATM   21  H   UNL     1      -8.141   9.557  71.578  1.00  0.00     0.000 HD 
HETATM   22  C   UNL     1      -7.029   7.853  65.207  1.00  0.00    -0.059 A  
HETATM   23  C   UNL     1      -7.516   6.548  65.193  1.00  0.00    -0.083 A  
HETATM   24  C   UNL     1      -8.353   6.107  66.214  1.00  0.00    -0.124 A  
HETATM   25  C   UNL     1      -8.706   6.972  67.251  1.00  0.00    -0.120 A  
ENDBRANCH  13  14
ENDBRANCH   7  13
TORSDOF 3
ENDMDL
MODEL      100
REMARK 921   NORMALIZED FREE ENERGY PREDICTED BY IDOCK:   -4.11 KCAL/MOL
REMARK 922        TOTAL FREE ENERGY PREDICTED BY IDOCK:   -5.91 KCAL/MOL
REMARK 923 INTER-LIGAND FREE ENERGY PREDICTED BY IDOCK:   -4.81 KCAL/MOL
REMARK 924 INTRA-LIGAND FREE ENERGY PREDICTED BY IDOCK:   -1.10 KCAL/MOL
REMARK 927      BINDING AFFINITY PREDICTED BY RF-SCORE:    0.00 PKD
ROOT
HETATM    1  C   UNL     1      -8.216  10.094  67.405  1.00  0.00    -0.114 C  
HETATM    2  C   UNL     1      -9.212  11.260  67.322  1.00  0.00    -0.170 C  
HETATM    3  C   UNL     1     -10.354  10.760  66.450  1.00  0.00    -0.306 C  
HETATM    4  C   UNL     1      -9.983   9.318  66.072  1.00  0.00    -0.255 C  
HETATM    5  C   UNL     1     -10.531   8.346  67.119  1.00  0.00    -0.380 C  
HETATM    6  N   UNL     1      -8.433   9.312  66.082  1.00  0.00    -0.125 N  
HETATM    7  C   UNL     1      -9.828   8.377  68.488  1.00  0.00    -0.173 C  
HETATM    8  C   UNL     1      -7.886  10.133  64.889  1.00  0.00    -0.147 C  
HETATM    9  C   UNL     1      -8.549   9.220  68.614  1.00  0.00    -0.127 C  
ENDROOT
BRANCH   6  10
HETATM   10  C   UNL     1      -7.789   7.874  66.044  1.00  0.00    -0.095 C  
HETATM   11  C   UNL     1      -6.299   7.908  66.393  1.00  0.00    -0.046 C  
HETATM   12  C   UNL     1      -8.020   7.176  64.699  1.00  0.00    -0.114 C  
ENDBRANCH   6  10
BRANCH   7  13
HETATM   13  O   UNL     1     -10.769   8.801  69.492  1.00  0.00    -0.228 OA 
BRANCH  13  14
HETATM   14  C   UNL     1     -11.080   7.827  70.414  1.00  0.00    -0.251 C  
HETATM   15  C   UNL     1     -10.537   8.190  71.783  1.00  0.00    -0.313 C  
HETATM   16  O   UNL     1     -11.680   6.796  70.136  1.00  0.00    -0.357 OA 
HETATM   17  C   UNL     1     -11.519   7.699  72.854  1.00  0.00    -0.290 C  
HETATM   18  C   UNL     1      -9.136   7.642  71.968  1.00  0.00    -0.167 A  
HETATM   19  C   UNL     1      -8.061   8.515  72.189  1.00  0.00    -0.162 A  
HETATM   20  O   UNL     1     -12.755   8.404  72.733  1.00  0.00    -0.618 OA 
HETATM   21  H   UNL     1     -13.364   8.100  73.396  1.00  0.00     0.000 HD 
HETATM   22  C   UNL     1      -6.762   8.022  72.327  1.00  0.00    -0.072 A  
HETATM   23  C   UNL     1      -6.523   6.652  72.246  1.00  0.00    -0.058 A  
HETATM   24  C   UNL     1      -7.581   5.772  72.033  1.00  0.00    -0.101 A  
HETATM   25  C   UNL     1      -8.880   6.262  71.897  1.00  0.00    -0.139 A  
ENDBRANCH  13  14
ENDBRANCH   7  13
TORSDOF 3
ENDMDL
MODEL      101
REMARK 921   NORMALIZED FREE ENERGY PREDICTED BY IDOCK:   -4.11 KCAL/MOL
REMARK 922        TOTAL FREE ENERGY PREDICTED BY IDOCK:   -5.91 KCAL/MOL
REMARK 923 INTER-LIGAND FREE ENERGY PREDICTED BY IDOCK:   -5.17 KCAL/MOL
REMARK 924 INTRA-LIGAND FREE ENERGY PREDICTED BY IDOCK:   -0.74 KCAL/MOL
REMARK 927      BINDING AFFINITY PREDICTED BY RF-SCORE:    0.00 PKD
ROOT
HETATM    1  C   UNL     1     -10.070  16.742  68.008  1.00  0.00    -0.284 C  
HETATM    2  C   UNL     1     -10.600  15.926  66.820  1.00  0.00    -0.309 C  
HETATM    3  C   UNL     1      -9.968  16.546  65.583  1.00  0.00    -0.234 C  
HETATM    4  C   UNL     1      -9.085  17.690  66.101  1.00  0.00    -0.118 C  
HETATM    5  C   UNL     1      -7.677  17.170  66.399  1.00  0.00    -0.345 C  
HETATM    6  N   UNL     1      -9.783  18.145  67.408  1.00  0.00    -0.289 N  
HETATM    7  C   UNL     1      -7.552  16.252  67.629  1.00  0.00    -0.141 C  
HETATM    8  C   UNL     1     -11.117  18.861  67.082  1.00  0.00    -0.010 C  
HETATM    9  C   UNL     1      -8.784  16.105  68.536  1.00  0.00    -0.200 C  
ENDROOT
BRANCH   6  10
HETATM   10  C   UNL     1      -8.911  19.093  68.316  1.00  0.00    -0.337 C  
HETATM   11  C   UNL     1      -9.736  19.726  69.438  1.00  0.00    -0.162 C  
HETATM   12  C   UNL     1      -8.186  20.167  67.497  1.00  0.00    -0.373 C  
ENDBRANCH   6  10
BRANCH   7  13
HETATM   13  O   UNL     1      -7.126  14.945  67.202  1.00  0.00    -0.197 OA 
BRANCH  13  14
HETATM   14  C   UNL     1      -7.331  13.957  68.137  1.00  0.00    -0.123 C  
HETATM   15  C   UNL     1      -7.718  12.653  67.466  1.00  0.00    -0.161 C  
HETATM   16  O   UNL     1      -7.244  14.137  69.346  1.00  0.00    -0.101 OA 
HETATM   17  C   UNL     1      -7.114  11.486  68.259  1.00  0.00    -0.080 C  
HETATM   18  C   UNL     1      -9.223  12.552  67.319  1.00  0.00    -0.190 A  
HETATM   19  C   UNL     1      -9.801  12.458  66.044  1.00  0.00    -0.268 A  
HETATM   20  O   UNL     1      -5.689  11.544  68.187  1.00  0.00    -0.046 OA 
HETATM   21  H   UNL     1      -5.315  10.822  68.678  1.00  0.00     0.000 HD 
HETATM   22  C   UNL     1     -11.189  12.399  65.897  1.00  0.00    -0.373 A  
HETATM   23  C   UNL     1     -12.013  12.432  67.019  1.00  0.00    -0.257 A  
HETATM   24  C   UNL     1     -11.454  12.520  68.291  1.00  0.00    -0.355 A  
HETATM   25  C   UNL     1     -10.067  12.578  68.442  1.00  0.00    -0.216 A  
ENDBRANCH  13  14
ENDBRANCH   7  13
TORSDOF 3
ENDMDL
MODEL      102
REMARK 921   NORMALIZED FREE ENERGY PREDICTED BY IDOCK:   -4.09 KCAL/MOL
REMARK 922        TOTAL FREE ENERGY PREDICTED BY IDOCK:   -5.89 KCAL/MOL
REMARK 923 INTER-LIGAND FREE ENERGY PREDICTED BY IDOCK:   -5.12 KCAL/MOL
REMARK 924 INTRA-LIGAND FREE ENERGY PREDICTED BY IDOCK:   -0.76 KCAL/MOL
REMARK 927      BINDING AFFINITY PREDICTED BY RF-SCORE:    0.00 PKD
ROOT
HETATM    1  C   UNL     1     -10.380   9.665  67.651  1.00  0.00    -0.237 C  
HETATM    2  C   UNL     1     -10.350   8.244  67.071  1.00  0.00    -0.393 C  
HETATM    3  C   UNL     1      -8.979   7.687  67.424  1.00  0.00    -0.130 C  
HETATM    4  C   UNL     1      -8.271   8.802  68.207  1.00  0.00    -0.118 C  
HETATM    5  C   UNL     1      -8.567   8.662  69.701  1.00  0.00    -0.131 C  
HETATM    6  N   UNL     1      -8.893  10.108  67.650  1.00  0.00    -0.125 N  
HETATM    7  C   UNL     1     -10.006   9.004  70.130  1.00  0.00    -0.189 C  
HETATM    8  C   UNL     1      -8.417  10.352  66.196  1.00  0.00    -0.147 C  
HETATM    9  C   UNL     1     -10.934   9.627  69.075  1.00  0.00    -0.161 C  
ENDROOT
BRANCH   6  10
HETATM   10  C   UNL     1      -8.579  11.395  68.505  1.00  0.00    -0.150 C  
HETATM   11  C   UNL     1      -9.293  12.632  67.956  1.00  0.00    -0.209 C  
HETATM   12  C   UNL     1      -7.073  11.645  68.637  1.00  0.00    -0.099 C  
ENDBRANCH   6  10
BRANCH   7  13
HETATM   13  O   UNL     1     -10.632   7.824  70.666  1.00  0.00    -0.215 OA 
BRANCH  13  14
HETATM   14  C   UNL     1     -10.590   7.744  72.039  1.00  0.00    -0.228 C  
HETATM   15  C   UNL     1      -9.401   6.918  72.494  1.00  0.00    -0.154 C  
HETATM   16  O   UNL     1     -11.430   8.248  72.776  1.00  0.00    -0.391 OA 
HETATM   17  C   UNL     1      -8.855   7.508  73.800  1.00  0.00    -0.234 C  
HETATM   18  C   UNL     1      -9.781   5.455  72.617  1.00  0.00    -0.173 A  
HETATM   19  C   UNL     1      -9.138   4.492  71.827  1.00  0.00    -0.164 A  
HETATM   20  O   UNL     1      -8.340   8.817  73.557  1.00  0.00    -0.357 OA 
HETATM   21  H   UNL     1      -8.001   9.183  74.366  1.00  0.00     0.000 HD 
HETATM   22  C   UNL     1      -9.504   3.147  71.909  1.00  0.00    -0.210 A  
HETATM   23  C   UNL     1     -10.515   2.750  72.781  1.00  0.00    -0.218 A  
HETATM   24  C   UNL     1     -11.159   3.694  73.576  1.00  0.00    -0.320 A  
HETATM   25  C   UNL     1     -10.794   5.039  73.497  1.00  0.00    -0.369 A  
ENDBRANCH  13  14
ENDBRANCH   7  13
TORSDOF 3
ENDMDL
MODEL      103
REMARK 921   NORMALIZED FREE ENERGY PREDICTED BY IDOCK:   -4.09 KCAL/MOL
REMARK 922        TOTAL FREE ENERGY PREDICTED BY IDOCK:   -5.88 KCAL/MOL
REMARK 923 INTER-LIGAND FREE ENERGY PREDICTED BY IDOCK:   -5.50 KCAL/MOL
REMARK 924 INTRA-LIGAND FREE ENERGY PREDICTED BY IDOCK:   -0.38 KCAL/MOL
REMARK 927      BINDING AFFINITY PREDICTED BY RF-SCORE:    0.00 PKD
ROOT
HETATM    1  C   UNL     1     -10.221  11.966  65.840  1.00  0.00    -0.236 C  
HETATM    2  C   UNL     1      -8.757  11.544  66.031  1.00  0.00    -0.095 C  
HETATM    3  C   UNL     1      -8.389  11.973  67.443  1.00  0.00    -0.171 C  
HETATM    4  C   UNL     1      -9.657  12.617  68.022  1.00  0.00    -0.213 C  
HETATM    5  C   UNL     1     -10.515  11.553  68.710  1.00  0.00    -0.227 C  
HETATM    6  N   UNL     1     -10.391  13.188  66.782  1.00  0.00    -0.250 N  
HETATM    7  C   UNL     1     -11.214  10.552  67.772  1.00  0.00    -0.273 C  
HETATM    8  C   UNL     1      -9.617  14.403  66.213  1.00  0.00    -0.298 C  
HETATM    9  C   UNL     1     -11.144  10.823  66.261  1.00  0.00     0.027 C  
ENDROOT
BRANCH   6  10
HETATM   10  C   UNL     1     -11.882  13.621  67.050  1.00  0.00    -0.408 C  
HETATM   11  C   UNL     1     -12.590  14.056  65.765  1.00  0.00    -0.512 C  
HETATM   12  C   UNL     1     -11.981  14.709  68.125  1.00  0.00    -0.281 C  
ENDBRANCH   6  10
BRANCH   7  13
HETATM   13  O   UNL     1     -10.709   9.228  68.034  1.00  0.00    -0.232 OA 
BRANCH  13  14
HETATM   14  C   UNL     1     -10.363   9.012  69.348  1.00  0.00    -0.213 C  
HETATM   15  C   UNL     1      -9.016   8.321  69.443  1.00  0.00    -0.147 C  
HETATM   16  O   UNL     1     -11.079   9.311  70.296  1.00  0.00    -0.243 OA 
HETATM   17  C   UNL     1      -8.276   8.843  70.681  1.00  0.00    -0.162 C  
HETATM   18  C   UNL     1      -9.185   6.815  69.445  1.00  0.00    -0.143 A  
HETATM   19  C   UNL     1      -8.618   6.041  68.422  1.00  0.00    -0.111 A  
HETATM   20  O   UNL     1      -7.982  10.231  70.515  1.00  0.00    -0.412 OA 
HETATM   21  H   UNL     1      -7.523  10.554  71.282  1.00  0.00     0.000 HD 
HETATM   22  C   UNL     1      -8.796   4.656  68.398  1.00  0.00    -0.124 A  
HETATM   23  C   UNL     1      -9.543   4.030  69.393  1.00  0.00    -0.257 A  
HETATM   24  C   UNL     1     -10.108   4.784  70.417  1.00  0.00    -0.301 A  
HETATM   25  C   UNL     1      -9.930   6.168  70.446  1.00  0.00    -0.223 A  
ENDBRANCH  13  14
ENDBRANCH   7  13
TORSDOF 3
ENDMDL
MODEL      104
REMARK 921   NORMALIZED FREE ENERGY PREDICTED BY IDOCK:   -4.08 KCAL/MOL
REMARK 922        TOTAL FREE ENERGY PREDICTED BY IDOCK:   -5.87 KCAL/MOL
REMARK 923 INTER-LIGAND FREE ENERGY PREDICTED BY IDOCK:   -5.06 KCAL/MOL
REMARK 924 INTRA-LIGAND FREE ENERGY PREDICTED BY IDOCK:   -0.81 KCAL/MOL
REMARK 927      BINDING AFFINITY PREDICTED BY RF-SCORE:    0.00 PKD
ROOT
HETATM    1  C   UNL     1     -10.814  11.009  66.010  1.00  0.00    -0.122 C  
HETATM    2  C   UNL     1      -9.738  10.185  65.290  1.00  0.00    -0.365 C  
HETATM    3  C   UNL     1      -8.408  10.785  65.719  1.00  0.00    -0.158 C  
HETATM    4  C   UNL     1      -8.763  11.928  66.682  1.00  0.00    -0.185 C  
HETATM    5  C   UNL     1      -8.837  11.398  68.116  1.00  0.00    -0.162 C  
HETATM    6  N   UNL     1     -10.159  12.403  66.206  1.00  0.00    -0.235 N  
HETATM    7  C   UNL     1     -10.043  10.494  68.430  1.00  0.00    -0.164 C  
HETATM    8  C   UNL     1     -10.042  13.127  64.841  1.00  0.00    -0.217 C  
HETATM    9  C   UNL     1     -11.137  10.367  67.359  1.00  0.00    -0.297 C  
ENDROOT
BRANCH   6  10
HETATM   10  C   UNL     1     -10.903  13.354  67.219  1.00  0.00    -0.269 C  
HETATM   11  C   UNL     1     -12.286  13.763  66.706  1.00  0.00    -0.440 C  
HETATM   12  C   UNL     1     -10.065  14.586  67.574  1.00  0.00    -0.228 C  
ENDBRANCH   6  10
BRANCH   7  13
HETATM   13  O   UNL     1      -9.569   9.178  68.774  1.00  0.00    -0.155 OA 
BRANCH  13  14
HETATM   14  C   UNL     1     -10.361   8.520  69.688  1.00  0.00    -0.218 C  
HETATM   15  C   UNL     1     -10.011   8.940  71.103  1.00  0.00    -0.342 C  
HETATM   16  O   UNL     1     -11.202   7.684  69.380  1.00  0.00    -0.047 OA 
HETATM   17  C   UNL     1     -11.292   8.962  71.946  1.00  0.00    -0.376 C  
HETATM   18  C   UNL     1      -8.937   8.039  71.680  1.00  0.00    -0.192 A  
HETATM   19  C   UNL     1      -7.700   8.575  72.065  1.00  0.00    -0.141 A  
HETATM   20  O   UNL     1     -12.174   9.972  71.455  1.00  0.00    -0.362 OA 
HETATM   21  H   UNL     1     -12.968   9.986  71.977  1.00  0.00     0.000 HD 
HETATM   22  C   UNL     1      -6.693   7.748  72.566  1.00  0.00    -0.067 A  
HETATM   23  C   UNL     1      -6.911   6.378  72.689  1.00  0.00    -0.069 A  
HETATM   24  C   UNL     1      -8.136   5.831  72.316  1.00  0.00    -0.107 A  
HETATM   25  C   UNL     1      -9.145   6.656  71.816  1.00  0.00    -0.144 A  
ENDBRANCH  13  14
ENDBRANCH   7  13
TORSDOF 3
ENDMDL
MODEL      105
REMARK 921   NORMALIZED FREE ENERGY PREDICTED BY IDOCK:   -4.07 KCAL/MOL
REMARK 922        TOTAL FREE ENERGY PREDICTED BY IDOCK:   -5.85 KCAL/MOL
REMARK 923 INTER-LIGAND FREE ENERGY PREDICTED BY IDOCK:   -5.17 KCAL/MOL
REMARK 924 INTRA-LIGAND FREE ENERGY PREDICTED BY IDOCK:   -0.69 KCAL/MOL
REMARK 927      BINDING AFFINITY PREDICTED BY RF-SCORE:    0.00 PKD
ROOT
HETATM    1  C   UNL     1      -9.904   8.905  71.823  1.00  0.00    -0.315 C  
HETATM    2  C   UNL     1      -8.526   8.239  71.942  1.00  0.00    -0.214 C  
HETATM    3  C   UNL     1      -8.688   6.853  71.335  1.00  0.00    -0.126 C  
HETATM    4  C   UNL     1     -10.151   6.773  70.875  1.00  0.00    -0.190 C  
HETATM    5  C   UNL     1     -10.274   7.275  69.435  1.00  0.00    -0.193 C  
HETATM    6  N   UNL     1     -10.905   7.718  71.846  1.00  0.00    -0.227 N  
HETATM    7  C   UNL     1     -10.089   8.791  69.240  1.00  0.00    -0.204 C  
HETATM    8  C   UNL     1     -10.956   7.100  73.265  1.00  0.00    -0.286 C  
HETATM    9  C   UNL     1      -9.994   9.666  70.500  1.00  0.00    -0.318 C  
ENDROOT
BRANCH   6  10
HETATM   10  C   UNL     1     -12.373   8.074  71.398  1.00  0.00    -0.306 C  
HETATM   11  C   UNL     1     -12.917   9.293  72.146  1.00  0.00    -0.503 C  
HETATM   12  C   UNL     1     -13.322   6.879  71.535  1.00  0.00    -0.303 C  
ENDBRANCH   6  10
BRANCH   7  13
HETATM   13  O   UNL     1      -8.928   9.023  68.420  1.00  0.00    -0.133 OA 
BRANCH  13  14
HETATM   14  C   UNL     1      -8.995  10.174  67.669  1.00  0.00    -0.131 C  
HETATM   15  C   UNL     1      -9.644   9.902  66.325  1.00  0.00    -0.265 C  
HETATM   16  O   UNL     1      -8.550  11.254  68.039  1.00  0.00    -0.129 OA 
HETATM   17  C   UNL     1     -10.476  11.124  65.917  1.00  0.00    -0.253 C  
HETATM   18  C   UNL     1      -8.601   9.523  65.292  1.00  0.00    -0.175 A  
HETATM   19  C   UNL     1      -8.646   8.265  64.674  1.00  0.00    -0.005 A  
HETATM   20  O   UNL     1     -11.556  11.299  66.835  1.00  0.00    -0.464 OA 
HETATM   21  H   UNL     1     -12.071  12.056  66.581  1.00  0.00     0.000 HD 
HETATM   22  C   UNL     1      -7.670   7.895  63.747  1.00  0.00    -0.135 A  
HETATM   23  C   UNL     1      -6.640   8.776  63.426  1.00  0.00    -0.089 A  
HETATM   24  C   UNL     1      -6.585  10.030  64.028  1.00  0.00    -0.130 A  
HETATM   25  C   UNL     1      -7.560  10.404  64.954  1.00  0.00    -0.074 A  
ENDBRANCH  13  14
ENDBRANCH   7  13
TORSDOF 3
ENDMDL
MODEL      106
REMARK 921   NORMALIZED FREE ENERGY PREDICTED BY IDOCK:   -4.06 KCAL/MOL
REMARK 922        TOTAL FREE ENERGY PREDICTED BY IDOCK:   -5.85 KCAL/MOL
REMARK 923 INTER-LIGAND FREE ENERGY PREDICTED BY IDOCK:   -4.79 KCAL/MOL
REMARK 924 INTRA-LIGAND FREE ENERGY PREDICTED BY IDOCK:   -1.06 KCAL/MOL
REMARK 927      BINDING AFFINITY PREDICTED BY RF-SCORE:    0.00 PKD
ROOT
HETATM    1  C   UNL     1      -8.676  13.893  67.178  1.00  0.00    -0.221 C  
HETATM    2  C   UNL     1      -7.741  13.628  68.366  1.00  0.00    -0.138 C  
HETATM    3  C   UNL     1      -8.032  14.732  69.370  1.00  0.00    -0.065 C  
HETATM    4  C   UNL     1      -9.136  15.589  68.732  1.00  0.00    -0.207 C  
HETATM    5  C   UNL     1     -10.511  15.047  69.126  1.00  0.00    -0.247 C  
HETATM    6  N   UNL     1      -8.905  15.428  67.208  1.00  0.00    -0.185 N  
HETATM    7  C   UNL     1     -10.908  13.704  68.484  1.00  0.00    -0.257 C  
HETATM    8  C   UNL     1      -7.610  16.162  66.781  1.00  0.00    -0.233 C  
HETATM    9  C   UNL     1      -9.993  13.143  67.384  1.00  0.00    -0.229 C  
ENDROOT
BRANCH   6  10
HETATM   10  C   UNL     1     -10.095  15.943  66.311  1.00  0.00    -0.301 C  
HETATM   11  C   UNL     1     -10.038  15.358  64.898  1.00  0.00    -0.059 C  
HETATM   12  C   UNL     1     -10.163  17.473  66.269  1.00  0.00    -0.356 C  
ENDBRANCH   6  10
BRANCH   7  13
HETATM   13  O   UNL     1     -11.060  12.713  69.517  1.00  0.00    -0.129 OA 
BRANCH  13  14
HETATM   14  C   UNL     1     -11.520  11.499  69.063  1.00  0.00    -0.291 C  
HETATM   15  C   UNL     1     -10.831  10.358  69.788  1.00  0.00    -0.342 C  
HETATM   16  O   UNL     1     -12.346  11.377  68.167  1.00  0.00    -0.502 OA 
HETATM   17  C   UNL     1     -11.831   9.210  69.973  1.00  0.00     0.258 C  
HETATM   18  C   UNL     1      -9.575   9.935  69.051  1.00  0.00    -0.188 A  
HETATM   19  C   UNL     1      -8.324  10.035  69.678  1.00  0.00    -0.188 A  
HETATM   20  O   UNL     1     -12.888   9.629  70.838  1.00  0.00    -0.478 OA 
HETATM   21  H   UNL     1     -13.508   8.917  70.953  1.00  0.00     0.000 HD 
HETATM   22  C   UNL     1      -7.158   9.680  68.996  1.00  0.00    -0.066 A  
HETATM   23  C   UNL     1      -7.229   9.222  67.682  1.00  0.00    -0.083 A  
HETATM   24  C   UNL     1      -8.464   9.113  67.049  1.00  0.00    -0.123 A  
HETATM   25  C   UNL     1      -9.631   9.465  67.729  1.00  0.00    -0.158 A  
ENDBRANCH  13  14
ENDBRANCH   7  13
TORSDOF 3
ENDMDL
MODEL      107
REMARK 921   NORMALIZED FREE ENERGY PREDICTED BY IDOCK:   -4.04 KCAL/MOL
REMARK 922        TOTAL FREE ENERGY PREDICTED BY IDOCK:   -5.83 KCAL/MOL
REMARK 923 INTER-LIGAND FREE ENERGY PREDICTED BY IDOCK:   -5.13 KCAL/MOL
REMARK 924 INTRA-LIGAND FREE ENERGY PREDICTED BY IDOCK:   -0.70 KCAL/MOL
REMARK 927      BINDING AFFINITY PREDICTED BY RF-SCORE:    0.00 PKD
ROOT
HETATM    1  C   UNL     1      -8.785  10.865  67.462  1.00  0.00    -0.130 C  
HETATM    2  C   UNL     1      -9.118  11.258  66.016  1.00  0.00    -0.221 C  
HETATM    3  C   UNL     1     -10.584  11.665  66.031  1.00  0.00    -0.303 C  
HETATM    4  C   UNL     1     -11.041  11.506  67.488  1.00  0.00    -0.272 C  
HETATM    5  C   UNL     1     -10.807  12.809  68.255  1.00  0.00    -0.270 C  
HETATM    6  N   UNL     1     -10.138  10.377  68.046  1.00  0.00    -0.158 N  
HETATM    7  C   UNL     1      -9.335  13.154  68.548  1.00  0.00    -0.085 C  
HETATM    8  C   UNL     1     -10.525   9.017  67.412  1.00  0.00    -0.269 C  
HETATM    9  C   UNL     1      -8.276  12.089  68.223  1.00  0.00    -0.161 C  
ENDROOT
BRANCH   6  10
HETATM   10  C   UNL     1     -10.174  10.230  69.615  1.00  0.00    -0.235 C  
HETATM   11  C   UNL     1      -9.310   9.064  70.098  1.00  0.00    -0.213 C  
HETATM   12  C   UNL     1     -11.606  10.109  70.148  1.00  0.00    -0.350 C  
ENDBRANCH   6  10
BRANCH   7  13
HETATM   13  O   UNL     1      -8.993  14.377  67.870  1.00  0.00    -0.174 OA 
BRANCH  13  14
HETATM   14  C   UNL     1      -9.143  15.505  68.643  1.00  0.00    -0.202 C  
HETATM   15  C   UNL     1      -9.433  16.717  67.777  1.00  0.00    -0.227 C  
HETATM   16  O   UNL     1      -9.017  15.515  69.862  1.00  0.00    -0.172 OA 
HETATM   17  C   UNL     1     -10.399  17.644  68.525  1.00  0.00    -0.370 C  
HETATM   18  C   UNL     1      -8.146  17.406  67.370  1.00  0.00    -0.213 A  
HETATM   19  C   UNL     1      -7.801  17.511  66.015  1.00  0.00    -0.213 A  
HETATM   20  O   UNL     1     -11.656  16.989  68.699  1.00  0.00    -0.003 OA 
HETATM   21  H   UNL     1     -12.254  17.564  69.163  1.00  0.00     0.000 HD 
HETATM   22  C   UNL     1      -6.601  18.114  65.632  1.00  0.00    -0.277 A  
HETATM   23  C   UNL     1      -5.734  18.619  66.598  1.00  0.00    -0.171 A  
HETATM   24  C   UNL     1      -6.064  18.526  67.947  1.00  0.00    -0.187 A  
HETATM   25  C   UNL     1      -7.264  17.925  68.333  1.00  0.00    -0.256 A  
ENDBRANCH  13  14
ENDBRANCH   7  13
TORSDOF 3
ENDMDL
MODEL      108
REMARK 921   NORMALIZED FREE ENERGY PREDICTED BY IDOCK:   -4.03 KCAL/MOL
REMARK 922        TOTAL FREE ENERGY PREDICTED BY IDOCK:   -5.81 KCAL/MOL
REMARK 923 INTER-LIGAND FREE ENERGY PREDICTED BY IDOCK:   -4.83 KCAL/MOL
REMARK 924 INTRA-LIGAND FREE ENERGY PREDICTED BY IDOCK:   -0.99 KCAL/MOL
REMARK 927      BINDING AFFINITY PREDICTED BY RF-SCORE:    0.00 PKD
ROOT
HETATM    1  C   UNL     1      -9.303   8.655  71.959  1.00  0.00    -0.292 C  
HETATM    2  C   UNL     1      -8.025   7.910  72.371  1.00  0.00    -0.151 C  
HETATM    3  C   UNL     1      -8.293   6.443  72.073  1.00  0.00    -0.109 C  
HETATM    4  C   UNL     1      -9.711   6.394  71.486  1.00  0.00    -0.168 C  
HETATM    5  C   UNL     1      -9.653   6.557  69.965  1.00  0.00    -0.169 C  
HETATM    6  N   UNL     1     -10.431   7.603  72.135  1.00  0.00    -0.211 N  
HETATM    7  C   UNL     1      -9.280   7.963  69.460  1.00  0.00    -0.152 C  
HETATM    8  C   UNL     1     -10.673   7.338  73.642  1.00  0.00    -0.236 C  
HETATM    9  C   UNL     1      -9.193   9.093  70.498  1.00  0.00    -0.286 C  
ENDROOT
BRANCH   6  10
HETATM   10  C   UNL     1     -11.806   7.980  71.463  1.00  0.00    -0.292 C  
HETATM   11  C   UNL     1     -12.366   9.294  72.009  1.00  0.00    -0.433 C  
HETATM   12  C   UNL     1     -12.835   6.852  71.587  1.00  0.00    -0.383 C  
ENDBRANCH   6  10
BRANCH   7  13
HETATM   13  O   UNL     1      -8.035   7.891  68.741  1.00  0.00    -0.119 OA 
BRANCH  13  14
HETATM   14  C   UNL     1      -8.101   8.383  67.458  1.00  0.00    -0.110 C  
HETATM   15  C   UNL     1      -9.419   8.009  66.806  1.00  0.00    -0.259 C  
HETATM   16  O   UNL     1      -7.192   9.004  66.920  1.00  0.00    -0.084 OA 
HETATM   17  C   UNL     1      -9.865   9.156  65.890  1.00  0.00    -0.235 C  
HETATM   18  C   UNL     1      -9.302   6.683  66.080  1.00  0.00    -0.097 A  
HETATM   19  C   UNL     1     -10.097   5.595  66.469  1.00  0.00    -0.225 A  
HETATM   20  O   UNL     1     -10.142  10.317  66.674  1.00  0.00    -0.206 OA 
HETATM   21  H   UNL     1     -10.419  11.027  66.107  1.00  0.00     0.000 HD 
HETATM   22  C   UNL     1      -9.971   4.360  65.829  1.00  0.00    -0.251 A  
HETATM   23  C   UNL     1      -9.052   4.199  64.795  1.00  0.00    -0.145 A  
HETATM   24  C   UNL     1      -8.259   5.272  64.395  1.00  0.00    -0.135 A  
HETATM   25  C   UNL     1      -8.384   6.508  65.032  1.00  0.00    -0.076 A  
ENDBRANCH  13  14
ENDBRANCH   7  13
TORSDOF 3
ENDMDL
MODEL      109
REMARK 921   NORMALIZED FREE ENERGY PREDICTED BY IDOCK:   -4.02 KCAL/MOL
REMARK 922        TOTAL FREE ENERGY PREDICTED BY IDOCK:   -5.80 KCAL/MOL
REMARK 923 INTER-LIGAND FREE ENERGY PREDICTED BY IDOCK:   -5.15 KCAL/MOL
REMARK 924 INTRA-LIGAND FREE ENERGY PREDICTED BY IDOCK:   -0.66 KCAL/MOL
REMARK 927      BINDING AFFINITY PREDICTED BY RF-SCORE:    0.00 PKD
ROOT
HETATM    1  C   UNL     1      -7.730   9.197  68.158  1.00  0.00    -0.092 C  
HETATM    2  C   UNL     1      -8.183   9.014  66.703  1.00  0.00    -0.118 C  
HETATM    3  C   UNL     1      -9.699   9.132  66.729  1.00  0.00    -0.271 C  
HETATM    4  C   UNL     1     -10.067   9.393  68.197  1.00  0.00    -0.181 C  
HETATM    5  C   UNL     1     -10.076  10.898  68.474  1.00  0.00    -0.193 C  
HETATM    6  N   UNL     1      -8.936   8.700  68.999  1.00  0.00    -0.141 N  
HETATM    7  C   UNL     1      -8.695  11.580  68.493  1.00  0.00    -0.138 C  
HETATM    8  C   UNL     1      -9.061   7.160  68.881  1.00  0.00    -0.131 C  
HETATM    9  C   UNL     1      -7.454  10.677  68.428  1.00  0.00    -0.093 C  
ENDROOT
BRANCH   6  10
HETATM   10  C   UNL     1      -8.891   9.086  70.526  1.00  0.00    -0.208 C  
HETATM   11  C   UNL     1      -7.770   8.353  71.266  1.00  0.00    -0.110 C  
HETATM   12  C   UNL     1     -10.240   8.863  71.216  1.00  0.00    -0.361 C  
ENDBRANCH   6  10
BRANCH   7  13
HETATM   13  O   UNL     1      -8.630  12.544  67.425  1.00  0.00    -0.168 OA 
BRANCH  13  14
HETATM   14  C   UNL     1      -8.917  13.831  67.817  1.00  0.00    -0.194 C  
HETATM   15  C   UNL     1     -10.417  14.039  67.922  1.00  0.00    -0.241 C  
HETATM   16  O   UNL     1      -8.064  14.689  68.011  1.00  0.00    -0.121 OA 
HETATM   17  C   UNL     1     -10.706  14.996  69.086  1.00  0.00    -0.249 C  
HETATM   18  C   UNL     1     -10.985  14.523  66.602  1.00  0.00    -0.321 A  
HETATM   19  C   UNL     1     -11.941  13.754  65.923  1.00  0.00    -0.433 A  
HETATM   20  O   UNL     1     -10.317  14.385  70.317  1.00  0.00    -0.213 OA 
HETATM   21  H   UNL     1     -10.497  14.978  71.038  1.00  0.00     0.000 HD 
HETATM   22  C   UNL     1     -12.445  14.175  64.691  1.00  0.00    -0.375 A  
HETATM   23  C   UNL     1     -12.001  15.368  64.125  1.00  0.00    -0.111 A  
HETATM   24  C   UNL     1     -11.056  16.144  64.789  1.00  0.00    -0.345 A  
HETATM   25  C   UNL     1     -10.551  15.727  66.022  1.00  0.00    -0.334 A  
ENDBRANCH  13  14
ENDBRANCH   7  13
TORSDOF 3
ENDMDL
MODEL      110
REMARK 921   NORMALIZED FREE ENERGY PREDICTED BY IDOCK:   -3.99 KCAL/MOL
REMARK 922        TOTAL FREE ENERGY PREDICTED BY IDOCK:   -5.76 KCAL/MOL
REMARK 923 INTER-LIGAND FREE ENERGY PREDICTED BY IDOCK:   -5.08 KCAL/MOL
REMARK 924 INTRA-LIGAND FREE ENERGY PREDICTED BY IDOCK:   -0.68 KCAL/MOL
REMARK 927      BINDING AFFINITY PREDICTED BY RF-SCORE:    0.00 PKD
ROOT
HETATM    1  C   UNL     1      -9.216  11.193  65.658  1.00  0.00    -0.218 C  
HETATM    2  C   UNL     1      -7.743  10.947  66.014  1.00  0.00    -0.107 C  
HETATM    3  C   UNL     1      -7.707  10.804  67.528  1.00  0.00    -0.105 C  
HETATM    4  C   UNL     1      -9.162  10.960  67.991  1.00  0.00    -0.156 C  
HETATM    5  C   UNL     1      -9.853   9.595  68.011  1.00  0.00    -0.175 C  
HETATM    6  N   UNL     1      -9.804  11.879  66.920  1.00  0.00    -0.200 N  
HETATM    7  C   UNL     1     -10.151   8.980  66.631  1.00  0.00    -0.285 C  
HETATM    8  C   UNL     1      -9.246  13.319  67.045  1.00  0.00    -0.237 C  
HETATM    9  C   UNL     1      -9.910   9.857  65.392  1.00  0.00    -0.384 C  
ENDROOT
BRANCH   6  10
HETATM   10  C   UNL     1     -11.378  11.941  66.974  1.00  0.00    -0.329 C  
HETATM   11  C   UNL     1     -11.959  12.704  65.783  1.00  0.00    -0.503 C  
HETATM   12  C   UNL     1     -11.885  12.523  68.298  1.00  0.00    -0.361 C  
ENDBRANCH   6  10
BRANCH   7  13
HETATM   13  O   UNL     1      -9.407   7.755  66.489  1.00  0.00    -0.172 OA 
BRANCH  13  14
HETATM   14  C   UNL     1     -10.103   6.631  66.869  1.00  0.00    -0.195 C  
HETATM   15  C   UNL     1      -9.218   5.401  66.800  1.00  0.00    -0.128 C  
HETATM   16  O   UNL     1     -11.288   6.639  67.181  1.00  0.00    -0.343 OA 
HETATM   17  C   UNL     1      -9.600   4.448  67.940  1.00  0.00    -0.152 C  
HETATM   18  C   UNL     1      -9.306   4.753  65.432  1.00  0.00    -0.161 A  
HETATM   19  C   UNL     1      -8.161   4.645  64.629  1.00  0.00    -0.113 A  
HETATM   20  O   UNL     1      -9.306   5.060  69.196  1.00  0.00    -0.108 OA 
HETATM   21  H   UNL     1      -9.542   4.470  69.902  1.00  0.00     0.000 HD 
HETATM   22  C   UNL     1      -8.239   4.081  63.354  1.00  0.00    -0.091 A  
HETATM   23  C   UNL     1      -9.460   3.618  62.868  1.00  0.00    -0.105 A  
HETATM   24  C   UNL     1     -10.604   3.714  63.655  1.00  0.00    -0.279 A  
HETATM   25  C   UNL     1     -10.529   4.276  64.931  1.00  0.00    -0.176 A  
ENDBRANCH  13  14
ENDBRANCH   7  13
TORSDOF 3
ENDMDL
MODEL      111
REMARK 921   NORMALIZED FREE ENERGY PREDICTED BY IDOCK:   -3.97 KCAL/MOL
REMARK 922        TOTAL FREE ENERGY PREDICTED BY IDOCK:   -5.75 KCAL/MOL
REMARK 923 INTER-LIGAND FREE ENERGY PREDICTED BY IDOCK:   -4.99 KCAL/MOL
REMARK 924 INTRA-LIGAND FREE ENERGY PREDICTED BY IDOCK:   -0.76 KCAL/MOL
REMARK 927      BINDING AFFINITY PREDICTED BY RF-SCORE:    0.00 PKD
ROOT
HETATM    1  C   UNL     1     -10.557  15.913  66.948  1.00  0.00    -0.309 C  
HETATM    2  C   UNL     1      -9.344  16.329  66.104  1.00  0.00    -0.374 C  
HETATM    3  C   UNL     1      -8.127  15.798  66.846  1.00  0.00    -0.292 C  
HETATM    4  C   UNL     1      -8.681  15.082  68.087  1.00  0.00    -0.165 C  
HETATM    5  C   UNL     1      -8.960  13.614  67.761  1.00  0.00    -0.196 C  
HETATM    6  N   UNL     1     -10.002  15.831  68.396  1.00  0.00    -0.215 N  
HETATM    7  C   UNL     1     -10.160  13.353  66.832  1.00  0.00    -0.255 C  
HETATM    8  C   UNL     1      -9.701  17.255  68.926  1.00  0.00    -0.251 C  
HETATM    9  C   UNL     1     -11.063  14.547  66.483  1.00  0.00    -0.332 C  
ENDROOT
BRANCH   6  10
HETATM   10  C   UNL     1     -10.939  15.096  69.429  1.00  0.00    -0.264 C  
HETATM   11  C   UNL     1     -12.388  15.576  69.325  1.00  0.00    -0.106 C  
HETATM   12  C   UNL     1     -10.423  15.223  70.866  1.00  0.00     0.151 C  
ENDBRANCH   6  10
BRANCH   7  13
HETATM   13  O   UNL     1      -9.690  12.748  65.613  1.00  0.00    -0.223 OA 
BRANCH  13  14
HETATM   14  C   UNL     1     -10.186  11.485  65.389  1.00  0.00    -0.264 C  
HETATM   15  C   UNL     1      -9.356  10.445  66.118  1.00  0.00    -0.210 C  
HETATM   16  O   UNL     1     -11.146  11.250  64.665  1.00  0.00    -0.264 OA 
HETATM   17  C   UNL     1     -10.281   9.321  66.604  1.00  0.00    -0.253 C  
HETATM   18  C   UNL     1      -8.228   9.944  65.238  1.00  0.00    -0.145 A  
HETATM   19  C   UNL     1      -6.895  10.128  65.629  1.00  0.00    -0.124 A  
HETATM   20  O   UNL     1     -11.191   9.835  67.577  1.00  0.00    -0.429 OA 
HETATM   21  H   UNL     1     -11.764   9.139  67.878  1.00  0.00     0.000 HD 
HETATM   22  C   UNL     1      -5.849   9.701  64.809  1.00  0.00    -0.080 A  
HETATM   23  C   UNL     1      -6.123   9.086  63.590  1.00  0.00    -0.087 A  
HETATM   24  C   UNL     1      -7.442   8.893  63.189  1.00  0.00    -0.101 A  
HETATM   25  C   UNL     1      -8.490   9.317  64.008  1.00  0.00    -0.202 A  
ENDBRANCH  13  14
ENDBRANCH   7  13
TORSDOF 3
ENDMDL
MODEL      112
REMARK 921   NORMALIZED FREE ENERGY PREDICTED BY IDOCK:   -3.97 KCAL/MOL
REMARK 922        TOTAL FREE ENERGY PREDICTED BY IDOCK:   -5.74 KCAL/MOL
REMARK 923 INTER-LIGAND FREE ENERGY PREDICTED BY IDOCK:   -5.20 KCAL/MOL
REMARK 924 INTRA-LIGAND FREE ENERGY PREDICTED BY IDOCK:   -0.54 KCAL/MOL
REMARK 927      BINDING AFFINITY PREDICTED BY RF-SCORE:    0.00 PKD
ROOT
HETATM    1  C   UNL     1      -9.755   5.805  66.532  1.00  0.00    -0.159 C  
HETATM    2  C   UNL     1      -9.515   4.292  66.639  1.00  0.00    -0.201 C  
HETATM    3  C   UNL     1      -8.137   4.140  67.265  1.00  0.00    -0.099 C  
HETATM    4  C   UNL     1      -7.635   5.570  67.509  1.00  0.00    -0.089 C  
HETATM    5  C   UNL     1      -8.069   6.046  68.898  1.00  0.00    -0.104 C  
HETATM    6  N   UNL     1      -8.330   6.408  66.406  1.00  0.00    -0.115 N  
HETATM    7  C   UNL     1      -9.572   6.334  69.063  1.00  0.00    -0.127 C  
HETATM    8  C   UNL     1      -7.734   6.067  65.018  1.00  0.00    -0.097 C  
HETATM    9  C   UNL     1     -10.447   6.306  67.800  1.00  0.00    -0.289 C  
ENDROOT
BRANCH   6  10
HETATM   10  C   UNL     1      -8.244   7.967  66.622  1.00  0.00    -0.108 C  
HETATM   11  C   UNL     1      -9.150   8.728  65.652  1.00  0.00    -0.247 C  
HETATM   12  C   UNL     1      -6.802   8.480  66.542  1.00  0.00    -0.071 C  
ENDBRANCH   6  10
BRANCH   7  13
HETATM   13  O   UNL     1     -10.123   5.424  70.034  1.00  0.00    -0.209 OA 
BRANCH  13  14
HETATM   14  C   UNL     1      -9.958   5.832  71.338  1.00  0.00    -0.185 C  
HETATM   15  C   UNL     1     -11.246   5.665  72.121  1.00  0.00    -0.288 C  
HETATM   16  O   UNL     1      -8.913   6.299  71.777  1.00  0.00    -0.140 OA 
HETATM   17  C   UNL     1     -10.905   5.262  73.561  1.00  0.00    -0.304 C  
HETATM   18  C   UNL     1     -12.089   6.923  72.042  1.00  0.00    -0.331 A  
HETATM   19  C   UNL     1     -13.366   6.880  71.465  1.00  0.00    -0.303 A  
HETATM   20  O   UNL     1     -10.286   3.976  73.566  1.00  0.00    -0.129 OA 
HETATM   21  H   UNL     1     -10.075   3.726  74.458  1.00  0.00     0.000 HD 
HETATM   22  C   UNL     1     -14.136   8.040  71.357  1.00  0.00    -0.413 A  
HETATM   23  C   UNL     1     -13.638   9.255  71.824  1.00  0.00    -0.465 A  
HETATM   24  C   UNL     1     -12.374   9.312  72.403  1.00  0.00    -0.260 A  
HETATM   25  C   UNL     1     -11.603   8.154  72.514  1.00  0.00    -0.468 A  
ENDBRANCH  13  14
ENDBRANCH   7  13
TORSDOF 3
ENDMDL
MODEL      113
REMARK 921   NORMALIZED FREE ENERGY PREDICTED BY IDOCK:   -3.94 KCAL/MOL
REMARK 922        TOTAL FREE ENERGY PREDICTED BY IDOCK:   -5.71 KCAL/MOL
REMARK 923 INTER-LIGAND FREE ENERGY PREDICTED BY IDOCK:   -4.90 KCAL/MOL
REMARK 924 INTRA-LIGAND FREE ENERGY PREDICTED BY IDOCK:   -0.81 KCAL/MOL
REMARK 927      BINDING AFFINITY PREDICTED BY RF-SCORE:    0.00 PKD
ROOT
HETATM    1  C   UNL     1     -10.528   9.403  68.634  1.00  0.00    -0.209 C  
HETATM    2  C   UNL     1      -9.982  10.758  69.109  1.00  0.00    -0.206 C  
HETATM    3  C   UNL     1      -8.537  10.500  69.507  1.00  0.00    -0.047 C  
HETATM    4  C   UNL     1      -8.295   9.008  69.235  1.00  0.00    -0.122 C  
HETATM    5  C   UNL     1      -7.798   8.812  67.802  1.00  0.00    -0.102 C  
HETATM    6  N   UNL     1      -9.690   8.359  69.420  1.00  0.00    -0.175 N  
HETATM    7  C   UNL     1      -8.844   9.046  66.696  1.00  0.00    -0.132 C  
HETATM    8  C   UNL     1     -10.096   8.375  70.915  1.00  0.00    -0.194 C  
HETATM    9  C   UNL     1     -10.303   9.258  67.129  1.00  0.00    -0.330 C  
ENDROOT
BRANCH   6  10
HETATM   10  C   UNL     1      -9.796   6.880  68.885  1.00  0.00    -0.147 C  
HETATM   11  C   UNL     1     -11.184   6.284  69.128  1.00  0.00    -0.439 C  
HETATM   12  C   UNL     1      -8.703   5.978  69.468  1.00  0.00    -0.125 C  
ENDBRANCH   6  10
BRANCH   7  13
HETATM   13  O   UNL     1      -8.430  10.160  65.882  1.00  0.00    -0.132 OA 
BRANCH  13  14
HETATM   14  C   UNL     1      -8.813  10.062  64.565  1.00  0.00    -0.205 C  
HETATM   15  C   UNL     1      -8.809  11.426  63.901  1.00  0.00     0.277 C  
HETATM   16  O   UNL     1      -9.146   9.011  64.030  1.00  0.00    -0.019 OA 
HETATM   17  C   UNL     1      -8.367  11.267  62.441  1.00  0.00    -0.090 C  
HETATM   18  C   UNL     1     -10.162  12.095  64.040  1.00  0.00    -0.396 A  
HETATM   19  C   UNL     1     -10.279  13.311  64.728  1.00  0.00    -0.323 A  
HETATM   20  O   UNL     1      -7.012  10.816  62.396  1.00  0.00    -0.248 OA 
HETATM   21  H   UNL     1      -6.738  10.718  61.491  1.00  0.00     0.000 HD 
HETATM   22  C   UNL     1     -11.527  13.917  64.891  1.00  0.00    -0.354 A  
HETATM   23  C   UNL     1     -12.669  13.316  64.368  1.00  0.00    -0.188 A  
HETATM   24  C   UNL     1     -12.568  12.111  63.679  1.00  0.00    -0.616 A  
HETATM   25  C   UNL     1     -11.323  11.504  63.513  1.00  0.00    -0.375 A  
ENDBRANCH  13  14
ENDBRANCH   7  13
TORSDOF 3
ENDMDL
MODEL      114
REMARK 921   NORMALIZED FREE ENERGY PREDICTED BY IDOCK:   -3.92 KCAL/MOL
REMARK 922        TOTAL FREE ENERGY PREDICTED BY IDOCK:   -5.68 KCAL/MOL
REMARK 923 INTER-LIGAND FREE ENERGY PREDICTED BY IDOCK:   -5.09 KCAL/MOL
REMARK 924 INTRA-LIGAND FREE ENERGY PREDICTED BY IDOCK:   -0.59 KCAL/MOL
REMARK 927      BINDING AFFINITY PREDICTED BY RF-SCORE:    0.00 PKD
ROOT
HETATM    1  C   UNL     1      -7.443   7.746  67.340  1.00  0.00    -0.093 C  
HETATM    2  C   UNL     1      -7.670   9.261  67.249  1.00  0.00    -0.095 C  
HETATM    3  C   UNL     1      -8.920   9.437  66.401  1.00  0.00    -0.182 C  
HETATM    4  C   UNL     1      -9.379   8.016  66.043  1.00  0.00    -0.091 C  
HETATM    5  C   UNL     1     -10.338   7.491  67.113  1.00  0.00    -0.384 C  
HETATM    6  N   UNL     1      -8.069   7.188  66.033  1.00  0.00    -0.108 N  
HETATM    7  C   UNL     1      -9.698   7.154  68.473  1.00  0.00    -0.143 C  
HETATM    8  C   UNL     1      -7.193   7.584  64.819  1.00  0.00    -0.068 C  
HETATM    9  C   UNL     1      -8.165   7.190  68.568  1.00  0.00    -0.125 C  
ENDROOT
BRANCH   6  10
HETATM   10  C   UNL     1      -8.286   5.627  66.011  1.00  0.00    -0.124 C  
HETATM   11  C   UNL     1      -7.054   4.873  66.513  1.00  0.00    -0.072 C  
HETATM   12  C   UNL     1      -8.709   5.125  64.626  1.00  0.00    -0.120 C  
ENDBRANCH   6  10
BRANCH   7  13
HETATM   13  O   UNL     1     -10.250   8.021  69.482  1.00  0.00    -0.199 OA 
BRANCH  13  14
HETATM   14  C   UNL     1     -11.260   7.448  70.219  1.00  0.00    -0.247 C  
HETATM   15  C   UNL     1     -11.413   8.146  71.557  1.00  0.00    -0.310 C  
HETATM   16  O   UNL     1     -11.910   6.479  69.843  1.00  0.00    -0.381 OA 
HETATM   17  C   UNL     1     -12.898   8.169  71.940  1.00  0.00    -0.335 C  
HETATM   18  C   UNL     1     -10.541   7.490  72.608  1.00  0.00    -0.338 A  
HETATM   19  C   UNL     1      -9.526   8.223  73.239  1.00  0.00    -0.213 A  
HETATM   20  O   UNL     1     -13.623   8.969  71.005  1.00  0.00    -0.565 OA 
HETATM   21  H   UNL     1     -14.544   8.983  71.243  1.00  0.00     0.000 HD 
HETATM   22  C   UNL     1      -8.695   7.618  74.184  1.00  0.00    -0.290 A  
HETATM   23  C   UNL     1      -8.869   6.274  74.509  1.00  0.00    -0.155 A  
HETATM   24  C   UNL     1      -9.875   5.535  73.895  1.00  0.00    -0.180 A  
HETATM   25  C   UNL     1     -10.708   6.138  72.951  1.00  0.00    -0.274 A  
ENDBRANCH  13  14
ENDBRANCH   7  13
TORSDOF 3
ENDMDL
MODEL      115
REMARK 921   NORMALIZED FREE ENERGY PREDICTED BY IDOCK:   -3.92 KCAL/MOL
REMARK 922        TOTAL FREE ENERGY PREDICTED BY IDOCK:   -5.68 KCAL/MOL
REMARK 923 INTER-LIGAND FREE ENERGY PREDICTED BY IDOCK:   -5.27 KCAL/MOL
REMARK 924 INTRA-LIGAND FREE ENERGY PREDICTED BY IDOCK:   -0.41 KCAL/MOL
REMARK 927      BINDING AFFINITY PREDICTED BY RF-SCORE:    0.00 PKD
ROOT
HETATM    1  C   UNL     1     -11.581  14.841  67.543  1.00  0.00    -0.361 C  
HETATM    2  C   UNL     1     -11.692  16.091  68.428  1.00  0.00    -0.196 C  
HETATM    3  C   UNL     1     -10.660  15.905  69.530  1.00  0.00    -0.282 C  
HETATM    4  C   UNL     1      -9.979  14.561  69.234  1.00  0.00    -0.038 C  
HETATM    5  C   UNL     1      -8.772  14.776  68.319  1.00  0.00    -0.170 C  
HETATM    6  N   UNL     1     -11.071  13.736  68.507  1.00  0.00    -0.255 N  
HETATM    7  C   UNL     1      -9.099  15.155  66.863  1.00  0.00    -0.247 C  
HETATM    8  C   UNL     1     -12.195  13.342  69.498  1.00  0.00    -0.205 C  
HETATM    9  C   UNL     1     -10.570  15.093  66.424  1.00  0.00    -0.305 C  
ENDROOT
BRANCH   6  10
HETATM   10  C   UNL     1     -10.540  12.430  67.803  1.00  0.00    -0.217 C  
HETATM   11  C   UNL     1     -11.599  11.799  66.897  1.00  0.00    -0.310 C  
HETATM   12  C   UNL     1     -10.005  11.409  68.813  1.00  0.00    -0.188 C  
ENDBRANCH   6  10
BRANCH   7  13
HETATM   13  O   UNL     1      -8.584  16.472  66.591  1.00  0.00    -0.203 OA 
BRANCH  13  14
HETATM   14  C   UNL     1      -7.247  16.621  66.881  1.00  0.00    -0.226 C  
HETATM   15  C   UNL     1      -6.936  18.055  67.266  1.00  0.00    -0.204 C  
HETATM   16  O   UNL     1      -6.429  15.713  66.796  1.00  0.00    -0.176 OA 
HETATM   17  C   UNL     1      -5.846  18.055  68.346  1.00  0.00    -0.177 C  
HETATM   18  C   UNL     1      -6.560  18.869  66.044  1.00  0.00    -0.264 A  
HETATM   19  C   UNL     1      -7.335  19.976  65.669  1.00  0.00    -0.311 A  
HETATM   20  O   UNL     1      -6.347  17.440  69.533  1.00  0.00    -0.244 OA 
HETATM   21  H   UNL     1      -5.672  17.440  70.202  1.00  0.00     0.000 HD 
HETATM   22  C   UNL     1      -7.015  20.712  64.526  1.00  0.00     0.081 A  
HETATM   23  C   UNL     1      -5.919  20.350  63.746  1.00  0.00    -0.309 A  
HETATM   24  C   UNL     1      -5.138  19.257  64.108  1.00  0.00    -0.231 A  
HETATM   25  C   UNL     1      -5.453  18.521  65.252  1.00  0.00    -0.232 A  
ENDBRANCH  13  14
ENDBRANCH   7  13
TORSDOF 3
ENDMDL
MODEL      116
REMARK 921   NORMALIZED FREE ENERGY PREDICTED BY IDOCK:   -3.92 KCAL/MOL
REMARK 922        TOTAL FREE ENERGY PREDICTED BY IDOCK:   -5.68 KCAL/MOL
REMARK 923 INTER-LIGAND FREE ENERGY PREDICTED BY IDOCK:   -5.36 KCAL/MOL
REMARK 924 INTRA-LIGAND FREE ENERGY PREDICTED BY IDOCK:   -0.32 KCAL/MOL
REMARK 927      BINDING AFFINITY PREDICTED BY RF-SCORE:    0.00 PKD
ROOT
HETATM    1  C   UNL     1      -8.244  16.511  66.620  1.00  0.00    -0.271 C  
HETATM    2  C   UNL     1      -6.994  15.698  66.983  1.00  0.00    -0.073 C  
HETATM    3  C   UNL     1      -7.326  15.001  68.294  1.00  0.00    -0.111 C  
HETATM    4  C   UNL     1      -8.762  15.426  68.635  1.00  0.00    -0.191 C  
HETATM    5  C   UNL     1      -9.759  14.446  68.013  1.00  0.00    -0.221 C  
HETATM    6  N   UNL     1      -8.904  16.828  67.989  1.00  0.00    -0.212 N  
HETATM    7  C   UNL     1      -9.892  14.515  66.480  1.00  0.00    -0.285 C  
HETATM    8  C   UNL     1      -8.046  17.863  68.760  1.00  0.00    -0.232 C  
HETATM    9  C   UNL     1      -9.175  15.663  65.753  1.00  0.00    -0.247 C  
ENDROOT
BRANCH   6  10
HETATM   10  C   UNL     1     -10.385  17.361  67.909  1.00  0.00    -0.369 C  
HETATM   11  C   UNL     1     -10.436  18.857  67.590  1.00  0.00    -0.514 C  
HETATM   12  C   UNL     1     -11.179  17.045  69.181  1.00  0.00     0.221 C  
ENDBRANCH   6  10
BRANCH   7  13
HETATM   13  O   UNL     1      -9.464  13.262  65.913  1.00  0.00    -0.167 OA 
BRANCH  13  14
HETATM   14  C   UNL     1     -10.187  12.873  64.808  1.00  0.00    -0.285 C  
HETATM   15  C   UNL     1     -10.861  11.536  65.050  1.00  0.00    -0.336 C  
HETATM   16  O   UNL     1     -10.235  13.517  63.767  1.00  0.00     0.021 OA 
HETATM   17  C   UNL     1     -12.220  11.528  64.339  1.00  0.00     0.240 C  
HETATM   18  C   UNL     1      -9.960  10.395  64.617  1.00  0.00    -0.408 A  
HETATM   19  C   UNL     1      -9.525   9.447  65.554  1.00  0.00    -0.328 A  
HETATM   20  O   UNL     1     -13.079  12.501  64.935  1.00  0.00    -0.833 OA 
HETATM   21  H   UNL     1     -13.921  12.496  64.495  1.00  0.00     0.000 HD 
HETATM   22  C   UNL     1      -8.668   8.413  65.172  1.00  0.00    -0.118 A  
HETATM   23  C   UNL     1      -8.237   8.315  63.851  1.00  0.00    -0.088 A  
HETATM   24  C   UNL     1      -8.664   9.246  62.909  1.00  0.00    -0.210 A  
HETATM   25  C   UNL     1      -9.522  10.279  63.287  1.00  0.00    -0.342 A  
ENDBRANCH  13  14
ENDBRANCH   7  13
TORSDOF 3
ENDMDL
MODEL      117
REMARK 921   NORMALIZED FREE ENERGY PREDICTED BY IDOCK:   -3.91 KCAL/MOL
REMARK 922        TOTAL FREE ENERGY PREDICTED BY IDOCK:   -5.67 KCAL/MOL
REMARK 923 INTER-LIGAND FREE ENERGY PREDICTED BY IDOCK:   -4.99 KCAL/MOL
REMARK 924 INTRA-LIGAND FREE ENERGY PREDICTED BY IDOCK:   -0.68 KCAL/MOL
REMARK 927      BINDING AFFINITY PREDICTED BY RF-SCORE:    0.00 PKD
ROOT
HETATM    1  C   UNL     1      -7.438   7.200  68.635  1.00  0.00    -0.102 C  
HETATM    2  C   UNL     1      -7.161   7.248  67.125  1.00  0.00    -0.092 C  
HETATM    3  C   UNL     1      -8.465   6.836  66.458  1.00  0.00    -0.124 C  
HETATM    4  C   UNL     1      -9.452   6.577  67.605  1.00  0.00    -0.123 C  
HETATM    5  C   UNL     1     -10.193   7.868  67.959  1.00  0.00    -0.256 C  
HETATM    6  N   UNL     1      -8.551   6.128  68.784  1.00  0.00    -0.120 N  
HETATM    7  C   UNL     1      -9.351   8.948  68.664  1.00  0.00    -0.140 C  
HETATM    8  C   UNL     1      -7.967   4.720  68.507  1.00  0.00    -0.084 C  
HETATM    9  C   UNL     1      -7.932   8.566  69.111  1.00  0.00    -0.112 C  
ENDROOT
BRANCH   6  10
HETATM   10  C   UNL     1      -9.274   6.107  70.184  1.00  0.00    -0.155 C  
HETATM   11  C   UNL     1      -8.405   5.460  71.265  1.00  0.00    -0.125 C  
HETATM   12  C   UNL     1     -10.649   5.435  70.112  1.00  0.00    -0.344 C  
ENDBRANCH   6  10
BRANCH   7  13
HETATM   13  O   UNL     1      -9.279  10.114  67.821  1.00  0.00    -0.137 OA 
BRANCH  13  14
HETATM   14  C   UNL     1      -9.533  11.295  68.480  1.00  0.00    -0.191 C  
HETATM   15  C   UNL     1     -10.969  11.733  68.265  1.00  0.00    -0.274 C  
HETATM   16  O   UNL     1      -8.687  11.913  69.117  1.00  0.00     0.215 OA 
HETATM   17  C   UNL     1     -11.480  12.409  69.544  1.00  0.00    -0.240 C  
HETATM   18  C   UNL     1     -11.082  12.620  67.041  1.00  0.00    -0.322 A  
HETATM   19  C   UNL     1     -11.877  12.225  65.955  1.00  0.00    -0.409 A  
HETATM   20  O   UNL     1     -11.526  11.455  70.605  1.00  0.00    -0.425 OA 
HETATM   21  H   UNL     1     -11.843  11.874  71.398  1.00  0.00     0.000 HD 
HETATM   22  C   UNL     1     -11.960  13.019  64.810  1.00  0.00    -0.443 A  
HETATM   23  C   UNL     1     -11.251  14.216  64.736  1.00  0.00    -0.379 A  
HETATM   24  C   UNL     1     -10.462  14.624  65.808  1.00  0.00    -0.338 A  
HETATM   25  C   UNL     1     -10.378  13.833  66.955  1.00  0.00    -0.266 A  
ENDBRANCH  13  14
ENDBRANCH   7  13
TORSDOF 3
ENDMDL
MODEL      118
REMARK 921   NORMALIZED FREE ENERGY PREDICTED BY IDOCK:   -3.85 KCAL/MOL
REMARK 922        TOTAL FREE ENERGY PREDICTED BY IDOCK:   -5.60 KCAL/MOL
REMARK 923 INTER-LIGAND FREE ENERGY PREDICTED BY IDOCK:   -4.42 KCAL/MOL
REMARK 924 INTRA-LIGAND FREE ENERGY PREDICTED BY IDOCK:   -1.18 KCAL/MOL
REMARK 927      BINDING AFFINITY PREDICTED BY RF-SCORE:    0.00 PKD
ROOT
HETATM    1  C   UNL     1      -7.793   6.160  69.345  1.00  0.00    -0.100 C  
HETATM    2  C   UNL     1      -7.043   6.831  70.505  1.00  0.00    -0.068 C  
HETATM    3  C   UNL     1      -5.923   7.632  69.858  1.00  0.00    -0.023 C  
HETATM    4  C   UNL     1      -6.074   7.406  68.347  1.00  0.00    -0.031 C  
HETATM    5  C   UNL     1      -7.000   8.467  67.750  1.00  0.00    -0.075 C  
HETATM    6  N   UNL     1      -6.717   6.000  68.238  1.00  0.00    -0.058 N  
HETATM    7  C   UNL     1      -8.489   8.335  68.118  1.00  0.00    -0.132 C  
HETATM    8  C   UNL     1      -5.696   4.910  68.649  1.00  0.00    -0.016 C  
HETATM    9  C   UNL     1      -8.927   7.070  68.872  1.00  0.00    -0.129 C  
ENDROOT
BRANCH   6  10
HETATM   10  C   UNL     1      -7.279   5.651  66.807  1.00  0.00    -0.074 C  
HETATM   11  C   UNL     1      -8.208   4.436  66.840  1.00  0.00    -0.102 C  
HETATM   12  C   UNL     1      -6.158   5.455  65.781  1.00  0.00    -0.033 C  
ENDBRANCH   6  10
BRANCH   7  13
HETATM   13  O   UNL     1      -8.894   9.494  68.872  1.00  0.00    -0.131 OA 
BRANCH  13  14
HETATM   14  C   UNL     1     -10.256   9.613  69.024  1.00  0.00    -0.199 C  
HETATM   15  C   UNL     1     -10.607   9.979  70.453  1.00  0.00    -0.343 C  
HETATM   16  O   UNL     1     -11.061   9.410  68.122  1.00  0.00    -0.106 OA 
HETATM   17  C   UNL     1     -11.826  10.911  70.444  1.00  0.00    -0.357 C  
HETATM   18  C   UNL     1     -10.822   8.733  71.289  1.00  0.00    -0.347 A  
HETATM   19  C   UNL     1     -10.001   8.478  72.397  1.00  0.00    -0.365 A  
HETATM   20  O   UNL     1     -11.484  12.143  69.807  1.00  0.00    -0.426 OA 
HETATM   21  H   UNL     1     -12.239  12.720  69.801  1.00  0.00     0.000 HD 
HETATM   22  C   UNL     1     -10.169   7.316  73.153  1.00  0.00    -0.344 A  
HETATM   23  C   UNL     1     -11.158   6.397  72.811  1.00  0.00    -0.281 A  
HETATM   24  C   UNL     1     -11.984   6.639  71.717  1.00  0.00    -0.391 A  
HETATM   25  C   UNL     1     -11.820   7.800  70.961  1.00  0.00    -0.290 A  
ENDBRANCH  13  14
ENDBRANCH   7  13
TORSDOF 3
ENDMDL
MODEL      119
REMARK 921   NORMALIZED FREE ENERGY PREDICTED BY IDOCK:   -3.85 KCAL/MOL
REMARK 922        TOTAL FREE ENERGY PREDICTED BY IDOCK:   -5.60 KCAL/MOL
REMARK 923 INTER-LIGAND FREE ENERGY PREDICTED BY IDOCK:   -5.06 KCAL/MOL
REMARK 924 INTRA-LIGAND FREE ENERGY PREDICTED BY IDOCK:   -0.54 KCAL/MOL
REMARK 927      BINDING AFFINITY PREDICTED BY RF-SCORE:    0.00 PKD
ROOT
HETATM    1  C   UNL     1      -9.544   7.728  72.549  1.00  0.00    -0.192 C  
HETATM    2  C   UNL     1      -8.183   8.439  72.573  1.00  0.00    -0.198 C  
HETATM    3  C   UNL     1      -7.331   7.725  71.534  1.00  0.00    -0.069 C  
HETATM    4  C   UNL     1      -8.235   6.636  70.938  1.00  0.00    -0.124 C  
HETATM    5  C   UNL     1      -9.001   7.193  69.736  1.00  0.00    -0.142 C  
HETATM    6  N   UNL     1      -9.212   6.284  72.089  1.00  0.00    -0.145 N  
HETATM    7  C   UNL     1     -10.109   8.210  70.066  1.00  0.00    -0.196 C  
HETATM    8  C   UNL     1      -8.463   5.530  73.216  1.00  0.00    -0.117 C  
HETATM    9  C   UNL     1     -10.467   8.420  71.545  1.00  0.00    -0.305 C  
ENDROOT
BRANCH   6  10
HETATM   10  C   UNL     1     -10.455   5.422  71.646  1.00  0.00    -0.227 C  
HETATM   11  C   UNL     1     -11.407   5.154  72.813  1.00  0.00    -0.311 C  
HETATM   12  C   UNL     1     -10.036   4.112  70.970  1.00  0.00    -0.206 C  
ENDBRANCH   6  10
BRANCH   7  13
HETATM   13  O   UNL     1      -9.772   9.482  69.480  1.00  0.00    -0.170 OA 
BRANCH  13  14
HETATM   14  C   UNL     1      -9.901   9.517  68.111  1.00  0.00    -0.155 C  
HETATM   15  C   UNL     1      -9.140  10.695  67.530  1.00  0.00    -0.144 C  
HETATM   16  O   UNL     1     -10.574   8.719  67.470  1.00  0.00    -0.267 OA 
HETATM   17  C   UNL     1      -8.554  10.288  66.172  1.00  0.00    -0.139 C  
HETATM   18  C   UNL     1     -10.030  11.920  67.448  1.00  0.00    -0.201 A  
HETATM   19  C   UNL     1      -9.699  13.080  68.164  1.00  0.00    -0.228 A  
HETATM   20  O   UNL     1      -7.582   9.259  66.358  1.00  0.00    -0.092 OA 
HETATM   21  H   UNL     1      -7.218   9.008  65.516  1.00  0.00     0.000 HD 
HETATM   22  C   UNL     1     -10.529  14.201  68.122  1.00  0.00    -0.244 A  
HETATM   23  C   UNL     1     -11.698  14.177  67.364  1.00  0.00    -0.422 A  
HETATM   24  C   UNL     1     -12.038  13.035  66.645  1.00  0.00    -0.386 A  
HETATM   25  C   UNL     1     -11.208  11.913  66.684  1.00  0.00    -0.384 A  
ENDBRANCH  13  14
ENDBRANCH   7  13
TORSDOF 3
ENDMDL
MODEL      120
REMARK 921   NORMALIZED FREE ENERGY PREDICTED BY IDOCK:   -3.84 KCAL/MOL
REMARK 922        TOTAL FREE ENERGY PREDICTED BY IDOCK:   -5.59 KCAL/MOL
REMARK 923 INTER-LIGAND FREE ENERGY PREDICTED BY IDOCK:   -5.01 KCAL/MOL
REMARK 924 INTRA-LIGAND FREE ENERGY PREDICTED BY IDOCK:   -0.58 KCAL/MOL
REMARK 927      BINDING AFFINITY PREDICTED BY RF-SCORE:    0.00 PKD
ROOT
HETATM    1  C   UNL     1     -10.257   6.013  66.094  1.00  0.00     0.116 C  
HETATM    2  C   UNL     1     -10.521   4.518  66.327  1.00  0.00    -0.154 C  
HETATM    3  C   UNL     1      -9.435   4.057  67.287  1.00  0.00    -0.229 C  
HETATM    4  C   UNL     1      -8.590   5.304  67.585  1.00  0.00    -0.104 C  
HETATM    5  C   UNL     1      -9.162   6.046  68.795  1.00  0.00    -0.123 C  
HETATM    6  N   UNL     1      -8.727   6.167  66.305  1.00  0.00    -0.138 N  
HETATM    7  C   UNL     1     -10.503   6.767  68.562  1.00  0.00    -0.204 C  
HETATM    8  C   UNL     1      -7.964   5.507  65.129  1.00  0.00    -0.110 C  
HETATM    9  C   UNL     1     -11.033   6.838  67.121  1.00  0.00    -0.458 C  
ENDROOT
BRANCH   6  10
HETATM   10  C   UNL     1      -8.221   7.651  66.464  1.00  0.00    -0.125 C  
HETATM   11  C   UNL     1      -8.518   8.491  65.219  1.00  0.00    -0.192 C  
HETATM   12  C   UNL     1      -6.734   7.717  66.826  1.00  0.00    -0.067 C  
ENDBRANCH   6  10
BRANCH   7  13
HETATM   13  O   UNL     1     -11.510   6.174  69.403  1.00  0.00    -0.423 OA 
BRANCH  13  14
HETATM   14  C   UNL     1     -11.377   6.484  70.737  1.00  0.00    -0.342 C  
HETATM   15  C   UNL     1     -11.496   7.981  70.955  1.00  0.00    -0.300 C  
HETATM   16  O   UNL     1     -11.155   5.653  71.609  1.00  0.00    -0.251 OA 
HETATM   17  C   UNL     1     -12.202   8.234  72.294  1.00  0.00    -0.370 C  
HETATM   18  C   UNL     1     -10.137   8.646  70.868  1.00  0.00    -0.262 A  
HETATM   19  C   UNL     1      -9.888   9.613  69.883  1.00  0.00    -0.271 A  
HETATM   20  O   UNL     1     -13.544   7.750  72.228  1.00  0.00    -0.510 OA 
HETATM   21  H   UNL     1     -13.981   7.907  73.058  1.00  0.00     0.000 HD 
HETATM   22  C   UNL     1      -8.628  10.206  69.773  1.00  0.00    -0.148 A  
HETATM   23  C   UNL     1      -7.605   9.841  70.645  1.00  0.00    -0.026 A  
HETATM   24  C   UNL     1      -7.839   8.886  71.631  1.00  0.00    -0.069 A  
HETATM   25  C   UNL     1      -9.097   8.293  71.744  1.00  0.00    -0.255 A  
ENDBRANCH  13  14
ENDBRANCH   7  13
TORSDOF 3
ENDMDL
MODEL      121
REMARK 921   NORMALIZED FREE ENERGY PREDICTED BY IDOCK:   -3.83 KCAL/MOL
REMARK 922        TOTAL FREE ENERGY PREDICTED BY IDOCK:   -5.58 KCAL/MOL
REMARK 923 INTER-LIGAND FREE ENERGY PREDICTED BY IDOCK:   -4.55 KCAL/MOL
REMARK 924 INTRA-LIGAND FREE ENERGY PREDICTED BY IDOCK:   -1.03 KCAL/MOL
REMARK 927      BINDING AFFINITY PREDICTED BY RF-SCORE:    0.00 PKD
ROOT
HETATM    1  C   UNL     1      -9.352   8.695  67.842  1.00  0.00    -0.142 C  
HETATM    2  C   UNL     1     -10.602   8.229  67.081  1.00  0.00    -0.340 C  
HETATM    3  C   UNL     1     -10.394   6.744  66.824  1.00  0.00    -0.286 C  
HETATM    4  C   UNL     1      -9.038   6.402  67.458  1.00  0.00    -0.114 C  
HETATM    5  C   UNL     1      -9.234   5.988  68.918  1.00  0.00    -0.125 C  
HETATM    6  N   UNL     1      -8.235   7.725  67.371  1.00  0.00    -0.122 N  
HETATM    7  C   UNL     1      -9.622   7.122  69.885  1.00  0.00    -0.163 C  
HETATM    8  C   UNL     1      -7.861   8.029  65.899  1.00  0.00    -0.099 C  
HETATM    9  C   UNL     1      -9.588   8.561  69.347  1.00  0.00    -0.170 C  
ENDROOT
BRANCH   6  10
HETATM   10  C   UNL     1      -6.921   7.747  68.241  1.00  0.00    -0.079 C  
HETATM   11  C   UNL     1      -6.262   9.128  68.241  1.00  0.00    -0.054 C  
HETATM   12  C   UNL     1      -5.927   6.665  67.808  1.00  0.00    -0.024 C  
ENDBRANCH   6  10
BRANCH   7  13
HETATM   13  O   UNL     1     -10.930   6.855  70.425  1.00  0.00    -0.247 OA 
BRANCH  13  14
HETATM   14  C   UNL     1     -10.981   6.869  71.800  1.00  0.00    -0.230 C  
HETATM   15  C   UNL     1      -9.769   6.172  72.390  1.00  0.00    -0.169 C  
HETATM   16  O   UNL     1     -11.907   7.351  72.440  1.00  0.00    -0.284 OA 
HETATM   17  C   UNL     1      -9.364   6.888  73.684  1.00  0.00    -0.178 C  
HETATM   18  C   UNL     1     -10.046   4.695  72.592  1.00  0.00    -0.224 A  
HETATM   19  C   UNL     1      -9.277   3.736  71.917  1.00  0.00    -0.180 A  
HETATM   20  O   UNL     1      -8.933   8.216  73.384  1.00  0.00    -0.254 OA 
HETATM   21  H   UNL     1      -8.682   8.660  74.186  1.00  0.00     0.000 HD 
HETATM   22  C   UNL     1      -9.546   2.375  72.070  1.00  0.00    -0.200 A  
HETATM   23  C   UNL     1     -10.584   1.956  72.899  1.00  0.00    -0.235 A  
HETATM   24  C   UNL     1     -11.353   2.896  73.579  1.00  0.00    -0.264 A  
HETATM   25  C   UNL     1     -11.086   4.258  73.429  1.00  0.00    -0.371 A  
ENDBRANCH  13  14
ENDBRANCH   7  13
TORSDOF 3
ENDMDL
MODEL      122
REMARK 921   NORMALIZED FREE ENERGY PREDICTED BY IDOCK:   -3.82 KCAL/MOL
REMARK 922        TOTAL FREE ENERGY PREDICTED BY IDOCK:   -5.56 KCAL/MOL
REMARK 923 INTER-LIGAND FREE ENERGY PREDICTED BY IDOCK:   -5.59 KCAL/MOL
REMARK 924 INTRA-LIGAND FREE ENERGY PREDICTED BY IDOCK:    0.03 KCAL/MOL
REMARK 927      BINDING AFFINITY PREDICTED BY RF-SCORE:    0.00 PKD
ROOT
HETATM    1  C   UNL     1      -8.837   7.930  66.518  1.00  0.00    -0.152 C  
HETATM    2  C   UNL     1      -8.644   7.768  68.033  1.00  0.00    -0.123 C  
HETATM    3  C   UNL     1      -7.726   8.905  68.452  1.00  0.00    -0.099 C  
HETATM    4  C   UNL     1      -7.430   9.692  67.167  1.00  0.00    -0.088 C  
HETATM    5  C   UNL     1      -8.481  10.787  66.972  1.00  0.00    -0.128 C  
HETATM    6  N   UNL     1      -7.536   8.631  66.042  1.00  0.00    -0.091 N  
HETATM    7  C   UNL     1      -9.889  10.298  66.584  1.00  0.00    -0.204 C  
HETATM    8  C   UNL     1      -6.346   7.643  66.122  1.00  0.00    -0.042 C  
HETATM    9  C   UNL     1     -10.058   8.809  66.246  1.00  0.00    -0.254 C  
ENDROOT
BRANCH   6  10
HETATM   10  C   UNL     1      -7.596   9.231  64.585  1.00  0.00    -0.106 C  
HETATM   11  C   UNL     1      -7.844   8.148  63.533  1.00  0.00    -0.152 C  
HETATM   12  C   UNL     1      -6.344  10.046  64.247  1.00  0.00    -0.132 C  
ENDBRANCH   6  10
BRANCH   7  13
HETATM   13  O   UNL     1     -10.815  10.650  67.629  1.00  0.00    -0.248 OA 
BRANCH  13  14
HETATM   14  C   UNL     1     -10.525  11.841  68.254  1.00  0.00    -0.206 C  
HETATM   15  C   UNL     1     -11.684  12.812  68.125  1.00  0.00    -0.392 C  
HETATM   16  O   UNL     1      -9.455  12.078  68.802  1.00  0.00    -0.102 OA 
HETATM   17  C   UNL     1     -11.779  13.647  69.408  1.00  0.00    -0.324 C  
HETATM   18  C   UNL     1     -11.538  13.659  66.876  1.00  0.00    -0.397 A  
HETATM   19  C   UNL     1     -12.511  13.601  65.869  1.00  0.00    -0.502 A  
HETATM   20  O   UNL     1     -12.110  12.800  70.509  1.00  0.00    -0.442 OA 
HETATM   21  H   UNL     1     -12.169  13.318  71.304  1.00  0.00     0.000 HD 
HETATM   22  C   UNL     1     -12.368  14.352  64.700  1.00  0.00    -0.435 A  
HETATM   23  C   UNL     1     -11.253  15.168  64.526  1.00  0.00    -0.283 A  
HETATM   24  C   UNL     1     -10.281  15.239  65.519  1.00  0.00    -0.417 A  
HETATM   25  C   UNL     1     -10.422  14.492  66.689  1.00  0.00    -0.274 A  
ENDBRANCH  13  14
ENDBRANCH   7  13
TORSDOF 3
ENDMDL
MODEL      123
REMARK 921   NORMALIZED FREE ENERGY PREDICTED BY IDOCK:   -3.81 KCAL/MOL
REMARK 922        TOTAL FREE ENERGY PREDICTED BY IDOCK:   -5.55 KCAL/MOL
REMARK 923 INTER-LIGAND FREE ENERGY PREDICTED BY IDOCK:   -4.53 KCAL/MOL
REMARK 924 INTRA-LIGAND FREE ENERGY PREDICTED BY IDOCK:   -1.02 KCAL/MOL
REMARK 927      BINDING AFFINITY PREDICTED BY RF-SCORE:    0.00 PKD
ROOT
HETATM    1  C   UNL     1     -10.326   8.112  69.897  1.00  0.00    -0.214 C  
HETATM    2  C   UNL     1     -10.001   8.607  71.313  1.00  0.00    -0.315 C  
HETATM    3  C   UNL     1      -8.782   7.812  71.755  1.00  0.00    -0.147 C  
HETATM    4  C   UNL     1      -8.438   6.895  70.573  1.00  0.00    -0.137 C  
HETATM    5  C   UNL     1      -7.468   7.605  69.626  1.00  0.00    -0.091 C  
HETATM    6  N   UNL     1      -9.800   6.652  69.874  1.00  0.00    -0.167 N  
HETATM    7  C   UNL     1      -8.066   8.765  68.807  1.00  0.00    -0.115 C  
HETATM    8  C   UNL     1     -10.702   5.753  70.756  1.00  0.00    -0.271 C  
HETATM    9  C   UNL     1      -9.588   8.971  68.870  1.00  0.00    -0.156 C  
ENDROOT
BRANCH   6  10
HETATM   10  C   UNL     1      -9.690   6.004  68.441  1.00  0.00    -0.125 C  
HETATM   11  C   UNL     1     -10.925   6.298  67.587  1.00  0.00    -0.438 C  
HETATM   12  C   UNL     1      -9.416   4.498  68.510  1.00  0.00    -0.213 C  
ENDBRANCH   6  10
BRANCH   7  13
HETATM   13  O   UNL     1      -7.411   9.992  69.179  1.00  0.00    -0.075 OA 
BRANCH  13  14
HETATM   14  C   UNL     1      -7.024  10.765  68.109  1.00  0.00    -0.072 C  
HETATM   15  C   UNL     1      -7.538  12.185  68.258  1.00  0.00    -0.132 C  
HETATM   16  O   UNL     1      -6.385  10.336  67.156  1.00  0.00    -0.064 OA 
HETATM   17  C   UNL     1      -6.498  13.154  67.680  1.00  0.00    -0.163 C  
HETATM   18  C   UNL     1      -8.904  12.332  67.618  1.00  0.00    -0.175 A  
HETATM   19  C   UNL     1     -10.012  12.696  68.397  1.00  0.00    -0.210 A  
HETATM   20  O   UNL     1      -5.303  13.096  68.459  1.00  0.00    -0.062 OA 
HETATM   21  H   UNL     1      -4.659  13.696  68.101  1.00  0.00     0.000 HD 
HETATM   22  C   UNL     1     -11.280  12.800  67.823  1.00  0.00    -0.317 A  
HETATM   23  C   UNL     1     -11.456  12.542  66.466  1.00  0.00    -0.418 A  
HETATM   24  C   UNL     1     -10.365  12.185  65.678  1.00  0.00    -0.289 A  
HETATM   25  C   UNL     1      -9.096  12.082  66.249  1.00  0.00    -0.165 A  
ENDBRANCH  13  14
ENDBRANCH   7  13
TORSDOF 3
ENDMDL
MODEL      124
REMARK 921   NORMALIZED FREE ENERGY PREDICTED BY IDOCK:   -3.80 KCAL/MOL
REMARK 922        TOTAL FREE ENERGY PREDICTED BY IDOCK:   -5.54 KCAL/MOL
REMARK 923 INTER-LIGAND FREE ENERGY PREDICTED BY IDOCK:   -4.33 KCAL/MOL
REMARK 924 INTRA-LIGAND FREE ENERGY PREDICTED BY IDOCK:   -1.21 KCAL/MOL
REMARK 927      BINDING AFFINITY PREDICTED BY RF-SCORE:    0.00 PKD
ROOT
HETATM    1  C   UNL     1      -8.566   6.695  69.883  1.00  0.00    -0.140 C  
HETATM    2  C   UNL     1      -9.189   5.662  68.933  1.00  0.00    -0.136 C  
HETATM    3  C   UNL     1     -10.630   5.499  69.394  1.00  0.00    -0.349 C  
HETATM    4  C   UNL     1     -10.791   6.453  70.586  1.00  0.00    -0.276 C  
HETATM    5  C   UNL     1     -11.242   7.831  70.096  1.00  0.00    -0.168 C  
HETATM    6  N   UNL     1      -9.371   6.534  71.201  1.00  0.00    -0.163 N  
HETATM    7  C   UNL     1     -10.181   8.647  69.334  1.00  0.00    -0.210 C  
HETATM    8  C   UNL     1      -9.004   5.191  71.881  1.00  0.00    -0.134 C  
HETATM    9  C   UNL     1      -8.746   8.099  69.306  1.00  0.00    -0.140 C  
ENDROOT
BRANCH   6  10
HETATM   10  C   UNL     1      -9.179   7.698  72.246  1.00  0.00    -0.144 C  
HETATM   11  C   UNL     1      -7.726   7.813  72.711  1.00  0.00    -0.133 C  
HETATM   12  C   UNL     1     -10.126   7.558  73.442  1.00  0.00    -0.393 C  
ENDBRANCH   6  10
BRANCH   7  13
HETATM   13  O   UNL     1     -10.630   8.856  67.981  1.00  0.00    -0.221 OA 
BRANCH  13  14
HETATM   14  C   UNL     1      -9.859   9.747  67.270  1.00  0.00    -0.181 C  
HETATM   15  C   UNL     1      -9.594   9.228  65.869  1.00  0.00    -0.345 C  
HETATM   16  O   UNL     1      -9.425  10.794  67.736  1.00  0.00    -0.153 OA 
HETATM   17  C   UNL     1      -9.566  10.414  64.896  1.00  0.00    -0.289 C  
HETATM   18  C   UNL     1      -8.322   8.404  65.834  1.00  0.00    -0.137 A  
HETATM   19  C   UNL     1      -8.370   7.051  65.468  1.00  0.00    -0.135 A  
HETATM   20  O   UNL     1     -10.858  11.021  64.841  1.00  0.00    -0.250 OA 
HETATM   21  H   UNL     1     -10.840  11.755  64.238  1.00  0.00     0.000 HD 
HETATM   22  C   UNL     1      -7.209   6.275  65.465  1.00  0.00    -0.070 A  
HETATM   23  C   UNL     1      -5.989   6.841  65.828  1.00  0.00    -0.034 A  
HETATM   24  C   UNL     1      -5.925   8.184  66.189  1.00  0.00    -0.041 A  
HETATM   25  C   UNL     1      -7.084   8.963  66.191  1.00  0.00    -0.085 A  
ENDBRANCH  13  14
ENDBRANCH   7  13
TORSDOF 3
ENDMDL
MODEL      125
REMARK 921   NORMALIZED FREE ENERGY PREDICTED BY IDOCK:   -3.77 KCAL/MOL
REMARK 922        TOTAL FREE ENERGY PREDICTED BY IDOCK:   -5.51 KCAL/MOL
REMARK 923 INTER-LIGAND FREE ENERGY PREDICTED BY IDOCK:   -5.65 KCAL/MOL
REMARK 924 INTRA-LIGAND FREE ENERGY PREDICTED BY IDOCK:    0.15 KCAL/MOL
REMARK 927      BINDING AFFINITY PREDICTED BY RF-SCORE:    0.00 PKD
ROOT
HETATM    1  C   UNL     1     -10.903   7.704  69.856  1.00  0.00    -0.235 C  
HETATM    2  C   UNL     1     -10.974   8.315  71.262  1.00  0.00    -0.290 C  
HETATM    3  C   UNL     1      -9.530   8.492  71.705  1.00  0.00    -0.316 C  
HETATM    4  C   UNL     1      -8.675   7.988  70.533  1.00  0.00    -0.135 C  
HETATM    5  C   UNL     1      -8.382   9.138  69.567  1.00  0.00    -0.126 C  
HETATM    6  N   UNL     1      -9.564   6.918  69.849  1.00  0.00    -0.156 N  
HETATM    7  C   UNL     1      -9.581   9.633  68.738  1.00  0.00    -0.152 C  
HETATM    8  C   UNL     1      -9.684   5.665  70.752  1.00  0.00    -0.177 C  
HETATM    9  C   UNL     1     -10.883   8.819  68.811  1.00  0.00    -0.026 C  
ENDROOT
BRANCH   6  10
HETATM   10  C   UNL     1      -9.061   6.467  68.425  1.00  0.00    -0.123 C  
HETATM   11  C   UNL     1     -10.106   5.622  67.693  1.00  0.00    -0.208 C  
HETATM   12  C   UNL     1      -7.717   5.736  68.494  1.00  0.00    -0.093 C  
ENDBRANCH   6  10
BRANCH   7  13
HETATM   13  O   UNL     1      -9.864  11.001  69.086  1.00  0.00    -0.183 OA 
BRANCH  13  14
HETATM   14  C   UNL     1     -11.037  11.483  68.553  1.00  0.00    -0.236 C  
HETATM   15  C   UNL     1     -10.774  12.700  67.686  1.00  0.00    -0.239 C  
HETATM   16  O   UNL     1     -12.139  11.002  68.790  1.00  0.00    -0.518 OA 
HETATM   17  C   UNL     1     -11.749  12.688  66.502  1.00  0.00    -0.400 C  
HETATM   18  C   UNL     1     -10.856  13.971  68.507  1.00  0.00    -0.268 A  
HETATM   19  C   UNL     1      -9.734  14.804  68.630  1.00  0.00    -0.225 A  
HETATM   20  O   UNL     1     -11.479  11.559  65.669  1.00  0.00    -0.182 OA 
HETATM   21  H   UNL     1     -12.084  11.552  64.936  1.00  0.00     0.000 HD 
HETATM   22  C   UNL     1      -9.790  15.959  69.412  1.00  0.00    -0.280 A  
HETATM   23  C   UNL     1     -10.965  16.296  70.079  1.00  0.00    -0.356 A  
HETATM   24  C   UNL     1     -12.089  15.482  69.963  1.00  0.00    -0.391 A  
HETATM   25  C   UNL     1     -12.037  14.327  69.180  1.00  0.00    -0.337 A  
ENDBRANCH  13  14
ENDBRANCH   7  13
TORSDOF 3
ENDMDL
MODEL      126
REMARK 921   NORMALIZED FREE ENERGY PREDICTED BY IDOCK:   -3.70 KCAL/MOL
REMARK 922        TOTAL FREE ENERGY PREDICTED BY IDOCK:   -5.43 KCAL/MOL
REMARK 923 INTER-LIGAND FREE ENERGY PREDICTED BY IDOCK:   -5.06 KCAL/MOL
REMARK 924 INTRA-LIGAND FREE ENERGY PREDICTED BY IDOCK:   -0.37 KCAL/MOL
REMARK 927      BINDING AFFINITY PREDICTED BY RF-SCORE:    0.00 PKD
ROOT
HETATM    1  C   UNL     1      -9.373  14.574  66.570  1.00  0.00    -0.284 C  
HETATM    2  C   UNL     1      -7.968  15.040  66.977  1.00  0.00    -0.197 C  
HETATM    3  C   UNL     1      -7.791  14.593  68.420  1.00  0.00    -0.131 C  
HETATM    4  C   UNL     1      -9.095  13.872  68.791  1.00  0.00    -0.002 C  
HETATM    5  C   UNL     1      -8.983  12.384  68.453  1.00  0.00    -0.133 C  
HETATM    6  N   UNL     1     -10.168  14.551  67.903  1.00  0.00    -0.229 N  
HETATM    7  C   UNL     1      -8.989  12.039  66.952  1.00  0.00    -0.199 C  
HETATM    8  C   UNL     1     -10.426  16.000  68.387  1.00  0.00    -0.263 C  
HETATM    9  C   UNL     1      -9.294  13.173  65.962  1.00  0.00    -0.023 C  
ENDROOT
BRANCH   6  10
HETATM   10  C   UNL     1     -11.545  13.786  67.846  1.00  0.00    -0.341 C  
HETATM   11  C   UNL     1     -12.384  14.212  66.640  1.00  0.00    -0.375 C  
HETATM   12  C   UNL     1     -12.341  13.937  69.147  1.00  0.00    -0.159 C  
ENDBRANCH   6  10
BRANCH   7  13
HETATM   13  O   UNL     1      -7.728  11.437  66.602  1.00  0.00    -0.152 OA 
BRANCH  13  14
HETATM   14  C   UNL     1      -7.767  10.693  65.445  1.00  0.00    -0.051 C  
HETATM   15  C   UNL     1      -9.171  10.184  65.180  1.00  0.00    -0.262 C  
HETATM   16  O   UNL     1      -6.781  10.454  64.758  1.00  0.00    -0.115 OA 
HETATM   17  C   UNL     1      -9.418  10.171  63.666  1.00  0.00    -0.267 C  
HETATM   18  C   UNL     1      -9.381   8.828  65.826  1.00  0.00    -0.259 A  
HETATM   19  C   UNL     1     -10.363   8.663  66.813  1.00  0.00    -0.336 A  
HETATM   20  O   UNL     1      -9.396  11.508  63.165  1.00  0.00    -0.461 OA 
HETATM   21  H   UNL     1      -9.549  11.500  62.227  1.00  0.00     0.000 HD 
HETATM   22  C   UNL     1     -10.540   7.426  67.437  1.00  0.00    -0.371 A  
HETATM   23  C   UNL     1      -9.740   6.343  67.082  1.00  0.00    -0.170 A  
HETATM   24  C   UNL     1      -8.764   6.490  66.101  1.00  0.00    -0.153 A  
HETATM   25  C   UNL     1      -8.586   7.725  65.473  1.00  0.00    -0.126 A  
ENDBRANCH  13  14
ENDBRANCH   7  13
TORSDOF 3
ENDMDL
MODEL      127
REMARK 921   NORMALIZED FREE ENERGY PREDICTED BY IDOCK:   -3.70 KCAL/MOL
REMARK 922        TOTAL FREE ENERGY PREDICTED BY IDOCK:   -5.42 KCAL/MOL
REMARK 923 INTER-LIGAND FREE ENERGY PREDICTED BY IDOCK:   -4.59 KCAL/MOL
REMARK 924 INTRA-LIGAND FREE ENERGY PREDICTED BY IDOCK:   -0.84 KCAL/MOL
REMARK 927      BINDING AFFINITY PREDICTED BY RF-SCORE:    0.00 PKD
ROOT
HETATM    1  C   UNL     1     -10.639   8.720  69.304  1.00  0.00    -0.197 C  
HETATM    2  C   UNL     1      -9.443   9.683  69.296  1.00  0.00    -0.184 C  
HETATM    3  C   UNL     1      -8.399   9.046  70.200  1.00  0.00    -0.156 C  
HETATM    4  C   UNL     1      -9.024   7.731  70.688  1.00  0.00    -0.145 C  
HETATM    5  C   UNL     1      -8.683   6.599  69.718  1.00  0.00    -0.140 C  
HETATM    6  N   UNL     1     -10.548   8.012  70.682  1.00  0.00    -0.215 N  
HETATM    7  C   UNL     1      -9.391   6.657  68.351  1.00  0.00    -0.123 C  
HETATM    8  C   UNL     1     -10.915   9.008  71.811  1.00  0.00    -0.372 C  
HETATM    9  C   UNL     1     -10.494   7.711  68.165  1.00  0.00    -0.233 C  
ENDROOT
BRANCH   6  10
HETATM   10  C   UNL     1     -11.447   6.726  70.832  1.00  0.00    -0.334 C  
HETATM   11  C   UNL     1     -12.889   7.080  71.202  1.00  0.00    -0.328 C  
HETATM   12  C   UNL     1     -10.856   5.724  71.830  1.00  0.00    -0.311 C  
ENDBRANCH   6  10
BRANCH   7  13
HETATM   13  O   UNL     1      -8.405   6.823  67.315  1.00  0.00    -0.119 OA 
BRANCH  13  14
HETATM   14  C   UNL     1      -8.645   6.070  66.189  1.00  0.00    -0.142 C  
HETATM   15  C   UNL     1      -9.153   4.690  66.563  1.00  0.00    -0.123 C  
HETATM   16  O   UNL     1      -8.434   6.466  65.049  1.00  0.00    -0.119 OA 
HETATM   17  C   UNL     1     -10.176   4.235  65.515  1.00  0.00    -0.207 C  
HETATM   18  C   UNL     1      -8.000   3.720  66.726  1.00  0.00    -0.095 A  
HETATM   19  C   UNL     1      -7.771   3.099  67.963  1.00  0.00    -0.059 A  
HETATM   20  O   UNL     1     -11.320   5.089  65.558  1.00  0.00    -0.836 OA 
HETATM   21  H   UNL     1     -11.954   4.807  64.908  1.00  0.00     0.000 HD 
HETATM   22  C   UNL     1      -6.692   2.230  68.132  1.00  0.00    -0.036 A  
HETATM   23  C   UNL     1      -5.830   1.971  67.068  1.00  0.00    -0.019 A  
HETATM   24  C   UNL     1      -6.048   2.575  65.833  1.00  0.00    -0.023 A  
HETATM   25  C   UNL     1      -7.127   3.443  65.661  1.00  0.00    -0.066 A  
ENDBRANCH  13  14
ENDBRANCH   7  13
TORSDOF 3
ENDMDL
MODEL      128
REMARK 921   NORMALIZED FREE ENERGY PREDICTED BY IDOCK:   -3.69 KCAL/MOL
REMARK 922        TOTAL FREE ENERGY PREDICTED BY IDOCK:   -5.42 KCAL/MOL
REMARK 923 INTER-LIGAND FREE ENERGY PREDICTED BY IDOCK:   -5.08 KCAL/MOL
REMARK 924 INTRA-LIGAND FREE ENERGY PREDICTED BY IDOCK:   -0.34 KCAL/MOL
REMARK 927      BINDING AFFINITY PREDICTED BY RF-SCORE:    0.00 PKD
ROOT
HETATM    1  C   UNL     1     -10.824  15.112  66.883  1.00  0.00    -0.317 C  
HETATM    2  C   UNL     1      -9.781  15.541  65.841  1.00  0.00    -0.392 C  
HETATM    3  C   UNL     1      -8.473  15.679  66.605  1.00  0.00    -0.323 C  
HETATM    4  C   UNL     1      -8.804  15.313  68.059  1.00  0.00    -0.169 C  
HETATM    5  C   UNL     1      -8.619  13.810  68.275  1.00  0.00    -0.175 C  
HETATM    6  N   UNL     1     -10.296  15.705  68.217  1.00  0.00    -0.239 N  
HETATM    7  C   UNL     1      -9.668  12.906  67.601  1.00  0.00    -0.212 C  
HETATM    8  C   UNL     1     -10.449  17.246  68.207  1.00  0.00    -0.385 C  
HETATM    9  C   UNL     1     -10.884  13.586  66.953  1.00  0.00    -0.286 C  
ENDROOT
BRANCH   6  10
HETATM   10  C   UNL     1     -10.983  15.138  69.518  1.00  0.00    -0.272 C  
HETATM   11  C   UNL     1     -12.357  14.537  69.220  1.00  0.00    -0.185 C  
HETATM   12  C   UNL     1     -11.075  16.193  70.626  1.00  0.00    -0.318 C  
ENDBRANCH   6  10
BRANCH   7  13
HETATM   13  O   UNL     1      -9.016  12.078  66.619  1.00  0.00    -0.199 OA 
BRANCH  13  14
HETATM   14  C   UNL     1      -9.386  10.754  66.671  1.00  0.00    -0.166 C  
HETATM   15  C   UNL     1      -9.200  10.199  68.071  1.00  0.00    -0.142 C  
HETATM   16  O   UNL     1      -9.773  10.117  65.699  1.00  0.00    -0.220 OA 
HETATM   17  C   UNL     1     -10.315   9.185  68.356  1.00  0.00    -0.206 C  
HETATM   18  C   UNL     1      -7.811   9.614  68.237  1.00  0.00    -0.085 A  
HETATM   19  C   UNL     1      -6.932  10.147  69.190  1.00  0.00    -0.062 A  
HETATM   20  O   UNL     1     -11.578   9.851  68.374  1.00  0.00    -0.518 OA 
HETATM   21  H   UNL     1     -12.269   9.223  68.551  1.00  0.00     0.000 HD 
HETATM   22  C   UNL     1      -5.639   9.637  69.326  1.00  0.00    -0.035 A  
HETATM   23  C   UNL     1      -5.211   8.590  68.513  1.00  0.00    -0.033 A  
HETATM   24  C   UNL     1      -6.074   8.047  67.566  1.00  0.00    -0.051 A  
HETATM   25  C   UNL     1      -7.368   8.554  67.428  1.00  0.00    -0.089 A  
ENDBRANCH  13  14
ENDBRANCH   7  13
TORSDOF 3
ENDMDL
MODEL      129
REMARK 921   NORMALIZED FREE ENERGY PREDICTED BY IDOCK:   -3.69 KCAL/MOL
REMARK 922        TOTAL FREE ENERGY PREDICTED BY IDOCK:   -5.41 KCAL/MOL
REMARK 923 INTER-LIGAND FREE ENERGY PREDICTED BY IDOCK:   -4.96 KCAL/MOL
REMARK 924 INTRA-LIGAND FREE ENERGY PREDICTED BY IDOCK:   -0.45 KCAL/MOL
REMARK 927      BINDING AFFINITY PREDICTED BY RF-SCORE:    0.00 PKD
ROOT
HETATM    1  C   UNL     1     -11.586  12.493  67.253  1.00  0.00    -0.367 C  
HETATM    2  C   UNL     1     -11.369  11.908  65.850  1.00  0.00    -0.365 C  
HETATM    3  C   UNL     1      -9.951  12.296  65.459  1.00  0.00    -0.264 C  
HETATM    4  C   UNL     1      -9.394  13.081  66.656  1.00  0.00    -0.241 C  
HETATM    5  C   UNL     1      -8.720  12.123  67.641  1.00  0.00    -0.172 C  
HETATM    6  N   UNL     1     -10.647  13.729  67.299  1.00  0.00    -0.273 N  
HETATM    7  C   UNL     1      -9.670  11.205  68.432  1.00  0.00    -0.191 C  
HETATM    8  C   UNL     1     -11.203  14.847  66.383  1.00  0.00    -0.331 C  
HETATM    9  C   UNL     1     -11.180  11.463  68.307  1.00  0.00    -0.326 C  
ENDROOT
BRANCH   6  10
HETATM   10  C   UNL     1     -10.404  14.329  68.736  1.00  0.00    -0.239 C  
HETATM   11  C   UNL     1     -11.636  15.071  69.259  1.00  0.00    -0.338 C  
HETATM   12  C   UNL     1      -9.163  15.226  68.783  1.00  0.00    -0.203 C  
ENDBRANCH   6  10
BRANCH   7  13
HETATM   13  O   UNL     1      -9.399   9.834  68.085  1.00  0.00    -0.129 OA 
BRANCH  13  14
HETATM   14  C   UNL     1      -8.282   9.313  68.698  1.00  0.00    -0.113 C  
HETATM   15  C   UNL     1      -7.948   7.945  68.133  1.00  0.00    -0.125 C  
HETATM   16  O   UNL     1      -7.678   9.877  69.602  1.00  0.00    -0.113 OA 
HETATM   17  C   UNL     1      -6.423   7.779  68.102  1.00  0.00    -0.054 C  
HETATM   18  C   UNL     1      -8.646   6.854  68.920  1.00  0.00    -0.131 A  
HETATM   19  C   UNL     1      -9.571   6.011  68.286  1.00  0.00    -0.126 A  
HETATM   20  O   UNL     1      -5.856   8.719  67.189  1.00  0.00    -0.042 OA 
HETATM   21  H   UNL     1      -4.911   8.616  67.170  1.00  0.00     0.000 HD 
HETATM   22  C   UNL     1     -10.244   5.025  69.009  1.00  0.00    -0.207 A  
HETATM   23  C   UNL     1     -10.003   4.870  70.372  1.00  0.00    -0.316 A  
HETATM   24  C   UNL     1      -9.084   5.697  71.014  1.00  0.00    -0.159 A  
HETATM   25  C   UNL     1      -8.408   6.682  70.293  1.00  0.00    -0.134 A  
ENDBRANCH  13  14
ENDBRANCH   7  13
TORSDOF 3
ENDMDL
MODEL      130
REMARK 921   NORMALIZED FREE ENERGY PREDICTED BY IDOCK:   -3.68 KCAL/MOL
REMARK 922        TOTAL FREE ENERGY PREDICTED BY IDOCK:   -5.41 KCAL/MOL
REMARK 923 INTER-LIGAND FREE ENERGY PREDICTED BY IDOCK:   -4.46 KCAL/MOL
REMARK 924 INTRA-LIGAND FREE ENERGY PREDICTED BY IDOCK:   -0.95 KCAL/MOL
REMARK 927      BINDING AFFINITY PREDICTED BY RF-SCORE:    0.00 PKD
ROOT
HETATM    1  C   UNL     1      -8.468   5.399  71.454  1.00  0.00    -0.126 C  
HETATM    2  C   UNL     1      -8.123   4.332  70.405  1.00  0.00    -0.059 C  
HETATM    3  C   UNL     1      -9.367   4.191  69.541  1.00  0.00    -0.238 C  
HETATM    4  C   UNL     1     -10.382   5.191  70.114  1.00  0.00    -0.270 C  
HETATM    5  C   UNL     1     -10.220   6.550  69.428  1.00  0.00    -0.214 C  
HETATM    6  N   UNL     1     -10.008   5.292  71.615  1.00  0.00    -0.173 N  
HETATM    7  C   UNL     1      -8.945   7.332  69.794  1.00  0.00    -0.142 C  
HETATM    8  C   UNL     1     -10.371   3.976  72.347  1.00  0.00    -0.137 C  
HETATM    9  C   UNL     1      -8.072   6.780  70.931  1.00  0.00    -0.118 C  
ENDROOT
BRANCH   6  10
HETATM   10  C   UNL     1     -10.685   6.495  72.374  1.00  0.00    -0.224 C  
HETATM   11  C   UNL     1     -10.353   6.485  73.868  1.00  0.00    -0.356 C  
HETATM   12  C   UNL     1     -12.201   6.537  72.151  1.00  0.00    -0.277 C  
ENDBRANCH   6  10
BRANCH   7  13
HETATM   13  O   UNL     1      -8.134   7.491  68.614  1.00  0.00    -0.121 OA 
BRANCH  13  14
HETATM   14  C   UNL     1      -7.462   8.689  68.556  1.00  0.00    -0.093 C  
HETATM   15  C   UNL     1      -8.291   9.802  69.169  1.00  0.00    -0.137 C  
HETATM   16  O   UNL     1      -6.359   8.825  68.038  1.00  0.00    -0.054 OA 
HETATM   17  C   UNL     1      -7.354  10.787  69.879  1.00  0.00     0.005 C  
HETATM   18  C   UNL     1      -9.162  10.464  68.120  1.00  0.00    -0.145 A  
HETATM   19  C   UNL     1     -10.558  10.435  68.243  1.00  0.00    -0.245 A  
HETATM   20  O   UNL     1      -6.715  10.136  70.978  1.00  0.00    -0.342 OA 
HETATM   21  H   UNL     1      -6.134  10.747  71.418  1.00  0.00     0.000 HD 
HETATM   22  C   UNL     1     -11.369  11.013  67.264  1.00  0.00    -0.265 A  
HETATM   23  C   UNL     1     -10.795  11.625  66.153  1.00  0.00    -0.343 A  
HETATM   24  C   UNL     1      -9.410  11.666  66.019  1.00  0.00    -0.241 A  
HETATM   25  C   UNL     1      -8.596  11.091  66.997  1.00  0.00    -0.140 A  
ENDBRANCH  13  14
ENDBRANCH   7  13
TORSDOF 3
ENDMDL
MODEL      131
REMARK 921   NORMALIZED FREE ENERGY PREDICTED BY IDOCK:   -3.68 KCAL/MOL
REMARK 922        TOTAL FREE ENERGY PREDICTED BY IDOCK:   -5.40 KCAL/MOL
REMARK 923 INTER-LIGAND FREE ENERGY PREDICTED BY IDOCK:   -4.35 KCAL/MOL
REMARK 924 INTRA-LIGAND FREE ENERGY PREDICTED BY IDOCK:   -1.05 KCAL/MOL
REMARK 927      BINDING AFFINITY PREDICTED BY RF-SCORE:    0.00 PKD
ROOT
HETATM    1  C   UNL     1      -9.137  11.298  68.221  1.00  0.00    -0.173 C  
HETATM    2  C   UNL     1     -10.457  11.837  68.791  1.00  0.00    -0.221 C  
HETATM    3  C   UNL     1     -11.514  10.809  68.417  1.00  0.00    -0.358 C  
HETATM    4  C   UNL     1     -10.765   9.706  67.656  1.00  0.00    -0.262 C  
HETATM    5  C   UNL     1     -10.265   8.642  68.635  1.00  0.00    -0.214 C  
HETATM    6  N   UNL     1      -9.570  10.444  66.999  1.00  0.00    -0.163 N  
HETATM    7  C   UNL     1      -9.104   9.073  69.551  1.00  0.00    -0.151 C  
HETATM    8  C   UNL     1     -10.071  11.369  65.862  1.00  0.00    -0.243 C  
HETATM    9  C   UNL     1      -8.441  10.430  69.270  1.00  0.00    -0.162 C  
ENDROOT
BRANCH   6  10
HETATM   10  C   UNL     1      -8.455   9.492  66.421  1.00  0.00    -0.126 C  
HETATM   11  C   UNL     1      -7.256  10.278  65.886  1.00  0.00    -0.131 C  
HETATM   12  C   UNL     1      -9.007   8.541  65.354  1.00  0.00    -0.150 C  
ENDBRANCH   6  10
BRANCH   7  13
HETATM   13  O   UNL     1      -9.546   9.041  70.921  1.00  0.00    -0.216 OA 
BRANCH  13  14
HETATM   14  C   UNL     1      -8.629   8.500  71.792  1.00  0.00    -0.190 C  
HETATM   15  C   UNL     1      -7.853   7.379  71.126  1.00  0.00    -0.092 C  
HETATM   16  O   UNL     1      -8.500   8.863  72.955  1.00  0.00    -0.358 OA 
HETATM   17  C   UNL     1      -6.411   7.394  71.649  1.00  0.00    -0.039 C  
HETATM   18  C   UNL     1      -8.545   6.047  71.338  1.00  0.00    -0.129 A  
HETATM   19  C   UNL     1      -9.005   5.310  70.237  1.00  0.00    -0.153 A  
HETATM   20  O   UNL     1      -5.765   8.600  71.242  1.00  0.00    -0.034 OA 
HETATM   21  H   UNL     1      -4.871   8.610  71.566  1.00  0.00     0.000 HD 
HETATM   22  C   UNL     1      -9.674   4.098  70.423  1.00  0.00    -0.271 A  
HETATM   23  C   UNL     1      -9.891   3.611  71.710  1.00  0.00    -0.235 A  
HETATM   24  C   UNL     1      -9.436   4.329  72.812  1.00  0.00    -0.158 A  
HETATM   25  C   UNL     1      -8.766   5.539  72.629  1.00  0.00    -0.123 A  
ENDBRANCH  13  14
ENDBRANCH   7  13
TORSDOF 3
ENDMDL
MODEL      132
REMARK 921   NORMALIZED FREE ENERGY PREDICTED BY IDOCK:   -3.67 KCAL/MOL
REMARK 922        TOTAL FREE ENERGY PREDICTED BY IDOCK:   -5.39 KCAL/MOL
REMARK 923 INTER-LIGAND FREE ENERGY PREDICTED BY IDOCK:   -4.28 KCAL/MOL
REMARK 924 INTRA-LIGAND FREE ENERGY PREDICTED BY IDOCK:   -1.11 KCAL/MOL
REMARK 927      BINDING AFFINITY PREDICTED BY RF-SCORE:    0.00 PKD
ROOT
HETATM    1  C   UNL     1      -8.297   8.592  67.265  1.00  0.00    -0.115 C  
HETATM    2  C   UNL     1      -6.967   8.432  68.015  1.00  0.00    -0.081 C  
HETATM    3  C   UNL     1      -6.616   9.821  68.527  1.00  0.00    -0.051 C  
HETATM    4  C   UNL     1      -7.763  10.732  68.065  1.00  0.00    -0.101 C  
HETATM    5  C   UNL     1      -8.865  10.763  69.125  1.00  0.00    -0.098 C  
HETATM    6  N   UNL     1      -8.278  10.061  66.765  1.00  0.00    -0.121 N  
HETATM    7  C   UNL     1      -9.688   9.469  69.269  1.00  0.00    -0.176 C  
HETATM    8  C   UNL     1      -7.234  10.219  65.631  1.00  0.00    -0.148 C  
HETATM    9  C   UNL     1      -9.461   8.361  68.228  1.00  0.00    -0.147 C  
ENDROOT
BRANCH   6  10
HETATM   10  C   UNL     1      -9.664  10.611  66.255  1.00  0.00    -0.199 C  
HETATM   11  C   UNL     1     -10.031  10.043  64.882  1.00  0.00    -0.286 C  
HETATM   12  C   UNL     1      -9.706  12.142  66.242  1.00  0.00    -0.251 C  
ENDBRANCH   6  10
BRANCH   7  13
HETATM   13  O   UNL     1      -9.484   8.923  70.586  1.00  0.00    -0.180 OA 
BRANCH  13  14
HETATM   14  C   UNL     1     -10.366   7.922  70.919  1.00  0.00    -0.200 C  
HETATM   15  C   UNL     1      -9.647   6.780  71.612  1.00  0.00    -0.163 C  
HETATM   16  O   UNL     1     -11.561   7.951  70.648  1.00  0.00    -0.275 OA 
HETATM   17  C   UNL     1     -10.573   6.184  72.680  1.00  0.00    -0.218 C  
HETATM   18  C   UNL     1      -9.170   5.754  70.603  1.00  0.00    -0.172 A  
HETATM   19  C   UNL     1      -7.801   5.482  70.469  1.00  0.00    -0.098 A  
HETATM   20  O   UNL     1     -10.820   7.155  73.698  1.00  0.00    -0.521 OA 
HETATM   21  H   UNL     1     -11.394   6.786  74.360  1.00  0.00     0.000 HD 
HETATM   22  C   UNL     1      -7.350   4.564  69.519  1.00  0.00    -0.051 A  
HETATM   23  C   UNL     1      -8.260   3.908  68.693  1.00  0.00    -0.083 A  
HETATM   24  C   UNL     1      -9.623   4.164  68.818  1.00  0.00    -0.210 A  
HETATM   25  C   UNL     1     -10.077   5.080  69.768  1.00  0.00    -0.337 A  
ENDBRANCH  13  14
ENDBRANCH   7  13
TORSDOF 3
ENDMDL
MODEL      133
REMARK 921   NORMALIZED FREE ENERGY PREDICTED BY IDOCK:   -3.65 KCAL/MOL
REMARK 922        TOTAL FREE ENERGY PREDICTED BY IDOCK:   -5.37 KCAL/MOL
REMARK 923 INTER-LIGAND FREE ENERGY PREDICTED BY IDOCK:   -4.69 KCAL/MOL
REMARK 924 INTRA-LIGAND FREE ENERGY PREDICTED BY IDOCK:   -0.68 KCAL/MOL
REMARK 927      BINDING AFFINITY PREDICTED BY RF-SCORE:    0.00 PKD
ROOT
HETATM    1  C   UNL     1     -11.278  11.728  67.339  1.00  0.00    -0.297 C  
HETATM    2  C   UNL     1     -10.981  10.270  66.959  1.00  0.00    -0.189 C  
HETATM    3  C   UNL     1      -9.952  10.342  65.841  1.00  0.00    -0.321 C  
HETATM    4  C   UNL     1      -9.681  11.838  65.624  1.00  0.00    -0.233 C  
HETATM    5  C   UNL     1      -8.537  12.298  66.529  1.00  0.00    -0.039 C  
HETATM    6  N   UNL     1     -11.009  12.525  66.035  1.00  0.00    -0.274 N  
HETATM    7  C   UNL     1      -8.864  12.373  68.032  1.00  0.00    -0.187 C  
HETATM    8  C   UNL     1     -12.115  12.221  64.994  1.00  0.00    -0.327 C  
HETATM    9  C   UNL     1     -10.328  12.172  68.453  1.00  0.00    -0.236 C  
ENDROOT
BRANCH   6  10
HETATM   10  C   UNL     1     -10.904  14.087  66.217  1.00  0.00    -0.291 C  
HETATM   11  C   UNL     1     -12.127  14.661  66.935  1.00  0.00    -0.224 C  
HETATM   12  C   UNL     1     -10.663  14.806  64.886  1.00  0.00    -0.438 C  
ENDBRANCH   6  10
BRANCH   7  13
HETATM   13  O   UNL     1      -8.039  11.431  68.742  1.00  0.00    -0.145 OA 
BRANCH  13  14
HETATM   14  C   UNL     1      -6.734  11.839  68.900  1.00  0.00    -0.094 C  
HETATM   15  C   UNL     1      -6.646  12.985  69.891  1.00  0.00     0.129 C  
HETATM   16  O   UNL     1      -5.792  11.356  68.284  1.00  0.00    -0.046 OA 
HETATM   17  C   UNL     1      -5.344  12.851  70.691  1.00  0.00    -0.154 C  
HETATM   18  C   UNL     1      -6.771  14.319  69.183  1.00  0.00    -0.118 A  
HETATM   19  C   UNL     1      -7.830  15.184  69.491  1.00  0.00    -0.186 A  
HETATM   20  O   UNL     1      -5.386  11.662  71.482  1.00  0.00    -0.336 OA 
HETATM   21  H   UNL     1      -4.579  11.580  71.978  1.00  0.00     0.000 HD 
HETATM   22  C   UNL     1      -7.973  16.399  68.820  1.00  0.00    -0.233 A  
HETATM   23  C   UNL     1      -7.059  16.765  67.834  1.00  0.00    -0.152 A  
HETATM   24  C   UNL     1      -5.999  15.919  67.520  1.00  0.00    -0.162 A  
HETATM   25  C   UNL     1      -5.853  14.704  68.191  1.00  0.00    -0.138 A  
ENDBRANCH  13  14
ENDBRANCH   7  13
TORSDOF 3
ENDMDL
MODEL      134
REMARK 921   NORMALIZED FREE ENERGY PREDICTED BY IDOCK:   -3.62 KCAL/MOL
REMARK 922        TOTAL FREE ENERGY PREDICTED BY IDOCK:   -5.33 KCAL/MOL
REMARK 923 INTER-LIGAND FREE ENERGY PREDICTED BY IDOCK:   -4.90 KCAL/MOL
REMARK 924 INTRA-LIGAND FREE ENERGY PREDICTED BY IDOCK:   -0.43 KCAL/MOL
REMARK 927      BINDING AFFINITY PREDICTED BY RF-SCORE:    0.00 PKD
ROOT
HETATM    1  C   UNL     1     -11.950  16.032  69.679  1.00  0.00    -0.180 C  
HETATM    2  C   UNL     1     -10.432  16.192  69.514  1.00  0.00    -0.295 C  
HETATM    3  C   UNL     1      -9.811  15.064  70.324  1.00  0.00     0.307 C  
HETATM    4  C   UNL     1     -10.993  14.284  70.917  1.00  0.00     0.772 C  
HETATM    5  C   UNL     1     -11.425  13.178  69.953  1.00  0.00    -0.159 C  
HETATM    6  N   UNL     1     -12.113  15.346  71.062  1.00  0.00    -0.329 N  
HETATM    7  C   UNL     1     -12.128  13.651  68.667  1.00  0.00    -0.290 C  
HETATM    8  C   UNL     1     -11.760  16.347  72.190  1.00  0.00    -0.368 C  
HETATM    9  C   UNL     1     -12.496  15.140  68.563  1.00  0.00     0.337 C  
ENDROOT
BRANCH   6  10
HETATM   10  C   UNL     1     -13.543  14.750  71.347  1.00  0.00    -0.420 C  
HETATM   11  C   UNL     1     -14.407  15.709  72.168  1.00  0.00    -0.497 C  
HETATM   12  C   UNL     1     -13.470  13.372  72.013  1.00  0.00    -0.584 C  
ENDBRANCH   6  10
BRANCH   7  13
HETATM   13  O   UNL     1     -11.325  13.287  67.529  1.00  0.00    -0.270 OA 
BRANCH  13  14
HETATM   14  C   UNL     1     -11.748  13.846  66.345  1.00  0.00    -0.383 C  
HETATM   15  C   UNL     1     -10.563  14.223  65.475  1.00  0.00    -0.351 C  
HETATM   16  O   UNL     1     -12.925  14.039  66.067  1.00  0.00    -0.381 OA 
HETATM   17  C   UNL     1     -10.933  13.994  64.004  1.00  0.00     0.217 C  
HETATM   18  C   UNL     1     -10.119  15.644  65.760  1.00  0.00    -0.394 A  
HETATM   19  C   UNL     1      -8.828  15.895  66.245  1.00  0.00    -0.386 A  
HETATM   20  O   UNL     1     -11.147  12.601  63.774  1.00  0.00    -0.402 OA 
HETATM   21  H   UNL     1     -11.376  12.459  62.863  1.00  0.00     0.000 HD 
HETATM   22  C   UNL     1      -8.422  17.197  66.543  1.00  0.00    -0.309 A  
HETATM   23  C   UNL     1      -9.300  18.263  66.358  1.00  0.00    -0.280 A  
HETATM   24  C   UNL     1     -10.584  18.030  65.872  1.00  0.00    -0.225 A  
HETATM   25  C   UNL     1     -10.992  16.729  65.572  1.00  0.00    -0.033 A  
ENDBRANCH  13  14
ENDBRANCH   7  13
TORSDOF 3
ENDMDL
MODEL      135
REMARK 921   NORMALIZED FREE ENERGY PREDICTED BY IDOCK:   -3.59 KCAL/MOL
REMARK 922        TOTAL FREE ENERGY PREDICTED BY IDOCK:   -5.30 KCAL/MOL
REMARK 923 INTER-LIGAND FREE ENERGY PREDICTED BY IDOCK:   -4.69 KCAL/MOL
REMARK 924 INTRA-LIGAND FREE ENERGY PREDICTED BY IDOCK:   -0.61 KCAL/MOL
REMARK 927      BINDING AFFINITY PREDICTED BY RF-SCORE:    0.00 PKD
ROOT
HETATM    1  C   UNL     1     -10.737   5.633  68.459  1.00  0.00    -0.162 C  
HETATM    2  C   UNL     1     -11.227   6.178  69.809  1.00  0.00    -0.494 C  
HETATM    3  C   UNL     1     -10.041   6.920  70.405  1.00  0.00    -0.201 C  
HETATM    4  C   UNL     1      -8.912   6.789  69.372  1.00  0.00    -0.137 C  
HETATM    5  C   UNL     1      -8.974   7.953  68.380  1.00  0.00    -0.133 C  
HETATM    6  N   UNL     1      -9.209   5.448  68.655  1.00  0.00    -0.114 N  
HETATM    7  C   UNL     1     -10.152   7.920  67.388  1.00  0.00    -0.226 C  
HETATM    8  C   UNL     1      -8.941   4.258  69.611  1.00  0.00    -0.102 C  
HETATM    9  C   UNL     1     -11.024   6.655  67.359  1.00  0.00    -0.434 C  
ENDROOT
BRANCH   6  10
HETATM   10  C   UNL     1      -8.388   5.223  67.328  1.00  0.00    -0.107 C  
HETATM   11  C   UNL     1      -8.868   3.987  66.564  1.00  0.00    -0.122 C  
HETATM   12  C   UNL     1      -6.880   5.155  67.589  1.00  0.00    -0.060 C  
ENDBRANCH   6  10
BRANCH   7  13
HETATM   13  O   UNL     1     -10.995   9.065  67.620  1.00  0.00    -0.152 OA 
BRANCH  13  14
HETATM   14  C   UNL     1     -10.314  10.259  67.671  1.00  0.00    -0.220 C  
HETATM   15  C   UNL     1     -10.249  10.901  66.298  1.00  0.00    -0.300 C  
HETATM   16  O   UNL     1      -9.803  10.706  68.691  1.00  0.00    -0.164 OA 
HETATM   17  C   UNL     1     -10.334  12.424  66.456  1.00  0.00    -0.228 C  
HETATM   18  C   UNL     1      -9.008  10.451  65.553  1.00  0.00    -0.199 A  
HETATM   19  C   UNL     1      -9.127   9.750  64.345  1.00  0.00    -0.296 A  
HETATM   20  O   UNL     1     -11.611  12.782  66.986  1.00  0.00    -0.321 OA 
HETATM   21  H   UNL     1     -11.663  13.726  67.084  1.00  0.00     0.000 HD 
HETATM   22  C   UNL     1      -7.990   9.302  63.669  1.00  0.00    -0.141 A  
HETATM   23  C   UNL     1      -6.723   9.549  64.192  1.00  0.00    -0.101 A  
HETATM   24  C   UNL     1      -6.589  10.248  65.388  1.00  0.00    -0.122 A  
HETATM   25  C   UNL     1      -7.723  10.699  66.065  1.00  0.00    -0.151 A  
ENDBRANCH  13  14
ENDBRANCH   7  13
TORSDOF 3
ENDMDL
MODEL      136
REMARK 921   NORMALIZED FREE ENERGY PREDICTED BY IDOCK:   -3.58 KCAL/MOL
REMARK 922        TOTAL FREE ENERGY PREDICTED BY IDOCK:   -5.29 KCAL/MOL
REMARK 923 INTER-LIGAND FREE ENERGY PREDICTED BY IDOCK:   -5.22 KCAL/MOL
REMARK 924 INTRA-LIGAND FREE ENERGY PREDICTED BY IDOCK:   -0.07 KCAL/MOL
REMARK 927      BINDING AFFINITY PREDICTED BY RF-SCORE:    0.00 PKD
ROOT
HETATM    1  C   UNL     1      -9.747  11.505  66.044  1.00  0.00    -0.226 C  
HETATM    2  C   UNL     1      -8.224  11.307  66.058  1.00  0.00    -0.045 C  
HETATM    3  C   UNL     1      -7.793  11.561  67.494  1.00  0.00    -0.133 C  
HETATM    4  C   UNL     1      -9.083  11.884  68.262  1.00  0.00    -0.183 C  
HETATM    5  C   UNL     1      -9.700  10.597  68.813  1.00  0.00    -0.193 C  
HETATM    6  N   UNL     1     -10.011  12.515  67.192  1.00  0.00    -0.214 N  
HETATM    7  C   UNL     1     -10.324   9.655  67.766  1.00  0.00    -0.236 C  
HETATM    8  C   UNL     1      -9.489  13.917  66.790  1.00  0.00    -0.279 C  
HETATM    9  C   UNL     1     -10.441  10.172  66.324  1.00  0.00    -0.192 C  
ENDROOT
BRANCH   6  10
HETATM   10  C   UNL     1     -11.518  12.646  67.633  1.00  0.00    -0.334 C  
HETATM   11  C   UNL     1     -12.363  13.355  66.573  1.00  0.00    -0.354 C  
HETATM   12  C   UNL     1     -11.661  13.332  68.996  1.00  0.00    -0.368 C  
ENDBRANCH   6  10
BRANCH   7  13
HETATM   13  O   UNL     1      -9.600   8.410  67.761  1.00  0.00    -0.149 OA 
BRANCH  13  14
HETATM   14  C   UNL     1      -8.956   8.133  68.944  1.00  0.00    -0.141 C  
HETATM   15  C   UNL     1      -9.574   6.926  69.624  1.00  0.00    -0.146 C  
HETATM   16  O   UNL     1      -8.034   8.807  69.390  1.00  0.00    -0.096 OA 
HETATM   17  C   UNL     1      -8.468   6.133  70.332  1.00  0.00    -0.133 C  
HETATM   18  C   UNL     1     -10.689   7.349  70.559  1.00  0.00    -0.247 A  
HETATM   19  C   UNL     1     -12.000   6.902  70.340  1.00  0.00    -0.312 A  
HETATM   20  O   UNL     1      -7.562   5.604  69.363  1.00  0.00    -0.079 OA 
HETATM   21  H   UNL     1      -6.877   5.112  69.801  1.00  0.00     0.000 HD 
HETATM   22  C   UNL     1     -13.040   7.313  71.175  1.00  0.00    -0.291 A  
HETATM   23  C   UNL     1     -12.783   8.176  72.238  1.00  0.00    -0.292 A  
HETATM   24  C   UNL     1     -11.486   8.625  72.472  1.00  0.00    -0.287 A  
HETATM   25  C   UNL     1     -10.444   8.214  71.639  1.00  0.00    -0.288 A  
ENDBRANCH  13  14
ENDBRANCH   7  13
TORSDOF 3
ENDMDL
MODEL      137
REMARK 921   NORMALIZED FREE ENERGY PREDICTED BY IDOCK:   -3.57 KCAL/MOL
REMARK 922        TOTAL FREE ENERGY PREDICTED BY IDOCK:   -5.27 KCAL/MOL
REMARK 923 INTER-LIGAND FREE ENERGY PREDICTED BY IDOCK:   -4.85 KCAL/MOL
REMARK 924 INTRA-LIGAND FREE ENERGY PREDICTED BY IDOCK:   -0.42 KCAL/MOL
REMARK 927      BINDING AFFINITY PREDICTED BY RF-SCORE:    0.00 PKD
ROOT
HETATM    1  C   UNL     1      -9.822   9.470  66.137  1.00  0.00    -0.272 C  
HETATM    2  C   UNL     1     -10.528   8.864  67.359  1.00  0.00    -0.347 C  
HETATM    3  C   UNL     1      -9.719   9.317  68.565  1.00  0.00    -0.162 C  
HETATM    4  C   UNL     1      -8.582  10.179  67.998  1.00  0.00    -0.118 C  
HETATM    5  C   UNL     1      -9.027  11.641  67.913  1.00  0.00    -0.170 C  
HETATM    6  N   UNL     1      -8.341   9.601  66.580  1.00  0.00    -0.123 N  
HETATM    7  C   UNL     1     -10.073  11.956  66.827  1.00  0.00    -0.202 C  
HETATM    8  C   UNL     1      -7.693   8.197  66.676  1.00  0.00    -0.094 C  
HETATM    9  C   UNL     1     -10.420  10.843  65.827  1.00  0.00    -0.275 C  
ENDROOT
BRANCH   6  10
HETATM   10  C   UNL     1      -7.445  10.507  65.652  1.00  0.00    -0.129 C  
HETATM   11  C   UNL     1      -7.329   9.935  64.238  1.00  0.00    -0.133 C  
HETATM   12  C   UNL     1      -6.059  10.757  66.257  1.00  0.00    -0.126 C  
ENDBRANCH   6  10
BRANCH   7  13
HETATM   13  O   UNL     1     -11.284  12.414  67.458  1.00  0.00    -0.260 OA 
BRANCH  13  14
HETATM   14  C   UNL     1     -11.077  13.113  68.624  1.00  0.00    -0.269 C  
HETATM   15  C   UNL     1     -11.215  14.605  68.389  1.00  0.00    -0.290 C  
HETATM   16  O   UNL     1     -10.783  12.584  69.690  1.00  0.00     0.173 OA 
HETATM   17  C   UNL     1     -11.843  15.249  69.632  1.00  0.00    -0.339 C  
HETATM   18  C   UNL     1      -9.878  15.216  68.017  1.00  0.00    -0.213 A  
HETATM   19  C   UNL     1      -9.711  15.841  66.772  1.00  0.00    -0.251 A  
HETATM   20  O   UNL     1     -13.175  14.764  69.803  1.00  0.00    -0.337 OA 
HETATM   21  H   UNL     1     -13.564  15.163  70.573  1.00  0.00     0.000 HD 
HETATM   22  C   UNL     1      -8.475  16.376  66.407  1.00  0.00    -0.364 A  
HETATM   23  C   UNL     1      -7.392  16.294  67.280  1.00  0.00    -0.216 A  
HETATM   24  C   UNL     1      -7.544  15.682  68.521  1.00  0.00    -0.132 A  
HETATM   25  C   UNL     1      -8.779  15.147  68.889  1.00  0.00    -0.205 A  
ENDBRANCH  13  14
ENDBRANCH   7  13
TORSDOF 3
ENDMDL
MODEL      138
REMARK 921   NORMALIZED FREE ENERGY PREDICTED BY IDOCK:   -3.56 KCAL/MOL
REMARK 922        TOTAL FREE ENERGY PREDICTED BY IDOCK:   -5.26 KCAL/MOL
REMARK 923 INTER-LIGAND FREE ENERGY PREDICTED BY IDOCK:   -5.03 KCAL/MOL
REMARK 924 INTRA-LIGAND FREE ENERGY PREDICTED BY IDOCK:   -0.23 KCAL/MOL
REMARK 927      BINDING AFFINITY PREDICTED BY RF-SCORE:    0.00 PKD
ROOT
HETATM    1  C   UNL     1      -8.733  11.067  66.791  1.00  0.00    -0.152 C  
HETATM    2  C   UNL     1      -9.773  11.409  67.867  1.00  0.00    -0.186 C  
HETATM    3  C   UNL     1     -11.025  10.633  67.486  1.00  0.00    -0.371 C  
HETATM    4  C   UNL     1     -10.658   9.860  66.211  1.00  0.00    -0.018 C  
HETATM    5  C   UNL     1     -10.080   8.491  66.578  1.00  0.00    -0.328 C  
HETATM    6  N   UNL     1      -9.579  10.741  65.532  1.00  0.00    -0.207 N  
HETATM    7  C   UNL     1      -8.675   8.509  67.208  1.00  0.00    -0.130 C  
HETATM    8  C   UNL     1     -10.218  12.038  64.976  1.00  0.00    -0.276 C  
HETATM    9  C   UNL     1      -7.921   9.847  67.231  1.00  0.00    -0.109 C  
ENDROOT
BRANCH   6  10
HETATM   10  C   UNL     1      -8.794  10.026  64.367  1.00  0.00    -0.213 C  
HETATM   11  C   UNL     1      -7.313  10.409  64.358  1.00  0.00    -0.002 C  
HETATM   12  C   UNL     1      -9.434  10.284  62.999  1.00  0.00    -0.331 C  
ENDBRANCH   6  10
BRANCH   7  13
HETATM   13  O   UNL     1      -8.753   7.992  68.550  1.00  0.00    -0.131 OA 
BRANCH  13  14
HETATM   14  C   UNL     1      -8.692   6.620  68.625  1.00  0.00    -0.124 C  
HETATM   15  C   UNL     1     -10.085   6.023  68.711  1.00  0.00    -0.210 C  
HETATM   16  O   UNL     1      -7.644   5.987  68.655  1.00  0.00    -0.088 OA 
HETATM   17  C   UNL     1     -10.104   4.692  67.950  1.00  0.00    -0.021 C  
HETATM   18  C   UNL     1     -10.521   5.886  70.156  1.00  0.00    -0.329 A  
HETATM   19  C   UNL     1     -11.651   6.575  70.619  1.00  0.00    -0.442 A  
HETATM   20  O   UNL     1      -9.875   4.929  66.560  1.00  0.00    -0.163 OA 
HETATM   21  H   UNL     1      -9.887   4.104  66.089  1.00  0.00     0.000 HD 
HETATM   22  C   UNL     1     -12.041   6.482  71.957  1.00  0.00    -0.358 A  
HETATM   23  C   UNL     1     -11.308   5.699  72.845  1.00  0.00    -0.325 A  
HETATM   24  C   UNL     1     -10.187   5.005  72.399  1.00  0.00    -0.254 A  
HETATM   25  C   UNL     1      -9.796   5.095  71.062  1.00  0.00    -0.261 A  
ENDBRANCH  13  14
ENDBRANCH   7  13
TORSDOF 3
ENDMDL
MODEL      139
REMARK 921   NORMALIZED FREE ENERGY PREDICTED BY IDOCK:   -3.55 KCAL/MOL
REMARK 922        TOTAL FREE ENERGY PREDICTED BY IDOCK:   -5.25 KCAL/MOL
REMARK 923 INTER-LIGAND FREE ENERGY PREDICTED BY IDOCK:   -4.43 KCAL/MOL
REMARK 924 INTRA-LIGAND FREE ENERGY PREDICTED BY IDOCK:   -0.82 KCAL/MOL
REMARK 927      BINDING AFFINITY PREDICTED BY RF-SCORE:    0.00 PKD
ROOT
HETATM    1  C   UNL     1      -7.068   8.743  66.414  1.00  0.00    -0.083 C  
HETATM    2  C   UNL     1      -6.353   9.422  67.591  1.00  0.00    -0.058 C  
HETATM    3  C   UNL     1      -7.183  10.653  67.919  1.00  0.00    -0.087 C  
HETATM    4  C   UNL     1      -8.356  10.635  66.928  1.00  0.00    -0.125 C  
HETATM    5  C   UNL     1      -9.528   9.849  67.520  1.00  0.00    -0.173 C  
HETATM    6  N   UNL     1      -7.788   9.908  65.683  1.00  0.00    -0.122 N  
HETATM    7  C   UNL     1      -9.327   8.325  67.615  1.00  0.00    -0.137 C  
HETATM    8  C   UNL     1      -6.747  10.804  64.967  1.00  0.00     0.192 C  
HETATM    9  C   UNL     1      -8.080   7.727  66.945  1.00  0.00    -0.116 C  
ENDROOT
BRANCH   6  10
HETATM   10  C   UNL     1      -8.878   9.465  64.634  1.00  0.00    -0.200 C  
HETATM   11  C   UNL     1      -8.268   8.663  63.482  1.00  0.00    -0.150 C  
HETATM   12  C   UNL     1      -9.685  10.655  64.106  1.00  0.00    -0.378 C  
ENDBRANCH   6  10
BRANCH   7  13
HETATM   13  O   UNL     1      -9.348   7.931  69.001  1.00  0.00    -0.151 OA 
BRANCH  13  14
HETATM   14  C   UNL     1     -10.614   7.792  69.522  1.00  0.00    -0.221 C  
HETATM   15  C   UNL     1     -10.759   8.595  70.801  1.00  0.00    -0.260 C  
HETATM   16  O   UNL     1     -11.479   7.081  69.026  1.00  0.00     0.016 OA 
HETATM   17  C   UNL     1     -12.186   9.152  70.880  1.00  0.00    -0.183 C  
HETATM   18  C   UNL     1     -10.383   7.757  72.007  1.00  0.00    -0.267 A  
HETATM   19  C   UNL     1      -9.313   8.142  72.827  1.00  0.00    -0.344 A  
HETATM   20  O   UNL     1     -12.398  10.083  69.818  1.00  0.00    -0.488 OA 
HETATM   21  H   UNL     1     -13.282  10.428  69.867  1.00  0.00     0.000 HD 
HETATM   22  C   UNL     1      -8.938   7.358  73.920  1.00  0.00    -0.281 A  
HETATM   23  C   UNL     1      -9.627   6.183  74.206  1.00  0.00    -0.215 A  
HETATM   24  C   UNL     1     -10.695   5.790  73.404  1.00  0.00    -0.303 A  
HETATM   25  C   UNL     1     -11.074   6.572  72.312  1.00  0.00    -0.297 A  
ENDBRANCH  13  14
ENDBRANCH   7  13
TORSDOF 3
ENDMDL
MODEL      140
REMARK 921   NORMALIZED FREE ENERGY PREDICTED BY IDOCK:   -3.54 KCAL/MOL
REMARK 922        TOTAL FREE ENERGY PREDICTED BY IDOCK:   -5.24 KCAL/MOL
REMARK 923 INTER-LIGAND FREE ENERGY PREDICTED BY IDOCK:   -4.48 KCAL/MOL
REMARK 924 INTRA-LIGAND FREE ENERGY PREDICTED BY IDOCK:   -0.76 KCAL/MOL
REMARK 927      BINDING AFFINITY PREDICTED BY RF-SCORE:    0.00 PKD
ROOT
HETATM    1  C   UNL     1     -11.103   8.252  69.584  1.00  0.00    -0.001 C  
HETATM    2  C   UNL     1     -11.472   9.074  70.828  1.00  0.00    -0.331 C  
HETATM    3  C   UNL     1     -10.179   9.230  71.613  1.00  0.00    -0.271 C  
HETATM    4  C   UNL     1      -9.106   8.504  70.788  1.00  0.00    -0.165 C  
HETATM    5  C   UNL     1      -8.466   9.475  69.794  1.00  0.00    -0.185 C  
HETATM    6  N   UNL     1      -9.890   7.397  70.038  1.00  0.00    -0.179 N  
HETATM    7  C   UNL     1      -9.359   9.908  68.616  1.00  0.00    -0.149 C  
HETATM    8  C   UNL     1     -10.358   6.305  71.032  1.00  0.00    -0.211 C  
HETATM    9  C   UNL     1     -10.709   9.193  68.446  1.00  0.00    -0.163 C  
ENDROOT
BRANCH   6  10
HETATM   10  C   UNL     1      -9.086   6.707  68.872  1.00  0.00    -0.132 C  
HETATM   11  C   UNL     1      -9.946   5.699  68.106  1.00  0.00    -0.186 C  
HETATM   12  C   UNL     1      -7.793   6.055  69.372  1.00  0.00    -0.099 C  
ENDBRANCH   6  10
BRANCH   7  13
HETATM   13  O   UNL     1      -9.588  11.328  68.695  1.00  0.00    -0.196 OA 
BRANCH  13  14
HETATM   14  C   UNL     1      -8.939  12.052  67.722  1.00  0.00    -0.176 C  
HETATM   15  C   UNL     1      -8.264  13.272  68.320  1.00  0.00    -0.156 C  
HETATM   16  O   UNL     1      -8.950  11.756  66.533  1.00  0.00    -0.191 OA 
HETATM   17  C   UNL     1      -6.951  13.532  67.570  1.00  0.00    -0.145 C  
HETATM   18  C   UNL     1      -9.199  14.465  68.307  1.00  0.00    -0.201 A  
HETATM   19  C   UNL     1      -9.584  15.072  69.511  1.00  0.00    -0.094 A  
HETATM   20  O   UNL     1      -6.048  12.448  67.792  1.00  0.00    -0.082 OA 
HETATM   21  H   UNL     1      -5.235  12.609  67.327  1.00  0.00     0.000 HD 
HETATM   22  C   UNL     1     -10.472  16.149  69.511  1.00  0.00    -0.295 A  
HETATM   23  C   UNL     1     -10.985  16.632  68.309  1.00  0.00    -0.341 A  
HETATM   24  C   UNL     1     -10.609  16.042  67.105  1.00  0.00    -0.305 A  
HETATM   25  C   UNL     1      -9.720  14.966  67.102  1.00  0.00    -0.229 A  
ENDBRANCH  13  14
ENDBRANCH   7  13
TORSDOF 3
ENDMDL
MODEL      141
REMARK 921   NORMALIZED FREE ENERGY PREDICTED BY IDOCK:   -3.54 KCAL/MOL
REMARK 922        TOTAL FREE ENERGY PREDICTED BY IDOCK:   -5.23 KCAL/MOL
REMARK 923 INTER-LIGAND FREE ENERGY PREDICTED BY IDOCK:   -4.38 KCAL/MOL
REMARK 924 INTRA-LIGAND FREE ENERGY PREDICTED BY IDOCK:   -0.85 KCAL/MOL
REMARK 927      BINDING AFFINITY PREDICTED BY RF-SCORE:    0.00 PKD
ROOT
HETATM    1  C   UNL     1     -10.761  14.165  67.145  1.00  0.00    -0.280 C  
HETATM    2  C   UNL     1     -10.097  14.585  65.825  1.00  0.00    -0.365 C  
HETATM    3  C   UNL     1      -9.041  15.611  66.208  1.00  0.00    -0.376 C  
HETATM    4  C   UNL     1      -9.124  15.738  67.736  1.00  0.00    -0.188 C  
HETATM    5  C   UNL     1      -8.188  14.724  68.396  1.00  0.00    -0.154 C  
HETATM    6  N   UNL     1     -10.602  15.407  68.063  1.00  0.00    -0.257 N  
HETATM    7  C   UNL     1      -8.627  13.251  68.297  1.00  0.00    -0.169 C  
HETATM    8  C   UNL     1     -11.529  16.547  67.572  1.00  0.00     0.275 C  
HETATM    9  C   UNL     1     -10.025  12.960  67.730  1.00  0.00    -0.230 C  
ENDROOT
BRANCH   6  10
HETATM   10  C   UNL     1     -10.888  15.148  69.591  1.00  0.00    -0.286 C  
HETATM   11  C   UNL     1     -12.058  14.183  69.796  1.00  0.00    -0.409 C  
HETATM   12  C   UNL     1     -11.112  16.452  70.364  1.00  0.00    -0.246 C  
ENDBRANCH   6  10
BRANCH   7  13
HETATM   13  O   UNL     1      -7.650  12.518  67.534  1.00  0.00    -0.134 OA 
BRANCH  13  14
HETATM   14  C   UNL     1      -6.938  11.600  68.272  1.00  0.00    -0.074 C  
HETATM   15  C   UNL     1      -7.337  10.185  67.899  1.00  0.00    -0.087 C  
HETATM   16  O   UNL     1      -6.125  11.907  69.136  1.00  0.00    -0.065 OA 
HETATM   17  C   UNL     1      -6.100   9.281  67.981  1.00  0.00    -0.049 C  
HETATM   18  C   UNL     1      -8.481   9.702  68.768  1.00  0.00    -0.123 A  
HETATM   19  C   UNL     1      -9.708   9.352  68.187  1.00  0.00    -0.164 A  
HETATM   20  O   UNL     1      -5.146   9.682  66.997  1.00  0.00    -0.034 OA 
HETATM   21  H   UNL     1      -4.380   9.122  67.048  1.00  0.00     0.000 HD 
HETATM   22  C   UNL     1     -10.779   8.939  68.983  1.00  0.00    -0.148 A  
HETATM   23  C   UNL     1     -10.636   8.872  70.366  1.00  0.00    -0.252 A  
HETATM   24  C   UNL     1      -9.422   9.211  70.958  1.00  0.00    -0.344 A  
HETATM   25  C   UNL     1      -8.350   9.623  70.165  1.00  0.00    -0.221 A  
ENDBRANCH  13  14
ENDBRANCH   7  13
TORSDOF 3
ENDMDL
MODEL      142
REMARK 921   NORMALIZED FREE ENERGY PREDICTED BY IDOCK:   -3.51 KCAL/MOL
REMARK 922        TOTAL FREE ENERGY PREDICTED BY IDOCK:   -5.21 KCAL/MOL
REMARK 923 INTER-LIGAND FREE ENERGY PREDICTED BY IDOCK:   -4.31 KCAL/MOL
REMARK 924 INTRA-LIGAND FREE ENERGY PREDICTED BY IDOCK:   -0.90 KCAL/MOL
REMARK 927      BINDING AFFINITY PREDICTED BY RF-SCORE:    0.00 PKD
ROOT
HETATM    1  C   UNL     1      -6.121   7.752  67.984  1.00  0.00    -0.045 C  
HETATM    2  C   UNL     1      -5.768   8.934  67.070  1.00  0.00    -0.045 C  
HETATM    3  C   UNL     1      -6.667   8.790  65.851  1.00  0.00    -0.064 C  
HETATM    4  C   UNL     1      -7.515   7.537  66.110  1.00  0.00    -0.083 C  
HETATM    5  C   UNL     1      -8.800   7.919  66.848  1.00  0.00    -0.146 C  
HETATM    6  N   UNL     1      -6.616   6.650  67.008  1.00  0.00    -0.046 N  
HETATM    7  C   UNL     1      -8.622   8.343  68.318  1.00  0.00    -0.139 C  
HETATM    8  C   UNL     1      -5.422   6.096  66.191  1.00  0.00    -0.013 C  
HETATM    9  C   UNL     1      -7.233   8.162  68.949  1.00  0.00    -0.078 C  
ENDROOT
BRANCH   6  10
HETATM   10  C   UNL     1      -7.365   5.443  67.689  1.00  0.00    -0.076 C  
HETATM   11  C   UNL     1      -6.427   4.612  68.567  1.00  0.00    -0.037 C  
HETATM   12  C   UNL     1      -8.082   4.558  66.664  1.00  0.00    -0.103 C  
ENDBRANCH   6  10
BRANCH   7  13
HETATM   13  O   UNL     1      -9.028   9.717  68.465  1.00  0.00    -0.122 OA 
BRANCH  13  14
HETATM   14  C   UNL     1     -10.359   9.877  68.773  1.00  0.00    -0.203 C  
HETATM   15  C   UNL     1     -10.540  10.142  70.256  1.00  0.00    -0.324 C  
HETATM   16  O   UNL     1     -11.263   9.776  67.952  1.00  0.00    -0.184 OA 
HETATM   17  C   UNL     1     -11.708  11.118  70.448  1.00  0.00    -0.320 C  
HETATM   18  C   UNL     1     -10.724   8.842  71.014  1.00  0.00    -0.315 A  
HETATM   19  C   UNL     1      -9.803   8.469  72.004  1.00  0.00    -0.383 A  
HETATM   20  O   UNL     1     -11.378  12.382  69.871  1.00  0.00    -0.497 OA 
HETATM   21  H   UNL     1     -12.101  12.986  69.990  1.00  0.00     0.000 HD 
HETATM   22  C   UNL     1      -9.944   7.258  72.685  1.00  0.00    -0.223 A  
HETATM   23  C   UNL     1     -11.006   6.408  72.385  1.00  0.00    -0.284 A  
HETATM   24  C   UNL     1     -11.931   6.767  71.408  1.00  0.00    -0.403 A  
HETATM   25  C   UNL     1     -11.793   7.978  70.727  1.00  0.00    -0.171 A  
ENDBRANCH  13  14
ENDBRANCH   7  13
TORSDOF 3
ENDMDL
MODEL      143
REMARK 921   NORMALIZED FREE ENERGY PREDICTED BY IDOCK:   -3.51 KCAL/MOL
REMARK 922        TOTAL FREE ENERGY PREDICTED BY IDOCK:   -5.20 KCAL/MOL
REMARK 923 INTER-LIGAND FREE ENERGY PREDICTED BY IDOCK:   -4.42 KCAL/MOL
REMARK 924 INTRA-LIGAND FREE ENERGY PREDICTED BY IDOCK:   -0.78 KCAL/MOL
REMARK 927      BINDING AFFINITY PREDICTED BY RF-SCORE:    0.00 PKD
ROOT
HETATM    1  C   UNL     1      -6.491  11.814  68.989  1.00  0.00    -0.084 C  
HETATM    2  C   UNL     1      -5.353  12.041  67.983  1.00  0.00    -0.053 C  
HETATM    3  C   UNL     1      -5.802  11.360  66.699  1.00  0.00    -0.144 C  
HETATM    4  C   UNL     1      -7.189  10.776  67.004  1.00  0.00    -0.109 C  
HETATM    5  C   UNL     1      -8.272  11.807  66.682  1.00  0.00    -0.117 C  
HETATM    6  N   UNL     1      -7.150  10.487  68.527  1.00  0.00    -0.073 N  
HETATM    7  C   UNL     1      -8.351  13.012  67.638  1.00  0.00    -0.181 C  
HETATM    8  C   UNL     1      -6.202   9.298  68.822  1.00  0.00    -0.044 C  
HETATM    9  C   UNL     1      -7.487  12.971  68.908  1.00  0.00     0.014 C  
ENDROOT
BRANCH   6  10
HETATM   10  C   UNL     1      -8.557  10.182  69.167  1.00  0.00    -0.165 C  
HETATM   11  C   UNL     1      -8.427   9.590  70.572  1.00  0.00    -0.213 C  
HETATM   12  C   UNL     1      -9.414   9.281  68.271  1.00  0.00    -0.148 C  
ENDBRANCH   6  10
BRANCH   7  13
HETATM   13  O   UNL     1      -8.054  14.216  66.906  1.00  0.00    -0.092 OA 
BRANCH  13  14
HETATM   14  C   UNL     1      -9.168  14.889  66.461  1.00  0.00    -0.285 C  
HETATM   15  C   UNL     1      -9.530  16.015  67.411  1.00  0.00    -0.220 C  
HETATM   16  O   UNL     1      -9.791  14.579  65.452  1.00  0.00    -0.334 OA 
HETATM   17  C   UNL     1     -10.082  17.193  66.598  1.00  0.00    -0.306 C  
HETATM   18  C   UNL     1     -10.492  15.529  68.477  1.00  0.00    -0.238 A  
HETATM   19  C   UNL     1     -10.125  15.575  69.830  1.00  0.00    -0.291 A  
HETATM   20  O   UNL     1      -9.056  17.718  65.755  1.00  0.00    -0.503 OA 
HETATM   21  H   UNL     1      -9.398  18.448  65.252  1.00  0.00     0.000 HD 
HETATM   22  C   UNL     1     -10.991  15.098  70.816  1.00  0.00    -0.253 A  
HETATM   23  C   UNL     1     -12.231  14.572  70.463  1.00  0.00    -0.399 A  
HETATM   24  C   UNL     1     -12.612  14.526  69.125  1.00  0.00     0.153 A  
HETATM   25  C   UNL     1     -11.749  15.003  68.137  1.00  0.00    -0.335 A  
ENDBRANCH  13  14
ENDBRANCH   7  13
TORSDOF 3
ENDMDL
MODEL      144
REMARK 921   NORMALIZED FREE ENERGY PREDICTED BY IDOCK:   -3.50 KCAL/MOL
REMARK 922        TOTAL FREE ENERGY PREDICTED BY IDOCK:   -5.19 KCAL/MOL
REMARK 923 INTER-LIGAND FREE ENERGY PREDICTED BY IDOCK:   -4.01 KCAL/MOL
REMARK 924 INTRA-LIGAND FREE ENERGY PREDICTED BY IDOCK:   -1.18 KCAL/MOL
REMARK 927      BINDING AFFINITY PREDICTED BY RF-SCORE:    0.00 PKD
ROOT
HETATM    1  C   UNL     1      -9.932  10.755  67.749  1.00  0.00    -0.171 C  
HETATM    2  C   UNL     1     -10.434  10.940  69.188  1.00  0.00    -0.248 C  
HETATM    3  C   UNL     1      -9.562  10.034  70.045  1.00  0.00    -0.205 C  
HETATM    4  C   UNL     1      -8.578   9.368  69.072  1.00  0.00    -0.135 C  
HETATM    5  C   UNL     1      -7.320  10.227  68.932  1.00  0.00    -0.090 C  
HETATM    6  N   UNL     1      -9.352   9.315  67.730  1.00  0.00    -0.129 N  
HETATM    7  C   UNL     1      -7.498  11.547  68.158  1.00  0.00    -0.101 C  
HETATM    8  C   UNL     1     -10.504   8.282  67.816  1.00  0.00    -0.215 C  
HETATM    9  C   UNL     1      -8.840  11.783  67.449  1.00  0.00    -0.164 C  
ENDROOT
BRANCH   6  10
HETATM   10  C   UNL     1      -8.459   8.971  66.478  1.00  0.00    -0.119 C  
HETATM   11  C   UNL     1      -9.240   9.102  65.168  1.00  0.00    -0.218 C  
HETATM   12  C   UNL     1      -7.814   7.586  66.594  1.00  0.00    -0.106 C  
ENDBRANCH   6  10
BRANCH   7  13
HETATM   13  O   UNL     1      -7.236  12.652  69.044  1.00  0.00    -0.081 OA 
BRANCH  13  14
HETATM   14  C   UNL     1      -7.210  13.877  68.418  1.00  0.00    -0.110 C  
HETATM   15  C   UNL     1      -7.894  14.930  69.269  1.00  0.00    -0.158 C  
HETATM   16  O   UNL     1      -6.729  14.061  67.306  1.00  0.00    -0.244 OA 
HETATM   17  C   UNL     1      -7.165  16.267  69.087  1.00  0.00    -0.213 C  
HETATM   18  C   UNL     1      -9.371  15.012  68.937  1.00  0.00    -0.208 A  
HETATM   19  C   UNL     1     -10.330  14.735  69.922  1.00  0.00     0.017 A  
HETATM   20  O   UNL     1      -5.837  16.164  69.601  1.00  0.00    -0.143 OA 
HETATM   21  H   UNL     1      -5.385  16.992  69.489  1.00  0.00     0.000 HD 
HETATM   22  C   UNL     1     -11.692  14.774  69.617  1.00  0.00    -0.354 A  
HETATM   23  C   UNL     1     -12.111  15.091  68.327  1.00  0.00    -0.110 A  
HETATM   24  C   UNL     1     -11.171  15.373  67.340  1.00  0.00    -0.287 A  
HETATM   25  C   UNL     1      -9.809  15.336  67.642  1.00  0.00    -0.217 A  
ENDBRANCH  13  14
ENDBRANCH   7  13
TORSDOF 3
ENDMDL
MODEL      145
REMARK 921   NORMALIZED FREE ENERGY PREDICTED BY IDOCK:   -3.48 KCAL/MOL
REMARK 922        TOTAL FREE ENERGY PREDICTED BY IDOCK:   -5.16 KCAL/MOL
REMARK 923 INTER-LIGAND FREE ENERGY PREDICTED BY IDOCK:   -4.13 KCAL/MOL
REMARK 924 INTRA-LIGAND FREE ENERGY PREDICTED BY IDOCK:   -1.03 KCAL/MOL
REMARK 927      BINDING AFFINITY PREDICTED BY RF-SCORE:    0.00 PKD
ROOT
HETATM    1  C   UNL     1      -7.689  11.328  66.257  1.00  0.00    -0.053 C  
HETATM    2  C   UNL     1      -6.558  11.603  67.258  1.00  0.00    -0.122 C  
HETATM    3  C   UNL     1      -7.207  11.551  68.633  1.00  0.00    -0.102 C  
HETATM    4  C   UNL     1      -8.688  11.234  68.377  1.00  0.00    -0.159 C  
HETATM    5  C   UNL     1      -8.903   9.719  68.362  1.00  0.00    -0.120 C  
HETATM    6  N   UNL     1      -8.967  11.836  66.977  1.00  0.00    -0.180 N  
HETATM    7  C   UNL     1      -8.330   8.977  67.141  1.00  0.00    -0.110 C  
HETATM    8  C   UNL     1      -8.953  13.384  67.046  1.00  0.00    -0.224 C  
HETATM    9  C   UNL     1      -7.780   9.827  65.985  1.00  0.00    -0.104 C  
ENDROOT
BRANCH   6  10
HETATM   10  C   UNL     1     -10.327  11.373  66.329  1.00  0.00    -0.243 C  
HETATM   11  C   UNL     1     -10.379  11.683  64.831  1.00  0.00    -0.331 C  
HETATM   12  C   UNL     1     -11.540  11.965  67.053  1.00  0.00    -0.365 C  
ENDBRANCH   6  10
BRANCH   7  13
HETATM   13  O   UNL     1      -7.306   8.065  67.581  1.00  0.00    -0.089 OA 
BRANCH  13  14
HETATM   14  C   UNL     1      -7.437   6.792  67.076  1.00  0.00    -0.087 C  
HETATM   15  C   UNL     1      -8.894   6.367  67.060  1.00  0.00    -0.115 C  
HETATM   16  O   UNL     1      -6.489   6.098  66.727  1.00  0.00    -0.043 OA 
HETATM   17  C   UNL     1      -9.144   5.493  65.825  1.00  0.00    -0.144 C  
HETATM   18  C   UNL     1      -9.265   5.679  68.359  1.00  0.00    -0.125 A  
HETATM   19  C   UNL     1     -10.258   6.224  69.185  1.00  0.00    -0.229 A  
HETATM   20  O   UNL     1      -8.960   6.270  64.641  1.00  0.00    -0.313 OA 
HETATM   21  H   UNL     1      -9.115   5.728  63.876  1.00  0.00     0.000 HD 
HETATM   22  C   UNL     1     -10.584   5.615  70.399  1.00  0.00    -0.364 A  
HETATM   23  C   UNL     1      -9.922   4.456  70.800  1.00  0.00    -0.247 A  
HETATM   24  C   UNL     1      -8.938   3.901  69.987  1.00  0.00    -0.165 A  
HETATM   25  C   UNL     1      -8.612   4.506  68.772  1.00  0.00    -0.100 A  
ENDBRANCH  13  14
ENDBRANCH   7  13
TORSDOF 3
ENDMDL
MODEL      146
REMARK 921   NORMALIZED FREE ENERGY PREDICTED BY IDOCK:   -3.39 KCAL/MOL
REMARK 922        TOTAL FREE ENERGY PREDICTED BY IDOCK:   -5.06 KCAL/MOL
REMARK 923 INTER-LIGAND FREE ENERGY PREDICTED BY IDOCK:   -4.50 KCAL/MOL
REMARK 924 INTRA-LIGAND FREE ENERGY PREDICTED BY IDOCK:   -0.56 KCAL/MOL
REMARK 927      BINDING AFFINITY PREDICTED BY RF-SCORE:    0.00 PKD
ROOT
HETATM    1  C   UNL     1      -8.773   8.680  67.664  1.00  0.00    -0.136 C  
HETATM    2  C   UNL     1      -9.983   7.750  67.823  1.00  0.00    -0.220 C  
HETATM    3  C   UNL     1     -10.357   7.813  69.296  1.00  0.00    -0.220 C  
HETATM    4  C   UNL     1      -9.356   8.789  69.933  1.00  0.00    -0.162 C  
HETATM    5  C   UNL     1      -9.904  10.216  69.868  1.00  0.00    -0.223 C  
HETATM    6  N   UNL     1      -8.086   8.654  69.056  1.00  0.00    -0.118 N  
HETATM    7  C   UNL     1      -9.936  10.854  68.466  1.00  0.00    -0.182 C  
HETATM    8  C   UNL     1      -7.418   7.275  69.287  1.00  0.00    -0.096 C  
HETATM    9  C   UNL     1      -9.251  10.091  67.321  1.00  0.00    -0.159 C  
ENDROOT
BRANCH   6  10
HETATM   10  C   UNL     1      -7.010   9.781  69.291  1.00  0.00    -0.056 C  
HETATM   11  C   UNL     1      -6.015   9.870  68.131  1.00  0.00    -0.043 C  
HETATM   12  C   UNL     1      -6.280   9.610  70.627  1.00  0.00    -0.084 C  
ENDBRANCH   6  10
BRANCH   7  13
HETATM   13  O   UNL     1     -11.303  11.121  68.100  1.00  0.00    -0.264 OA 
BRANCH  13  14
HETATM   14  C   UNL     1     -11.677  12.435  68.260  1.00  0.00    -0.345 C  
HETATM   15  C   UNL     1     -11.026  13.312  67.207  1.00  0.00    -0.284 C  
HETATM   16  O   UNL     1     -12.408  12.828  69.161  1.00  0.00    -0.099 OA 
HETATM   17  C   UNL     1     -12.002  14.428  66.815  1.00  0.00    -0.399 C  
HETATM   18  C   UNL     1      -9.691  13.838  67.697  1.00  0.00    -0.227 A  
HETATM   19  C   UNL     1      -8.511  13.511  67.014  1.00  0.00    -0.137 A  
HETATM   20  O   UNL     1     -13.151  13.861  66.184  1.00  0.00    -0.395 OA 
HETATM   21  H   UNL     1     -13.756  14.553  65.941  1.00  0.00     0.000 HD 
HETATM   22  C   UNL     1      -7.274  13.963  67.477  1.00  0.00    -0.178 A  
HETATM   23  C   UNL     1      -7.202  14.745  68.627  1.00  0.00    -0.119 A  
HETATM   24  C   UNL     1      -8.365  15.082  69.314  1.00  0.00    -0.169 A  
HETATM   25  C   UNL     1      -9.603  14.633  68.852  1.00  0.00    -0.184 A  
ENDBRANCH  13  14
ENDBRANCH   7  13
TORSDOF 3
ENDMDL
MODEL      147
REMARK 921   NORMALIZED FREE ENERGY PREDICTED BY IDOCK:   -3.38 KCAL/MOL
REMARK 922        TOTAL FREE ENERGY PREDICTED BY IDOCK:   -5.05 KCAL/MOL
REMARK 923 INTER-LIGAND FREE ENERGY PREDICTED BY IDOCK:   -4.27 KCAL/MOL
REMARK 924 INTRA-LIGAND FREE ENERGY PREDICTED BY IDOCK:   -0.78 KCAL/MOL
REMARK 927      BINDING AFFINITY PREDICTED BY RF-SCORE:    0.00 PKD
ROOT
HETATM    1  C   UNL     1     -10.679   7.177  68.018  1.00  0.00    -0.171 C  
HETATM    2  C   UNL     1     -10.909   5.972  67.095  1.00  0.00    -0.414 C  
HETATM    3  C   UNL     1      -9.549   5.309  66.942  1.00  0.00    -0.153 C  
HETATM    4  C   UNL     1      -8.584   6.148  67.792  1.00  0.00    -0.114 C  
HETATM    5  C   UNL     1      -8.540   5.605  69.222  1.00  0.00    -0.106 C  
HETATM    6  N   UNL     1      -9.198   7.570  67.769  1.00  0.00    -0.135 N  
HETATM    7  C   UNL     1      -9.806   5.847  70.065  1.00  0.00    -0.175 C  
HETATM    8  C   UNL     1      -9.049   8.197  66.360  1.00  0.00    -0.183 C  
HETATM    9  C   UNL     1     -10.893   6.758  69.473  1.00  0.00    -0.315 C  
ENDROOT
BRANCH   6  10
HETATM   10  C   UNL     1      -8.584   8.562  68.829  1.00  0.00    -0.131 C  
HETATM   11  C   UNL     1      -9.380   9.865  68.918  1.00  0.00    -0.170 C  
HETATM   12  C   UNL     1      -7.101   8.842  68.563  1.00  0.00    -0.072 C  
ENDBRANCH   6  10
BRANCH   7  13
HETATM   13  O   UNL     1     -10.394   4.578  70.408  1.00  0.00    -0.161 OA 
BRANCH  13  14
HETATM   14  C   UNL     1      -9.849   3.995  71.528  1.00  0.00    -0.181 C  
HETATM   15  C   UNL     1     -10.413   4.621  72.790  1.00  0.00    -0.261 C  
HETATM   16  O   UNL     1      -8.996   3.116  71.489  1.00  0.00    -0.084 OA 
HETATM   17  C   UNL     1     -10.542   3.537  73.868  1.00  0.00    -0.203 C  
HETATM   18  C   UNL     1      -9.565   5.797  73.231  1.00  0.00    -0.145 A  
HETATM   19  C   UNL     1     -10.122   7.082  73.296  1.00  0.00    -0.289 A  
HETATM   20  O   UNL     1     -11.506   2.565  73.460  1.00  0.00    -0.219 OA 
HETATM   21  H   UNL     1     -11.586   1.894  74.128  1.00  0.00     0.000 HD 
HETATM   22  C   UNL     1      -9.340   8.177  73.669  1.00  0.00    -0.105 A  
HETATM   23  C   UNL     1      -7.994   8.001  73.980  1.00  0.00    -0.285 A  
HETATM   24  C   UNL     1      -7.427   6.730  73.924  1.00  0.00    -0.087 A  
HETATM   25  C   UNL     1      -8.207   5.633  73.554  1.00  0.00    -0.112 A  
ENDBRANCH  13  14
ENDBRANCH   7  13
TORSDOF 3
ENDMDL
MODEL      148
REMARK 921   NORMALIZED FREE ENERGY PREDICTED BY IDOCK:   -3.38 KCAL/MOL
REMARK 922        TOTAL FREE ENERGY PREDICTED BY IDOCK:   -5.05 KCAL/MOL
REMARK 923 INTER-LIGAND FREE ENERGY PREDICTED BY IDOCK:   -4.75 KCAL/MOL
REMARK 924 INTRA-LIGAND FREE ENERGY PREDICTED BY IDOCK:   -0.30 KCAL/MOL
REMARK 927      BINDING AFFINITY PREDICTED BY RF-SCORE:    0.00 PKD
ROOT
HETATM    1  C   UNL     1      -8.917  12.225  66.325  1.00  0.00    -0.067 C  
HETATM    2  C   UNL     1     -10.001  13.020  67.068  1.00  0.00    -0.242 C  
HETATM    3  C   UNL     1     -11.287  12.230  66.880  1.00  0.00    -0.392 C  
HETATM    4  C   UNL     1     -10.899  11.001  66.047  1.00  0.00    -0.122 C  
HETATM    5  C   UNL     1     -10.484   9.853  66.970  1.00  0.00    -0.296 C  
HETATM    6  N   UNL     1      -9.691  11.482  65.203  1.00  0.00    -0.239 N  
HETATM    7  C   UNL     1      -9.137  10.034  67.694  1.00  0.00    -0.134 C  
HETATM    8  C   UNL     1     -10.159  12.494  64.127  1.00  0.00    -0.284 C  
HETATM    9  C   UNL     1      -8.263  11.229  67.283  1.00  0.00    -0.140 C  
ENDROOT
BRANCH   6  10
HETATM   10  C   UNL     1      -8.891  10.325  64.493  1.00  0.00    -0.203 C  
HETATM   11  C   UNL     1      -7.378  10.528  64.602  1.00  0.00     0.063 C  
HETATM   12  C   UNL     1      -9.315  10.145  63.032  1.00  0.00    -0.330 C  
ENDBRANCH   6  10
BRANCH   7  13
HETATM   13  O   UNL     1      -9.367  10.088  69.114  1.00  0.00    -0.171 OA 
BRANCH  13  14
HETATM   14  C   UNL     1      -8.448   9.382  69.856  1.00  0.00    -0.177 C  
HETATM   15  C   UNL     1      -8.717   7.892  69.767  1.00  0.00    -0.137 C  
HETATM   16  O   UNL     1      -7.565   9.909  70.522  1.00  0.00    -0.251 OA 
HETATM   17  C   UNL     1      -7.378   7.143  69.783  1.00  0.00    -0.085 C  
HETATM   18  C   UNL     1      -9.655   7.449  70.872  1.00  0.00    -0.166 A  
HETATM   19  C   UNL     1     -10.900   6.885  70.555  1.00  0.00    -0.289 A  
HETATM   20  O   UNL     1      -6.632   7.468  68.609  1.00  0.00    -0.049 OA 
HETATM   21  H   UNL     1      -5.803   7.004  68.618  1.00  0.00     0.000 HD 
HETATM   22  C   UNL     1     -11.785   6.506  71.566  1.00  0.00    -0.376 A  
HETATM   23  C   UNL     1     -11.438   6.684  72.903  1.00  0.00    -0.102 A  
HETATM   24  C   UNL     1     -10.204   7.237  73.233  1.00  0.00    -0.365 A  
HETATM   25  C   UNL     1      -9.316   7.616  72.225  1.00  0.00    -0.199 A  
ENDBRANCH  13  14
ENDBRANCH   7  13
TORSDOF 3
ENDMDL
MODEL      149
REMARK 921   NORMALIZED FREE ENERGY PREDICTED BY IDOCK:   -3.36 KCAL/MOL
REMARK 922        TOTAL FREE ENERGY PREDICTED BY IDOCK:   -5.03 KCAL/MOL
REMARK 923 INTER-LIGAND FREE ENERGY PREDICTED BY IDOCK:   -5.13 KCAL/MOL
REMARK 924 INTRA-LIGAND FREE ENERGY PREDICTED BY IDOCK:    0.10 KCAL/MOL
REMARK 927      BINDING AFFINITY PREDICTED BY RF-SCORE:    0.00 PKD
ROOT
HETATM    1  C   UNL     1      -9.228  13.425  68.646  1.00  0.00     0.002 C  
HETATM    2  C   UNL     1      -8.852  12.517  67.466  1.00  0.00    -0.184 C  
HETATM    3  C   UNL     1      -9.714  12.981  66.302  1.00  0.00    -0.265 C  
HETATM    4  C   UNL     1     -10.549  14.149  66.848  1.00  0.00    -0.280 C  
HETATM    5  C   UNL     1      -9.798  15.467  66.646  1.00  0.00    -0.269 C  
HETATM    6  N   UNL     1     -10.697  13.834  68.358  1.00  0.00    -0.247 N  
HETATM    7  C   UNL     1      -8.563  15.673  67.541  1.00  0.00    -0.172 C  
HETATM    8  C   UNL     1     -11.633  12.617  68.563  1.00  0.00    -0.323 C  
HETATM    9  C   UNL     1      -8.316  14.652  68.662  1.00  0.00    -0.165 C  
ENDROOT
BRANCH   6  10
HETATM   10  C   UNL     1     -11.237  15.036  69.223  1.00  0.00    -0.286 C  
HETATM   11  C   UNL     1     -10.946  14.842  70.713  1.00  0.00    -0.088 C  
HETATM   12  C   UNL     1     -12.729  15.292  68.986  1.00  0.00     0.444 C  
ENDBRANCH   6  10
BRANCH   7  13
HETATM   13  O   UNL     1      -7.387  15.753  66.712  1.00  0.00    -0.183 OA 
BRANCH  13  14
HETATM   14  C   UNL     1      -6.786  16.991  66.712  1.00  0.00    -0.230 C  
HETATM   15  C   UNL     1      -7.306  17.840  67.857  1.00  0.00    -0.215 C  
HETATM   16  O   UNL     1      -5.973  17.351  65.870  1.00  0.00    -0.164 OA 
HETATM   17  C   UNL     1      -6.162  18.715  68.386  1.00  0.00    -0.210 C  
HETATM   18  C   UNL     1      -8.514  18.645  67.422  1.00  0.00    -0.277 A  
HETATM   19  C   UNL     1      -9.752  18.454  68.053  1.00  0.00    -0.336 A  
HETATM   20  O   UNL     1      -5.147  17.886  68.955  1.00  0.00    -0.160 OA 
HETATM   21  H   UNL     1      -4.439  18.428  69.283  1.00  0.00     0.000 HD 
HETATM   22  C   UNL     1     -10.879  19.166  67.637  1.00  0.00    -0.467 A  
HETATM   23  C   UNL     1     -10.781  20.077  66.588  1.00  0.00    -0.364 A  
HETATM   24  C   UNL     1      -9.558  20.282  65.955  1.00  0.00    -0.321 A  
HETATM   25  C   UNL     1      -8.430  19.572  66.370  1.00  0.00    -0.373 A  
ENDBRANCH  13  14
ENDBRANCH   7  13
TORSDOF 3
ENDMDL
MODEL      150
REMARK 921   NORMALIZED FREE ENERGY PREDICTED BY IDOCK:   -3.34 KCAL/MOL
REMARK 922        TOTAL FREE ENERGY PREDICTED BY IDOCK:   -5.00 KCAL/MOL
REMARK 923 INTER-LIGAND FREE ENERGY PREDICTED BY IDOCK:   -4.14 KCAL/MOL
REMARK 924 INTRA-LIGAND FREE ENERGY PREDICTED BY IDOCK:   -0.86 KCAL/MOL
REMARK 927      BINDING AFFINITY PREDICTED BY RF-SCORE:    0.00 PKD
ROOT
HETATM    1  C   UNL     1      -8.294   8.222  67.741  1.00  0.00    -0.128 C  
HETATM    2  C   UNL     1      -9.306   9.363  67.918  1.00  0.00    -0.142 C  
HETATM    3  C   UNL     1     -10.605   8.854  67.311  1.00  0.00    -0.304 C  
HETATM    4  C   UNL     1     -10.300   7.432  66.817  1.00  0.00    -0.251 C  
HETATM    5  C   UNL     1     -10.578   6.421  67.931  1.00  0.00    -0.321 C  
HETATM    6  N   UNL     1      -8.788   7.466  66.479  1.00  0.00    -0.142 N  
HETATM    7  C   UNL     1      -9.585   6.438  69.108  1.00  0.00    -0.136 C  
HETATM    8  C   UNL     1      -8.540   8.330  65.217  1.00  0.00    -0.132 C  
HETATM    9  C   UNL     1      -8.328   7.310  68.968  1.00  0.00    -0.126 C  
ENDROOT
BRANCH   6  10
HETATM   10  C   UNL     1      -8.140   6.047  66.254  1.00  0.00    -0.112 C  
HETATM   11  C   UNL     1      -6.634   6.143  65.996  1.00  0.00    -0.048 C  
HETATM   12  C   UNL     1      -8.838   5.266  65.136  1.00  0.00    -0.130 C  
ENDBRANCH   6  10
BRANCH   7  13
HETATM   13  O   UNL     1     -10.283   6.813  70.310  1.00  0.00    -0.191 OA 
BRANCH  13  14
HETATM   14  C   UNL     1     -10.328   5.821  71.263  1.00  0.00    -0.223 C  
HETATM   15  C   UNL     1     -10.403   6.417  72.656  1.00  0.00    -0.216 C  
HETATM   16  O   UNL     1     -10.273   4.625  71.002  1.00  0.00    -0.202 OA 
HETATM   17  C   UNL     1     -11.279   5.517  73.536  1.00  0.00    -0.069 C  
HETATM   18  C   UNL     1      -9.013   6.630  73.225  1.00  0.00    -0.138 A  
HETATM   19  C   UNL     1      -8.579   7.920  73.559  1.00  0.00    -0.302 A  
HETATM   20  O   UNL     1     -12.620   5.524  73.045  1.00  0.00    -0.338 OA 
HETATM   21  H   UNL     1     -13.163   4.966  73.590  1.00  0.00     0.000 HD 
HETATM   22  C   UNL     1      -7.289   8.130  74.051  1.00  0.00    -0.216 A  
HETATM   23  C   UNL     1      -6.421   7.053  74.216  1.00  0.00    -0.078 A  
HETATM   24  C   UNL     1      -6.839   5.766  73.893  1.00  0.00    -0.081 A  
HETATM   25  C   UNL     1      -8.129   5.553  73.403  1.00  0.00    -0.114 A  
ENDBRANCH  13  14
ENDBRANCH   7  13
TORSDOF 3
ENDMDL
MODEL      151
REMARK 921   NORMALIZED FREE ENERGY PREDICTED BY IDOCK:   -3.32 KCAL/MOL
REMARK 922        TOTAL FREE ENERGY PREDICTED BY IDOCK:   -4.98 KCAL/MOL
REMARK 923 INTER-LIGAND FREE ENERGY PREDICTED BY IDOCK:   -4.13 KCAL/MOL
REMARK 924 INTRA-LIGAND FREE ENERGY PREDICTED BY IDOCK:   -0.85 KCAL/MOL
REMARK 927      BINDING AFFINITY PREDICTED BY RF-SCORE:    0.00 PKD
ROOT
HETATM    1  C   UNL     1      -6.409   8.557  67.072  1.00  0.00    -0.057 C  
HETATM    2  C   UNL     1      -5.262   8.684  68.085  1.00  0.00    -0.034 C  
HETATM    3  C   UNL     1      -5.413  10.066  68.702  1.00  0.00    -0.039 C  
HETATM    4  C   UNL     1      -6.649  10.683  68.033  1.00  0.00    -0.063 C  
HETATM    5  C   UNL     1      -7.906  10.333  68.833  1.00  0.00    -0.106 C  
HETATM    6  N   UNL     1      -6.693  10.018  66.633  1.00  0.00    -0.078 N  
HETATM    7  C   UNL     1      -8.355   8.862  68.757  1.00  0.00    -0.123 C  
HETATM    8  C   UNL     1      -5.530  10.540  65.755  1.00  0.00    -0.102 C  
HETATM    9  C   UNL     1      -7.633   7.947  67.756  1.00  0.00    -0.109 C  
ENDROOT
BRANCH   6  10
HETATM   10  C   UNL     1      -8.047  10.230  65.855  1.00  0.00    -0.143 C  
HETATM   11  C   UNL     1      -7.983   9.662  64.436  1.00  0.00    -0.138 C  
HETATM   12  C   UNL     1      -8.477  11.700  65.837  1.00  0.00     0.137 C  
ENDBRANCH   6  10
BRANCH   7  13
HETATM   13  O   UNL     1      -8.274   8.276  70.070  1.00  0.00    -0.114 OA 
BRANCH  13  14
HETATM   14  C   UNL     1      -9.275   7.371  70.341  1.00  0.00    -0.158 C  
HETATM   15  C   UNL     1     -10.527   7.703  69.551  1.00  0.00    -0.227 C  
HETATM   16  O   UNL     1      -9.163   6.453  71.144  1.00  0.00    -0.155 OA 
HETATM   17  C   UNL     1     -11.223   6.396  69.149  1.00  0.00    -0.354 C  
HETATM   18  C   UNL     1     -11.427   8.636  70.337  1.00  0.00    -0.151 A  
HETATM   19  C   UNL     1     -11.733   9.909  69.835  1.00  0.00    -0.131 A  
HETATM   20  O   UNL     1     -10.388   5.663  68.252  1.00  0.00    -0.178 OA 
HETATM   21  H   UNL     1     -10.820   4.854  68.004  1.00  0.00     0.000 HD 
HETATM   22  C   UNL     1     -12.533  10.788  70.568  1.00  0.00    -0.447 A  
HETATM   23  C   UNL     1     -13.036  10.405  71.809  1.00  0.00    -0.567 A  
HETATM   24  C   UNL     1     -12.745   9.142  72.318  1.00  0.00    -0.447 A  
HETATM   25  C   UNL     1     -11.947   8.261  71.587  1.00  0.00    -0.346 A  
ENDBRANCH  13  14
ENDBRANCH   7  13
TORSDOF 3
ENDMDL
MODEL      152
REMARK 921   NORMALIZED FREE ENERGY PREDICTED BY IDOCK:   -3.30 KCAL/MOL
REMARK 922        TOTAL FREE ENERGY PREDICTED BY IDOCK:   -4.96 KCAL/MOL
REMARK 923 INTER-LIGAND FREE ENERGY PREDICTED BY IDOCK:   -4.66 KCAL/MOL
REMARK 924 INTRA-LIGAND FREE ENERGY PREDICTED BY IDOCK:   -0.29 KCAL/MOL
REMARK 927      BINDING AFFINITY PREDICTED BY RF-SCORE:    0.00 PKD
ROOT
HETATM    1  C   UNL     1      -7.832   5.868  68.910  1.00  0.00    -0.095 C  
HETATM    2  C   UNL     1      -7.264   6.327  70.261  1.00  0.00    -0.083 C  
HETATM    3  C   UNL     1      -6.781   7.752  70.037  1.00  0.00    -0.045 C  
HETATM    4  C   UNL     1      -7.098   8.070  68.569  1.00  0.00    -0.080 C  
HETATM    5  C   UNL     1      -8.502   8.668  68.455  1.00  0.00    -0.131 C  
HETATM    6  N   UNL     1      -7.036   6.691  67.862  1.00  0.00    -0.080 N  
HETATM    7  C   UNL     1      -9.665   7.688  68.700  1.00  0.00    -0.155 C  
HETATM    8  C   UNL     1      -5.573   6.188  67.797  1.00  0.00    -0.008 C  
HETATM    9  C   UNL     1      -9.323   6.197  68.840  1.00  0.00    -0.126 C  
ENDROOT
BRANCH   6  10
HETATM   10  C   UNL     1      -7.639   6.679  66.406  1.00  0.00    -0.090 C  
HETATM   11  C   UNL     1      -7.768   5.257  65.855  1.00  0.00    -0.091 C  
HETATM   12  C   UNL     1      -6.841   7.568  65.446  1.00  0.00    -0.048 C  
ENDBRANCH   6  10
BRANCH   7  13
HETATM   13  O   UNL     1     -10.401   8.112  69.863  1.00  0.00    -0.205 OA 
BRANCH  13  14
HETATM   14  C   UNL     1     -11.438   7.274  70.203  1.00  0.00    -0.165 C  
HETATM   15  C   UNL     1     -11.900   7.539  71.624  1.00  0.00    -0.322 C  
HETATM   16  O   UNL     1     -11.888   6.412  69.458  1.00  0.00    -0.274 OA 
HETATM   17  C   UNL     1     -13.418   7.337  71.700  1.00  0.00    -0.354 C  
HETATM   18  C   UNL     1     -11.137   6.671  72.606  1.00  0.00    -0.291 A  
HETATM   19  C   UNL     1     -10.344   7.262  73.600  1.00  0.00    -0.399 A  
HETATM   20  O   UNL     1     -14.074   8.319  70.896  1.00  0.00    -0.602 OA 
HETATM   21  H   UNL     1     -15.015   8.194  70.943  1.00  0.00     0.000 HD 
HETATM   22  C   UNL     1      -9.611   6.472  74.487  1.00  0.00    -0.305 A  
HETATM   23  C   UNL     1      -9.664   5.083  74.393  1.00  0.00    -0.179 A  
HETATM   24  C   UNL     1     -10.451   4.481  73.415  1.00  0.00    -0.264 A  
HETATM   25  C   UNL     1     -11.186   5.269  72.527  1.00  0.00    -0.272 A  
ENDBRANCH  13  14
ENDBRANCH   7  13
TORSDOF 3
ENDMDL
MODEL      153
REMARK 921   NORMALIZED FREE ENERGY PREDICTED BY IDOCK:   -3.30 KCAL/MOL
REMARK 922        TOTAL FREE ENERGY PREDICTED BY IDOCK:   -4.95 KCAL/MOL
REMARK 923 INTER-LIGAND FREE ENERGY PREDICTED BY IDOCK:   -4.92 KCAL/MOL
REMARK 924 INTRA-LIGAND FREE ENERGY PREDICTED BY IDOCK:   -0.04 KCAL/MOL
REMARK 927      BINDING AFFINITY PREDICTED BY RF-SCORE:    0.00 PKD
ROOT
HETATM    1  C   UNL     1      -9.664  12.792  67.364  1.00  0.00    -0.197 C  
HETATM    2  C   UNL     1     -10.492  11.822  68.218  1.00  0.00    -0.224 C  
HETATM    3  C   UNL     1     -11.882  11.817  67.599  1.00  0.00    -0.241 C  
HETATM    4  C   UNL     1     -11.803  12.774  66.401  1.00  0.00    -0.408 C  
HETATM    5  C   UNL     1     -11.384  12.006  65.146  1.00  0.00    -0.359 C  
HETATM    6  N   UNL     1     -10.708  13.795  66.804  1.00  0.00    -0.276 N  
HETATM    7  C   UNL     1      -9.920  11.530  65.114  1.00  0.00    -0.262 C  
HETATM    8  C   UNL     1     -11.222  14.710  67.943  1.00  0.00    -0.304 C  
HETATM    9  C   UNL     1      -8.985  12.025  66.228  1.00  0.00    -0.129 C  
ENDROOT
BRANCH   6  10
HETATM   10  C   UNL     1     -10.196  14.701  65.621  1.00  0.00    -0.359 C  
HETATM   11  C   UNL     1      -9.090  15.657  66.073  1.00  0.00    -0.346 C  
HETATM   12  C   UNL     1     -11.339  15.467  64.947  1.00  0.00    -0.367 C  
ENDBRANCH   6  10
BRANCH   7  13
HETATM   13  O   UNL     1      -9.892  10.091  65.084  1.00  0.00    -0.302 OA 
BRANCH  13  14
HETATM   14  C   UNL     1      -8.796   9.540  65.707  1.00  0.00    -0.162 C  
HETATM   15  C   UNL     1      -7.744   9.139  64.690  1.00  0.00    -0.113 C  
HETATM   16  O   UNL     1      -8.717   9.370  66.918  1.00  0.00    -0.126 OA 
HETATM   17  C   UNL     1      -6.354   9.375  65.292  1.00  0.00    -0.067 C  
HETATM   18  C   UNL     1      -7.957   7.709  64.233  1.00  0.00    -0.112 A  
HETATM   19  C   UNL     1      -8.224   7.432  62.885  1.00  0.00     0.008 A  
HETATM   20  O   UNL     1      -6.157  10.772  65.514  1.00  0.00    -0.231 OA 
HETATM   21  H   UNL     1      -5.295  10.918  65.887  1.00  0.00     0.000 HD 
HETATM   22  C   UNL     1      -8.455   6.122  62.461  1.00  0.00     0.031 A  
HETATM   23  C   UNL     1      -8.421   5.075  63.379  1.00  0.00    -0.123 A  
HETATM   24  C   UNL     1      -8.153   5.333  64.720  1.00  0.00    -0.124 A  
HETATM   25  C   UNL     1      -7.920   6.641  65.146  1.00  0.00    -0.124 A  
ENDBRANCH  13  14
ENDBRANCH   7  13
TORSDOF 3
ENDMDL
MODEL      154
REMARK 921   NORMALIZED FREE ENERGY PREDICTED BY IDOCK:   -3.30 KCAL/MOL
REMARK 922        TOTAL FREE ENERGY PREDICTED BY IDOCK:   -4.95 KCAL/MOL
REMARK 923 INTER-LIGAND FREE ENERGY PREDICTED BY IDOCK:   -3.83 KCAL/MOL
REMARK 924 INTRA-LIGAND FREE ENERGY PREDICTED BY IDOCK:   -1.12 KCAL/MOL
REMARK 927      BINDING AFFINITY PREDICTED BY RF-SCORE:    0.00 PKD
ROOT
HETATM    1  C   UNL     1      -8.195   5.875  66.674  1.00  0.00    -0.106 C  
HETATM    2  C   UNL     1      -9.522   5.375  66.085  1.00  0.00    -0.171 C  
HETATM    3  C   UNL     1     -10.100   4.428  67.126  1.00  0.00    -0.121 C  
HETATM    4  C   UNL     1      -9.093   4.425  68.285  1.00  0.00    -0.127 C  
HETATM    5  C   UNL     1      -9.444   5.529  69.285  1.00  0.00    -0.171 C  
HETATM    6  N   UNL     1      -7.732   4.722  67.604  1.00  0.00    -0.085 N  
HETATM    7  C   UNL     1      -9.186   6.970  68.804  1.00  0.00    -0.132 C  
HETATM    8  C   UNL     1      -7.283   3.507  66.754  1.00  0.00    -0.067 C  
HETATM    9  C   UNL     1      -8.438   7.154  67.475  1.00  0.00    -0.123 C  
ENDROOT
BRANCH   6  10
HETATM   10  C   UNL     1      -6.572   5.095  68.604  1.00  0.00    -0.048 C  
HETATM   11  C   UNL     1      -5.306   5.536  67.867  1.00  0.00    -0.004 C  
HETATM   12  C   UNL     1      -6.268   3.957  69.583  1.00  0.00    -0.028 C  
ENDBRANCH   6  10
BRANCH   7  13
HETATM   13  O   UNL     1     -10.439   7.676  68.739  1.00  0.00    -0.207 OA 
BRANCH  13  14
HETATM   14  C   UNL     1     -10.377   8.968  69.209  1.00  0.00    -0.219 C  
HETATM   15  C   UNL     1     -10.834   9.949  68.146  1.00  0.00    -0.282 C  
HETATM   16  O   UNL     1      -9.969   9.266  70.325  1.00  0.00    -0.188 OA 
HETATM   17  C   UNL     1     -11.576  11.108  68.824  1.00  0.00    -0.322 C  
HETATM   18  C   UNL     1      -9.662  10.410  67.301  1.00  0.00    -0.195 A  
HETATM   19  C   UNL     1      -9.643  10.151  65.923  1.00  0.00    -0.274 A  
HETATM   20  O   UNL     1     -12.771  10.622  69.435  1.00  0.00    -0.671 OA 
HETATM   21  H   UNL     1     -13.231  11.340  69.855  1.00  0.00     0.000 HD 
HETATM   22  C   UNL     1      -8.553  10.540  65.143  1.00  0.00    -0.187 A  
HETATM   23  C   UNL     1      -7.471  11.193  65.730  1.00  0.00     0.165 A  
HETATM   24  C   UNL     1      -7.478  11.461  67.096  1.00  0.00    -0.138 A  
HETATM   25  C   UNL     1      -8.568  11.074  67.878  1.00  0.00    -0.133 A  
ENDBRANCH  13  14
ENDBRANCH   7  13
TORSDOF 3
ENDMDL
MODEL      155
REMARK 921   NORMALIZED FREE ENERGY PREDICTED BY IDOCK:   -3.25 KCAL/MOL
REMARK 922        TOTAL FREE ENERGY PREDICTED BY IDOCK:   -4.89 KCAL/MOL
REMARK 923 INTER-LIGAND FREE ENERGY PREDICTED BY IDOCK:   -4.15 KCAL/MOL
REMARK 924 INTRA-LIGAND FREE ENERGY PREDICTED BY IDOCK:   -0.74 KCAL/MOL
REMARK 927      BINDING AFFINITY PREDICTED BY RF-SCORE:    0.00 PKD
ROOT
HETATM    1  C   UNL     1      -9.513   7.962  71.274  1.00  0.00    -0.157 C  
HETATM    2  C   UNL     1      -8.757   6.707  71.734  1.00  0.00    -0.129 C  
HETATM    3  C   UNL     1      -9.798   5.600  71.787  1.00  0.00    -0.208 C  
HETATM    4  C   UNL     1     -11.116   6.251  71.343  1.00  0.00    -0.284 C  
HETATM    5  C   UNL     1     -11.268   6.141  69.824  1.00  0.00    -0.494 C  
HETATM    6  N   UNL     1     -10.967   7.734  71.768  1.00  0.00    -0.233 N  
HETATM    7  C   UNL     1     -10.321   7.028  68.995  1.00  0.00    -0.200 C  
HETATM    8  C   UNL     1     -11.024   7.858  73.311  1.00  0.00    -0.080 C  
HETATM    9  C   UNL     1      -9.467   8.059  69.749  1.00  0.00    -0.159 C  
ENDROOT
BRANCH   6  10
HETATM   10  C   UNL     1     -12.043   8.701  71.145  1.00  0.00    -0.260 C  
HETATM   11  C   UNL     1     -11.611  10.167  71.231  1.00  0.00    -0.387 C  
HETATM   12  C   UNL     1     -13.428   8.502  71.771  1.00  0.00    -0.400 C  
ENDBRANCH   6  10
BRANCH   7  13
HETATM   13  O   UNL     1      -9.455   6.188  68.209  1.00  0.00    -0.119 OA 
BRANCH  13  14
HETATM   14  C   UNL     1      -9.680   6.266  66.854  1.00  0.00    -0.151 C  
HETATM   15  C   UNL     1      -8.473   5.771  66.079  1.00  0.00    -0.135 C  
HETATM   16  O   UNL     1     -10.708   6.714  66.360  1.00  0.00    -0.065 OA 
HETATM   17  C   UNL     1      -8.955   5.054  64.811  1.00  0.00    -0.094 C  
HETATM   18  C   UNL     1      -7.518   6.912  65.787  1.00  0.00    -0.084 A  
HETATM   19  C   UNL     1      -6.210   6.882  66.292  1.00  0.00    -0.045 A  
HETATM   20  O   UNL     1      -9.686   3.881  65.172  1.00  0.00    -0.171 OA 
HETATM   21  H   UNL     1      -9.985   3.437  64.386  1.00  0.00     0.000 HD 
HETATM   22  C   UNL     1      -5.334   7.943  66.057  1.00  0.00    -0.028 A  
HETATM   23  C   UNL     1      -5.754   9.045  65.315  1.00  0.00    -0.050 A  
HETATM   24  C   UNL     1      -7.048   9.087  64.803  1.00  0.00    -0.092 A  
HETATM   25  C   UNL     1      -7.926   8.026  65.035  1.00  0.00    -0.126 A  
ENDBRANCH  13  14
ENDBRANCH   7  13
TORSDOF 3
ENDMDL
MODEL      156
REMARK 921   NORMALIZED FREE ENERGY PREDICTED BY IDOCK:   -3.24 KCAL/MOL
REMARK 922        TOTAL FREE ENERGY PREDICTED BY IDOCK:   -4.88 KCAL/MOL
REMARK 923 INTER-LIGAND FREE ENERGY PREDICTED BY IDOCK:   -3.96 KCAL/MOL
REMARK 924 INTRA-LIGAND FREE ENERGY PREDICTED BY IDOCK:   -0.93 KCAL/MOL
REMARK 927      BINDING AFFINITY PREDICTED BY RF-SCORE:    0.00 PKD
ROOT
HETATM    1  C   UNL     1     -11.320   6.203  71.427  1.00  0.00    -0.275 C  
HETATM    2  C   UNL     1     -11.755   7.675  71.439  1.00  0.00    -0.310 C  
HETATM    3  C   UNL     1     -10.490   8.472  71.717  1.00  0.00    -0.370 C  
HETATM    4  C   UNL     1      -9.367   7.433  71.843  1.00  0.00    -0.136 C  
HETATM    5  C   UNL     1      -8.742   7.170  70.471  1.00  0.00    -0.149 C  
HETATM    6  N   UNL     1     -10.085   6.163  72.366  1.00  0.00    -0.177 N  
HETATM    7  C   UNL     1      -9.622   6.389  69.477  1.00  0.00    -0.144 C  
HETATM    8  C   UNL     1     -10.532   6.366  73.835  1.00  0.00    -0.291 C  
HETATM    9  C   UNL     1     -10.936   5.791  70.006  1.00  0.00    -0.382 C  
ENDROOT
BRANCH   6  10
HETATM   10  C   UNL     1      -9.223   4.846  72.279  1.00  0.00    -0.130 C  
HETATM   11  C   UNL     1     -10.088   3.590  72.396  1.00  0.00    -0.232 C  
HETATM   12  C   UNL     1      -8.091   4.830  73.313  1.00  0.00    -0.100 C  
ENDBRANCH   6  10
BRANCH   7  13
HETATM   13  O   UNL     1      -9.912   7.227  68.343  1.00  0.00    -0.152 OA 
BRANCH  13  14
HETATM   14  C   UNL     1     -10.140   6.532  67.178  1.00  0.00    -0.170 C  
HETATM   15  C   UNL     1      -8.905   5.754  66.765  1.00  0.00    -0.117 C  
HETATM   16  O   UNL     1     -11.193   6.579  66.554  1.00  0.00    -0.107 OA 
HETATM   17  C   UNL     1      -9.341   4.432  66.121  1.00  0.00    -0.159 C  
HETATM   18  C   UNL     1      -8.021   6.590  65.861  1.00  0.00    -0.115 A  
HETATM   19  C   UNL     1      -6.714   6.911  66.255  1.00  0.00    -0.052 A  
HETATM   20  O   UNL     1      -9.999   3.618  67.092  1.00  0.00    -0.301 OA 
HETATM   21  H   UNL     1     -10.269   2.799  66.693  1.00  0.00     0.000 HD 
HETATM   22  C   UNL     1      -5.904   7.709  65.444  1.00  0.00    -0.038 A  
HETATM   23  C   UNL     1      -6.391   8.194  64.232  1.00  0.00    -0.065 A  
HETATM   24  C   UNL     1      -7.684   7.880  63.826  1.00  0.00    -0.135 A  
HETATM   25  C   UNL     1      -8.495   7.081  64.633  1.00  0.00     0.151 A  
ENDBRANCH  13  14
ENDBRANCH   7  13
TORSDOF 3
ENDMDL
MODEL      157
REMARK 921   NORMALIZED FREE ENERGY PREDICTED BY IDOCK:   -3.20 KCAL/MOL
REMARK 922        TOTAL FREE ENERGY PREDICTED BY IDOCK:   -4.84 KCAL/MOL
REMARK 923 INTER-LIGAND FREE ENERGY PREDICTED BY IDOCK:   -3.88 KCAL/MOL
REMARK 924 INTRA-LIGAND FREE ENERGY PREDICTED BY IDOCK:   -0.95 KCAL/MOL
REMARK 927      BINDING AFFINITY PREDICTED BY RF-SCORE:    0.00 PKD
ROOT
HETATM    1  C   UNL     1     -10.962   7.888  69.745  1.00  0.00    -0.148 C  
HETATM    2  C   UNL     1     -11.282   8.547  71.094  1.00  0.00    -0.317 C  
HETATM    3  C   UNL     1      -9.974   8.547  71.871  1.00  0.00    -0.365 C  
HETATM    4  C   UNL     1      -8.941   7.900  70.937  1.00  0.00    -0.143 C  
HETATM    5  C   UNL     1      -8.275   8.972  70.071  1.00  0.00    -0.128 C  
HETATM    6  N   UNL     1      -9.778   6.935  70.059  1.00  0.00    -0.167 N  
HETATM    7  C   UNL     1      -9.165   9.593  68.979  1.00  0.00    -0.156 C  
HETATM    8  C   UNL     1     -10.276   5.736  70.905  1.00  0.00    -0.216 C  
HETATM    9  C   UNL     1     -10.544   8.959  68.737  1.00  0.00    -0.185 C  
ENDROOT
BRANCH   6  10
HETATM   10  C   UNL     1      -9.016   6.378  68.796  1.00  0.00    -0.126 C  
HETATM   11  C   UNL     1      -9.929   5.532  67.907  1.00  0.00    -0.185 C  
HETATM   12  C   UNL     1      -7.753   5.601  69.182  1.00  0.00    -0.088 C  
ENDBRANCH   6  10
BRANCH   7  13
HETATM   13  O   UNL     1      -9.337  10.997  69.251  1.00  0.00    -0.087 OA 
BRANCH  13  14
HETATM   14  C   UNL     1      -8.536  11.815  68.489  1.00  0.00    -0.123 C  
HETATM   15  C   UNL     1      -9.252  12.234  67.218  1.00  0.00    -0.185 C  
HETATM   16  O   UNL     1      -7.390  12.121  68.794  1.00  0.00    -0.109 OA 
HETATM   17  C   UNL     1      -8.844  13.671  66.868  1.00  0.00    -0.187 C  
HETATM   18  C   UNL     1      -8.976  11.251  66.098  1.00  0.00    -0.210 A  
HETATM   19  C   UNL     1     -10.031  10.538  65.511  1.00  0.00    -0.342 A  
HETATM   20  O   UNL     1      -9.310  14.563  67.881  1.00  0.00    -0.192 OA 
HETATM   21  H   UNL     1      -9.058  15.453  67.664  1.00  0.00     0.000 HD 
HETATM   22  C   UNL     1      -9.783   9.605  64.502  1.00  0.00     0.030 A  
HETATM   23  C   UNL     1      -8.479   9.375  64.068  1.00  0.00    -0.203 A  
HETATM   24  C   UNL     1      -7.422  10.079  64.638  1.00  0.00    -0.143 A  
HETATM   25  C   UNL     1      -7.667  11.013  65.645  1.00  0.00     0.090 A  
ENDBRANCH  13  14
ENDBRANCH   7  13
TORSDOF 3
ENDMDL
MODEL      158
REMARK 921   NORMALIZED FREE ENERGY PREDICTED BY IDOCK:   -3.19 KCAL/MOL
REMARK 922        TOTAL FREE ENERGY PREDICTED BY IDOCK:   -4.82 KCAL/MOL
REMARK 923 INTER-LIGAND FREE ENERGY PREDICTED BY IDOCK:   -4.00 KCAL/MOL
REMARK 924 INTRA-LIGAND FREE ENERGY PREDICTED BY IDOCK:   -0.82 KCAL/MOL
REMARK 927      BINDING AFFINITY PREDICTED BY RF-SCORE:    0.00 PKD
ROOT
HETATM    1  C   UNL     1      -9.309  11.489  68.016  1.00  0.00    -0.175 C  
HETATM    2  C   UNL     1     -10.378  10.584  68.645  1.00  0.00    -0.201 C  
HETATM    3  C   UNL     1     -11.642  10.817  67.831  1.00  0.00    -0.212 C  
HETATM    4  C   UNL     1     -11.254  11.839  66.752  1.00  0.00    -0.328 C  
HETATM    5  C   UNL     1     -10.742  11.115  65.505  1.00  0.00    -0.251 C  
HETATM    6  N   UNL     1     -10.117  12.666  67.406  1.00  0.00    -0.216 N  
HETATM    7  C   UNL     1      -9.363  10.443  65.645  1.00  0.00    -0.198 C  
HETATM    8  C   UNL     1     -10.685  13.558  68.537  1.00  0.00    -0.255 C  
HETATM    9  C   UNL     1      -8.562  10.721  66.926  1.00  0.00    -0.132 C  
ENDROOT
BRANCH   6  10
HETATM   10  C   UNL     1      -9.314  13.576  66.401  1.00  0.00    -0.176 C  
HETATM   11  C   UNL     1      -8.246  14.408  67.114  1.00  0.00    -0.202 C  
HETATM   12  C   UNL     1     -10.240  14.471  65.569  1.00  0.00    -0.394 C  
ENDBRANCH   6  10
BRANCH   7  13
HETATM   13  O   UNL     1      -9.513   9.020  65.484  1.00  0.00    -0.228 OA 
BRANCH  13  14
HETATM   14  C   UNL     1      -8.455   8.416  64.844  1.00  0.00    -0.122 C  
HETATM   15  C   UNL     1      -8.424   6.929  65.144  1.00  0.00    -0.029 C  
HETATM   16  O   UNL     1      -7.639   9.022  64.160  1.00  0.00    -0.109 OA 
HETATM   17  C   UNL     1      -7.932   6.180  63.899  1.00  0.00    -0.103 C  
HETATM   18  C   UNL     1      -7.584   6.648  66.375  1.00  0.00    -0.090 A  
HETATM   19  C   UNL     1      -8.166   6.055  67.505  1.00  0.00    -0.106 A  
HETATM   20  O   UNL     1      -8.877   6.336  62.840  1.00  0.00    -0.315 OA 
HETATM   21  H   UNL     1      -8.572   5.872  62.069  1.00  0.00     0.000 HD 
HETATM   22  C   UNL     1      -7.409   5.824  68.654  1.00  0.00    -0.084 A  
HETATM   23  C   UNL     1      -6.063   6.181  68.688  1.00  0.00    -0.028 A  
HETATM   24  C   UNL     1      -5.469   6.765  67.573  1.00  0.00    -0.009 A  
HETATM   25  C   UNL     1      -6.224   6.996  66.421  1.00  0.00    -0.039 A  
ENDBRANCH  13  14
ENDBRANCH   7  13
TORSDOF 3
ENDMDL
MODEL      159
REMARK 921   NORMALIZED FREE ENERGY PREDICTED BY IDOCK:   -3.18 KCAL/MOL
REMARK 922        TOTAL FREE ENERGY PREDICTED BY IDOCK:   -4.81 KCAL/MOL
REMARK 923 INTER-LIGAND FREE ENERGY PREDICTED BY IDOCK:   -5.23 KCAL/MOL
REMARK 924 INTRA-LIGAND FREE ENERGY PREDICTED BY IDOCK:    0.42 KCAL/MOL
REMARK 927      BINDING AFFINITY PREDICTED BY RF-SCORE:    0.00 PKD
ROOT
HETATM    1  C   UNL     1      -8.784  17.072  68.628  1.00  0.00    -0.261 C  
HETATM    2  C   UNL     1      -9.750  16.475  69.661  1.00  0.00     0.078 C  
HETATM    3  C   UNL     1     -11.142  16.681  69.085  1.00  0.00    -0.219 C  
HETATM    4  C   UNL     1     -10.930  17.378  67.733  1.00  0.00    -0.142 C  
HETATM    5  C   UNL     1     -10.770  16.334  66.627  1.00  0.00    -0.197 C  
HETATM    6  N   UNL     1      -9.615  18.176  67.922  1.00  0.00    -0.280 N  
HETATM    7  C   UNL     1      -9.451  15.539  66.647  1.00  0.00    -0.259 C  
HETATM    8  C   UNL     1      -9.843  19.364  68.890  1.00  0.00    -0.453 C  
HETATM    9  C   UNL     1      -8.362  15.990  67.633  1.00  0.00    -0.164 C  
ENDROOT
BRANCH   6  10
HETATM   10  C   UNL     1      -8.991  18.729  66.584  1.00  0.00    -0.315 C  
HETATM   11  C   UNL     1      -7.686  19.487  66.835  1.00  0.00    -0.276 C  
HETATM   12  C   UNL     1      -9.985  19.592  65.800  1.00  0.00    -0.305 C  
ENDBRANCH   6  10
BRANCH   7  13
HETATM   13  O   UNL     1      -9.742  14.147  66.875  1.00  0.00    -0.252 OA 
BRANCH  13  14
HETATM   14  C   UNL     1      -8.850  13.520  67.714  1.00  0.00    -0.198 C  
HETATM   15  C   UNL     1      -8.057  12.466  66.965  1.00  0.00    -0.124 C  
HETATM   16  O   UNL     1      -8.754  13.768  68.910  1.00  0.00    -0.021 OA 
HETATM   17  C   UNL     1      -6.630  12.424  67.527  1.00  0.00    -0.147 C  
HETATM   18  C   UNL     1      -8.757  11.123  67.027  1.00  0.00    -0.148 A  
HETATM   19  C   UNL     1      -9.187  10.498  65.847  1.00  0.00    -0.210 A  
HETATM   20  O   UNL     1      -5.972  13.663  67.257  1.00  0.00    -0.368 OA 
HETATM   21  H   UNL     1      -5.088  13.637  67.605  1.00  0.00     0.000 HD 
HETATM   22  C   UNL     1      -9.862   9.277  65.896  1.00  0.00    -0.335 A  
HETATM   23  C   UNL     1     -10.116   8.667  67.123  1.00  0.00    -0.329 A  
HETATM   24  C   UNL     1      -9.691   9.273  68.302  1.00  0.00    -0.167 A  
HETATM   25  C   UNL     1      -9.014  10.493  68.256  1.00  0.00    -0.139 A  
ENDBRANCH  13  14
ENDBRANCH   7  13
TORSDOF 3
ENDMDL
MODEL      160
REMARK 921   NORMALIZED FREE ENERGY PREDICTED BY IDOCK:   -3.16 KCAL/MOL
REMARK 922        TOTAL FREE ENERGY PREDICTED BY IDOCK:   -4.79 KCAL/MOL
REMARK 923 INTER-LIGAND FREE ENERGY PREDICTED BY IDOCK:   -4.27 KCAL/MOL
REMARK 924 INTRA-LIGAND FREE ENERGY PREDICTED BY IDOCK:   -0.52 KCAL/MOL
REMARK 927      BINDING AFFINITY PREDICTED BY RF-SCORE:    0.00 PKD
ROOT
HETATM    1  C   UNL     1      -9.036  16.935  69.079  1.00  0.00    -0.174 C  
HETATM    2  C   UNL     1     -10.414  17.423  68.609  1.00  0.00    -0.355 C  
HETATM    3  C   UNL     1     -10.349  17.429  67.089  1.00  0.00    -0.325 C  
HETATM    4  C   UNL     1      -8.940  16.931  66.736  1.00  0.00    -0.240 C  
HETATM    5  C   UNL     1      -8.942  15.408  66.599  1.00  0.00    -0.319 C  
HETATM    6  N   UNL     1      -8.071  17.367  67.943  1.00  0.00    -0.215 N  
HETATM    7  C   UNL     1      -9.104  14.621  67.913  1.00  0.00    -0.189 C  
HETATM    8  C   UNL     1      -7.900  18.906  67.954  1.00  0.00    -0.263 C  
HETATM    9  C   UNL     1      -9.053  15.413  69.228  1.00  0.00    -0.260 C  
ENDROOT
BRANCH   6  10
HETATM   10  C   UNL     1      -6.643  16.701  67.991  1.00  0.00    -0.136 C  
HETATM   11  C   UNL     1      -5.993  16.847  69.369  1.00  0.00    -0.206 C  
HETATM   12  C   UNL     1      -5.721  17.237  66.891  1.00  0.00    -0.213 C  
ENDBRANCH   6  10
BRANCH   7  13
HETATM   13  O   UNL     1     -10.332  13.870  67.865  1.00  0.00    -0.233 OA 
BRANCH  13  14
HETATM   14  C   UNL     1     -10.176  12.571  67.438  1.00  0.00    -0.213 C  
HETATM   15  C   UNL     1      -9.675  12.533  66.006  1.00  0.00    -0.247 C  
HETATM   16  O   UNL     1     -10.448  11.593  68.124  1.00  0.00    -0.183 OA 
HETATM   17  C   UNL     1      -8.728  11.338  65.842  1.00  0.00    -0.145 C  
HETATM   18  C   UNL     1     -10.836  12.507  65.032  1.00  0.00    -0.324 A  
HETATM   19  C   UNL     1     -11.003  13.547  64.106  1.00  0.00    -0.274 A  
HETATM   20  O   UNL     1      -7.566  11.532  66.649  1.00  0.00    -0.215 OA 
HETATM   21  H   UNL     1      -6.979  10.791  66.547  1.00  0.00     0.000 HD 
HETATM   22  C   UNL     1     -12.088  13.548  63.228  1.00  0.00    -0.223 A  
HETATM   23  C   UNL     1     -13.018  12.512  63.264  1.00  0.00     0.086 A  
HETATM   24  C   UNL     1     -12.864  11.470  64.174  1.00  0.00     0.405 A  
HETATM   25  C   UNL     1     -11.779  11.465  65.052  1.00  0.00     0.188 A  
ENDBRANCH  13  14
ENDBRANCH   7  13
TORSDOF 3
ENDMDL
MODEL      161
REMARK 921   NORMALIZED FREE ENERGY PREDICTED BY IDOCK:   -3.11 KCAL/MOL
REMARK 922        TOTAL FREE ENERGY PREDICTED BY IDOCK:   -4.74 KCAL/MOL
REMARK 923 INTER-LIGAND FREE ENERGY PREDICTED BY IDOCK:   -4.05 KCAL/MOL
REMARK 924 INTRA-LIGAND FREE ENERGY PREDICTED BY IDOCK:   -0.69 KCAL/MOL
REMARK 927      BINDING AFFINITY PREDICTED BY RF-SCORE:    0.00 PKD
ROOT
HETATM    1  C   UNL     1      -8.319   8.838  67.979  1.00  0.00    -0.119 C  
HETATM    2  C   UNL     1      -9.287  10.023  68.102  1.00  0.00    -0.137 C  
HETATM    3  C   UNL     1     -10.614   9.528  67.548  1.00  0.00    -0.338 C  
HETATM    4  C   UNL     1     -10.369   8.069  67.135  1.00  0.00    -0.325 C  
HETATM    5  C   UNL     1     -10.663   7.137  68.312  1.00  0.00    -0.202 C  
HETATM    6  N   UNL     1      -8.863   8.027  66.772  1.00  0.00    -0.134 N  
HETATM    7  C   UNL     1      -9.649   7.186  69.470  1.00  0.00    -0.154 C  
HETATM    8  C   UNL     1      -8.606   8.804  65.457  1.00  0.00    -0.174 C  
HETATM    9  C   UNL     1      -8.364   8.002  69.258  1.00  0.00    -0.134 C  
ENDROOT
BRANCH   6  10
HETATM   10  C   UNL     1      -8.270   6.574  66.622  1.00  0.00    -0.112 C  
HETATM   11  C   UNL     1      -6.783   6.526  66.978  1.00  0.00    -0.060 C  
HETATM   12  C   UNL     1      -8.518   5.992  65.226  1.00  0.00    -0.131 C  
ENDBRANCH   6  10
BRANCH   7  13
HETATM   13  O   UNL     1     -10.313   7.657  70.658  1.00  0.00    -0.203 OA 
BRANCH  13  14
HETATM   14  C   UNL     1     -10.609   6.664  71.563  1.00  0.00    -0.222 C  
HETATM   15  C   UNL     1      -9.455   6.451  72.525  1.00  0.00    -0.145 C  
HETATM   16  O   UNL     1     -11.655   6.025  71.553  1.00  0.00    -0.271 OA 
HETATM   17  C   UNL     1     -10.018   6.097  73.907  1.00  0.00    -0.227 C  
HETATM   18  C   UNL     1      -8.497   5.405  71.989  1.00  0.00    -0.127 A  
HETATM   19  C   UNL     1      -7.165   5.745  71.715  1.00  0.00    -0.091 A  
HETATM   20  O   UNL     1     -10.748   7.208  74.427  1.00  0.00    -0.463 OA 
HETATM   21  H   UNL     1     -11.096   6.988  75.284  1.00  0.00     0.000 HD 
HETATM   22  C   UNL     1      -6.284   4.797  71.190  1.00  0.00    -0.019 A  
HETATM   23  C   UNL     1      -6.724   3.501  70.933  1.00  0.00    -0.032 A  
HETATM   24  C   UNL     1      -8.043   3.147  71.205  1.00  0.00    -0.067 A  
HETATM   25  C   UNL     1      -8.925   4.092  71.732  1.00  0.00    -0.159 A  
ENDBRANCH  13  14
ENDBRANCH   7  13
TORSDOF 3
ENDMDL
MODEL      162
REMARK 921   NORMALIZED FREE ENERGY PREDICTED BY IDOCK:   -3.11 KCAL/MOL
REMARK 922        TOTAL FREE ENERGY PREDICTED BY IDOCK:   -4.73 KCAL/MOL
REMARK 923 INTER-LIGAND FREE ENERGY PREDICTED BY IDOCK:   -4.86 KCAL/MOL
REMARK 924 INTRA-LIGAND FREE ENERGY PREDICTED BY IDOCK:    0.13 KCAL/MOL
REMARK 927      BINDING AFFINITY PREDICTED BY RF-SCORE:    0.00 PKD
ROOT
HETATM    1  C   UNL     1      -7.410   7.699  67.951  1.00  0.00    -0.102 C  
HETATM    2  C   UNL     1      -7.585   6.964  66.614  1.00  0.00    -0.089 C  
HETATM    3  C   UNL     1      -9.085   6.908  66.372  1.00  0.00    -0.185 C  
HETATM    4  C   UNL     1      -9.723   7.625  67.571  1.00  0.00    -0.156 C  
HETATM    5  C   UNL     1      -9.863   9.119  67.272  1.00  0.00    -0.244 C  
HETATM    6  N   UNL     1      -8.718   7.394  68.728  1.00  0.00    -0.129 N  
HETATM    7  C   UNL     1      -8.548   9.918  67.242  1.00  0.00    -0.125 C  
HETATM    8  C   UNL     1      -8.736   5.908  69.166  1.00  0.00    -0.118 C  
HETATM    9  C   UNL     1      -7.267   9.200  67.696  1.00  0.00    -0.083 C  
ENDROOT
BRANCH   6  10
HETATM   10  C   UNL     1      -8.967   8.296  69.996  1.00  0.00    -0.142 C  
HETATM   11  C   UNL     1      -7.889   8.091  71.062  1.00  0.00    -0.090 C  
HETATM   12  C   UNL     1     -10.366   8.087  70.585  1.00  0.00    -0.211 C  
ENDBRANCH   6  10
BRANCH   7  13
HETATM   13  O   UNL     1      -8.345  10.445  65.917  1.00  0.00    -0.140 OA 
BRANCH  13  14
HETATM   14  C   UNL     1      -9.512  10.699  65.233  1.00  0.00    -0.221 C  
HETATM   15  C   UNL     1      -9.574  12.151  64.798  1.00  0.00     0.026 C  
HETATM   16  O   UNL     1     -10.386   9.861  65.046  1.00  0.00    -0.109 OA 
HETATM   17  C   UNL     1     -10.275  12.233  63.436  1.00  0.00    -0.323 C  
HETATM   18  C   UNL     1     -10.243  13.001  65.861  1.00  0.00    -0.298 A  
HETATM   19  C   UNL     1      -9.536  14.044  66.477  1.00  0.00    -0.307 A  
HETATM   20  O   UNL     1      -9.483  11.572  62.449  1.00  0.00    -0.440 OA 
HETATM   21  H   UNL     1      -9.917  11.623  61.605  1.00  0.00     0.000 HD 
HETATM   22  C   UNL     1     -10.133  14.810  67.480  1.00  0.00    -0.224 A  
HETATM   23  C   UNL     1     -11.441  14.544  67.878  1.00  0.00    -0.348 A  
HETATM   24  C   UNL     1     -12.157  13.516  67.272  1.00  0.00    -0.367 A  
HETATM   25  C   UNL     1     -11.564  12.749  66.268  1.00  0.00    -0.433 A  
ENDBRANCH  13  14
ENDBRANCH   7  13
TORSDOF 3
ENDMDL
MODEL      163
REMARK 921   NORMALIZED FREE ENERGY PREDICTED BY IDOCK:   -3.05 KCAL/MOL
REMARK 922        TOTAL FREE ENERGY PREDICTED BY IDOCK:   -4.66 KCAL/MOL
REMARK 923 INTER-LIGAND FREE ENERGY PREDICTED BY IDOCK:   -4.04 KCAL/MOL
REMARK 924 INTRA-LIGAND FREE ENERGY PREDICTED BY IDOCK:   -0.63 KCAL/MOL
REMARK 927      BINDING AFFINITY PREDICTED BY RF-SCORE:    0.00 PKD
ROOT
HETATM    1  C   UNL     1      -5.437   9.542  66.327  1.00  0.00    -0.047 C  
HETATM    2  C   UNL     1      -5.595  10.956  66.904  1.00  0.00    -0.065 C  
HETATM    3  C   UNL     1      -6.975  11.424  66.468  1.00  0.00    -0.062 C  
HETATM    4  C   UNL     1      -7.571  10.258  65.665  1.00  0.00    -0.148 C  
HETATM    5  C   UNL     1      -8.330   9.314  66.599  1.00  0.00    -0.122 C  
HETATM    6  N   UNL     1      -6.334   9.546  65.060  1.00  0.00    -0.079 N  
HETATM    7  C   UNL     1      -7.458   8.472  67.549  1.00  0.00    -0.093 C  
HETATM    8  C   UNL     1      -5.691  10.428  63.961  1.00  0.00    -0.133 C  
HETATM    9  C   UNL     1      -5.935   8.513  67.342  1.00  0.00    -0.047 C  
ENDROOT
BRANCH   6  10
HETATM   10  C   UNL     1      -6.636   8.123  64.452  1.00  0.00    -0.065 C  
HETATM   11  C   UNL     1      -5.361   7.425  63.974  1.00  0.00    -0.029 C  
HETATM   12  C   UNL     1      -7.678   8.186  63.330  1.00  0.00    -0.143 C  
ENDBRANCH   6  10
BRANCH   7  13
HETATM   13  O   UNL     1      -7.756   8.836  68.910  1.00  0.00    -0.092 OA 
BRANCH  13  14
HETATM   14  C   UNL     1      -8.646   7.992  69.532  1.00  0.00    -0.136 C  
HETATM   15  C   UNL     1     -10.008   8.064  68.868  1.00  0.00    -0.199 C  
HETATM   16  O   UNL     1      -8.366   7.311  70.512  1.00  0.00    -0.129 OA 
HETATM   17  C   UNL     1     -10.653   6.672  68.901  1.00  0.00    -0.230 C  
HETATM   18  C   UNL     1     -10.867   9.130  69.520  1.00  0.00    -0.194 A  
HETATM   19  C   UNL     1     -11.326  10.221  68.768  1.00  0.00    -0.226 A  
HETATM   20  O   UNL     1      -9.886   5.769  68.104  1.00  0.00    -0.122 OA 
HETATM   21  H   UNL     1     -10.285   4.907  68.125  1.00  0.00     0.000 HD 
HETATM   22  C   UNL     1     -12.089  11.225  69.368  1.00  0.00    -0.384 A  
HETATM   23  C   UNL     1     -12.402  11.150  70.723  1.00  0.00    -0.504 A  
HETATM   24  C   UNL     1     -11.959  10.069  71.481  1.00  0.00    -0.438 A  
HETATM   25  C   UNL     1     -11.197   9.063  70.884  1.00  0.00    -0.348 A  
ENDBRANCH  13  14
ENDBRANCH   7  13
TORSDOF 3
ENDMDL
MODEL      164
REMARK 921   NORMALIZED FREE ENERGY PREDICTED BY IDOCK:   -3.05 KCAL/MOL
REMARK 922        TOTAL FREE ENERGY PREDICTED BY IDOCK:   -4.66 KCAL/MOL
REMARK 923 INTER-LIGAND FREE ENERGY PREDICTED BY IDOCK:   -4.08 KCAL/MOL
REMARK 924 INTRA-LIGAND FREE ENERGY PREDICTED BY IDOCK:   -0.58 KCAL/MOL
REMARK 927      BINDING AFFINITY PREDICTED BY RF-SCORE:    0.00 PKD
ROOT
HETATM    1  C   UNL     1     -11.079  13.693  65.321  1.00  0.00    -0.301 C  
HETATM    2  C   UNL     1     -12.027  13.917  66.508  1.00  0.00    -0.470 C  
HETATM    3  C   UNL     1     -11.932  12.654  67.351  1.00  0.00    -0.309 C  
HETATM    4  C   UNL     1     -10.922  11.751  66.628  1.00  0.00    -0.294 C  
HETATM    5  C   UNL     1      -9.508  12.038  67.134  1.00  0.00    -0.187 C  
HETATM    6  N   UNL     1     -11.057  12.152  65.136  1.00  0.00    -0.314 N  
HETATM    7  C   UNL     1      -8.907  13.389  66.703  1.00  0.00    -0.060 C  
HETATM    8  C   UNL     1     -12.417  11.670  64.572  1.00  0.00     0.336 C  
HETATM    9  C   UNL     1      -9.686  14.217  65.670  1.00  0.00    -0.238 C  
ENDROOT
BRANCH   6  10
HETATM   10  C   UNL     1      -9.905  11.607  64.209  1.00  0.00    -0.230 C  
HETATM   11  C   UNL     1     -10.212  11.830  62.727  1.00  0.00     0.168 C  
HETATM   12  C   UNL     1      -9.591  10.133  64.487  1.00  0.00    -0.376 C  
ENDBRANCH   6  10
BRANCH   7  13
HETATM   13  O   UNL     1      -8.673  14.196  67.872  1.00  0.00    -0.163 OA 
BRANCH  13  14
HETATM   14  C   UNL     1      -7.367  14.191  68.303  1.00  0.00    -0.120 C  
HETATM   15  C   UNL     1      -7.192  15.107  69.499  1.00  0.00    -0.204 C  
HETATM   16  O   UNL     1      -6.474  13.554  67.757  1.00  0.00    -0.144 OA 
HETATM   17  C   UNL     1      -6.152  14.495  70.447  1.00  0.00    -0.176 C  
HETATM   18  C   UNL     1      -6.831  16.510  69.052  1.00  0.00    -0.203 A  
HETATM   19  C   UNL     1      -7.678  17.586  69.357  1.00  0.00     0.228 A  
HETATM   20  O   UNL     1      -6.651  13.267  70.977  1.00  0.00    -0.175 OA 
HETATM   21  H   UNL     1      -6.007  12.887  71.565  1.00  0.00     0.000 HD 
HETATM   22  C   UNL     1      -7.371  18.876  68.920  1.00  0.00    -0.345 A  
HETATM   23  C   UNL     1      -6.217  19.106  68.175  1.00  0.00    -0.235 A  
HETATM   24  C   UNL     1      -5.364  18.049  67.869  1.00  0.00    -0.151 A  
HETATM   25  C   UNL     1      -5.667  16.759  68.306  1.00  0.00    -0.118 A  
ENDBRANCH  13  14
ENDBRANCH   7  13
TORSDOF 3
ENDMDL
MODEL      165
REMARK 921   NORMALIZED FREE ENERGY PREDICTED BY IDOCK:   -3.04 KCAL/MOL
REMARK 922        TOTAL FREE ENERGY PREDICTED BY IDOCK:   -4.65 KCAL/MOL
REMARK 923 INTER-LIGAND FREE ENERGY PREDICTED BY IDOCK:   -3.92 KCAL/MOL
REMARK 924 INTRA-LIGAND FREE ENERGY PREDICTED BY IDOCK:   -0.73 KCAL/MOL
REMARK 927      BINDING AFFINITY PREDICTED BY RF-SCORE:    0.00 PKD
ROOT
HETATM    1  C   UNL     1     -10.210   5.866  69.842  1.00  0.00    -0.218 C  
HETATM    2  C   UNL     1     -11.473   6.663  69.484  1.00  0.00    -0.323 C  
HETATM    3  C   UNL     1     -11.415   7.923  70.333  1.00  0.00    -0.154 C  
HETATM    4  C   UNL     1     -10.114   7.815  71.143  1.00  0.00    -0.187 C  
HETATM    5  C   UNL     1      -8.959   8.446  70.362  1.00  0.00    -0.152 C  
HETATM    6  N   UNL     1      -9.893   6.290  71.301  1.00  0.00    -0.175 N  
HETATM    7  C   UNL     1      -8.486   7.663  69.124  1.00  0.00    -0.138 C  
HETATM    8  C   UNL     1     -10.949   5.692  72.265  1.00  0.00    -0.258 C  
HETATM    9  C   UNL     1      -9.070   6.259  68.903  1.00  0.00    -0.124 C  
ENDROOT
BRANCH   6  10
HETATM   10  C   UNL     1      -8.458   5.890  71.816  1.00  0.00    -0.131 C  
HETATM   11  C   UNL     1      -8.252   4.374  71.809  1.00  0.00    -0.101 C  
HETATM   12  C   UNL     1      -8.158   6.477  73.199  1.00  0.00    -0.106 C  
ENDBRANCH   6  10
BRANCH   7  13
HETATM   13  O   UNL     1      -8.717   8.458  67.946  1.00  0.00    -0.136 OA 
BRANCH  13  14
HETATM   14  C   UNL     1      -7.710   9.355  67.671  1.00  0.00    -0.088 C  
HETATM   15  C   UNL     1      -8.246  10.543  66.894  1.00  0.00    -0.123 C  
HETATM   16  O   UNL     1      -6.539   9.179  67.986  1.00  0.00    -0.059 OA 
HETATM   17  C   UNL     1      -7.493  11.805  67.332  1.00  0.00    -0.143 C  
HETATM   18  C   UNL     1      -8.161  10.291  65.402  1.00  0.00    -0.156 A  
HETATM   19  C   UNL     1      -9.328  10.268  64.624  1.00  0.00    -0.320 A  
HETATM   20  O   UNL     1      -7.779  12.083  68.703  1.00  0.00    -0.125 OA 
HETATM   21  H   UNL     1      -7.312  12.865  68.975  1.00  0.00     0.000 HD 
HETATM   22  C   UNL     1      -9.263  10.003  63.254  1.00  0.00    -0.317 A  
HETATM   23  C   UNL     1      -8.033   9.759  62.647  1.00  0.00    -0.131 A  
HETATM   24  C   UNL     1      -6.866   9.783  63.406  1.00  0.00    -0.119 A  
HETATM   25  C   UNL     1      -6.928  10.049  64.774  1.00  0.00    -0.137 A  
ENDBRANCH  13  14
ENDBRANCH   7  13
TORSDOF 3
ENDMDL
MODEL      166
REMARK 921   NORMALIZED FREE ENERGY PREDICTED BY IDOCK:   -2.97 KCAL/MOL
REMARK 922        TOTAL FREE ENERGY PREDICTED BY IDOCK:   -4.57 KCAL/MOL
REMARK 923 INTER-LIGAND FREE ENERGY PREDICTED BY IDOCK:   -3.67 KCAL/MOL
REMARK 924 INTRA-LIGAND FREE ENERGY PREDICTED BY IDOCK:   -0.90 KCAL/MOL
REMARK 927      BINDING AFFINITY PREDICTED BY RF-SCORE:    0.00 PKD
ROOT
HETATM    1  C   UNL     1      -9.014   9.809  66.007  1.00  0.00    -0.155 C  
HETATM    2  C   UNL     1      -9.744   9.406  67.296  1.00  0.00    -0.215 C  
HETATM    3  C   UNL     1      -8.709   8.683  68.143  1.00  0.00    -0.142 C  
HETATM    4  C   UNL     1      -7.414   8.705  67.319  1.00  0.00    -0.089 C  
HETATM    5  C   UNL     1      -6.608   9.965  67.645  1.00  0.00    -0.068 C  
HETATM    6  N   UNL     1      -7.902   8.738  65.849  1.00  0.00    -0.100 N  
HETATM    7  C   UNL     1      -7.198  11.287  67.120  1.00  0.00    -0.126 C  
HETATM    8  C   UNL     1      -8.532   7.376  65.462  1.00  0.00    -0.118 C  
HETATM    9  C   UNL     1      -8.406  11.202  66.174  1.00  0.00    -0.144 C  
ENDROOT
BRANCH   6  10
HETATM   10  C   UNL     1      -6.780   9.090  64.798  1.00  0.00    -0.076 C  
HETATM   11  C   UNL     1      -7.349   9.239  63.386  1.00  0.00    -0.096 C  
HETATM   12  C   UNL     1      -5.632   8.076  64.822  1.00  0.00    -0.044 C  
ENDBRANCH   6  10
BRANCH   7  13
HETATM   13  O   UNL     1      -7.536  12.130  68.237  1.00  0.00    -0.115 OA 
BRANCH  13  14
HETATM   14  C   UNL     1      -6.852  13.323  68.263  1.00  0.00    -0.105 C  
HETATM   15  C   UNL     1      -7.687  14.408  68.917  1.00  0.00    -0.128 C  
HETATM   16  O   UNL     1      -5.735  13.477  67.783  1.00  0.00    -0.155 OA 
HETATM   17  C   UNL     1      -6.761  15.342  69.706  1.00  0.00    -0.170 C  
HETATM   18  C   UNL     1      -8.524  15.137  67.885  1.00  0.00    -0.152 A  
HETATM   19  C   UNL     1      -9.923  15.115  67.970  1.00  0.00    -0.221 A  
HETATM   20  O   UNL     1      -6.157  14.624  70.782  1.00  0.00    -0.170 OA 
HETATM   21  H   UNL     1      -5.583  15.203  71.270  1.00  0.00     0.000 HD 
HETATM   22  C   UNL     1     -10.703  15.755  67.004  1.00  0.00    -0.306 A  
HETATM   23  C   UNL     1     -10.094  16.423  65.944  1.00  0.00    -0.370 A  
HETATM   24  C   UNL     1      -8.706  16.457  65.849  1.00  0.00    -0.134 A  
HETATM   25  C   UNL     1      -7.924  15.820  66.814  1.00  0.00    -0.273 A  
ENDBRANCH  13  14
ENDBRANCH   7  13
TORSDOF 3
ENDMDL
MODEL      167
REMARK 921   NORMALIZED FREE ENERGY PREDICTED BY IDOCK:   -2.97 KCAL/MOL
REMARK 922        TOTAL FREE ENERGY PREDICTED BY IDOCK:   -4.57 KCAL/MOL
REMARK 923 INTER-LIGAND FREE ENERGY PREDICTED BY IDOCK:   -3.46 KCAL/MOL
REMARK 924 INTRA-LIGAND FREE ENERGY PREDICTED BY IDOCK:   -1.11 KCAL/MOL
REMARK 927      BINDING AFFINITY PREDICTED BY RF-SCORE:    0.00 PKD
ROOT
HETATM    1  C   UNL     1     -10.762   7.861  69.683  1.00  0.00    -0.218 C  
HETATM    2  C   UNL     1     -10.973   9.311  69.226  1.00  0.00    -0.105 C  
HETATM    3  C   UNL     1      -9.907  10.125  69.944  1.00  0.00    -0.223 C  
HETATM    4  C   UNL     1      -9.110   9.114  70.781  1.00  0.00    -0.255 C  
HETATM    5  C   UNL     1      -7.945   8.559  69.958  1.00  0.00    -0.109 C  
HETATM    6  N   UNL     1     -10.134   7.994  71.096  1.00  0.00    -0.187 N  
HETATM    7  C   UNL     1      -8.333   7.605  68.813  1.00  0.00    -0.129 C  
HETATM    8  C   UNL     1     -11.197   8.507  72.099  1.00  0.00    -0.362 C  
HETATM    9  C   UNL     1      -9.800   7.156  68.726  1.00  0.00    -0.158 C  
ENDROOT
BRANCH   6  10
HETATM   10  C   UNL     1      -9.496   6.672  71.671  1.00  0.00    -0.159 C  
HETATM   11  C   UNL     1     -10.557   5.613  71.975  1.00  0.00    -0.283 C  
HETATM   12  C   UNL     1      -8.623   6.942  72.901  1.00  0.00    -0.129 C  
ENDBRANCH   6  10
BRANCH   7  13
HETATM   13  O   UNL     1      -7.949   8.195  67.557  1.00  0.00    -0.118 OA 
BRANCH  13  14
HETATM   14  C   UNL     1      -6.932   7.526  66.914  1.00  0.00    -0.079 C  
HETATM   15  C   UNL     1      -7.438   6.877  65.639  1.00  0.00    -0.085 C  
HETATM   16  O   UNL     1      -5.790   7.446  67.349  1.00  0.00    -0.032 OA 
HETATM   17  C   UNL     1      -6.331   6.932  64.579  1.00  0.00    -0.036 C  
HETATM   18  C   UNL     1      -7.927   5.468  65.912  1.00  0.00    -0.106 A  
HETATM   19  C   UNL     1      -9.266   5.129  65.673  1.00  0.00    -0.157 A  
HETATM   20  O   UNL     1      -6.063   8.292  64.235  1.00  0.00    -0.063 OA 
HETATM   21  H   UNL     1      -5.376   8.326  63.578  1.00  0.00     0.000 HD 
HETATM   22  C   UNL     1      -9.734   3.843  65.953  1.00  0.00    -0.168 A  
HETATM   23  C   UNL     1      -8.869   2.883  66.474  1.00  0.00    -0.153 A  
HETATM   24  C   UNL     1      -7.535   3.204  66.712  1.00  0.00    -0.075 A  
HETATM   25  C   UNL     1      -7.065   4.487  66.431  1.00  0.00    -0.075 A  
ENDBRANCH  13  14
ENDBRANCH   7  13
TORSDOF 3
ENDMDL
MODEL      168
REMARK 921   NORMALIZED FREE ENERGY PREDICTED BY IDOCK:   -2.95 KCAL/MOL
REMARK 922        TOTAL FREE ENERGY PREDICTED BY IDOCK:   -4.55 KCAL/MOL
REMARK 923 INTER-LIGAND FREE ENERGY PREDICTED BY IDOCK:   -4.05 KCAL/MOL
REMARK 924 INTRA-LIGAND FREE ENERGY PREDICTED BY IDOCK:   -0.50 KCAL/MOL
REMARK 927      BINDING AFFINITY PREDICTED BY RF-SCORE:    0.00 PKD
ROOT
HETATM    1  C   UNL     1     -11.717  11.901  66.696  1.00  0.00    -0.186 C  
HETATM    2  C   UNL     1     -10.981  10.561  66.839  1.00  0.00    -0.199 C  
HETATM    3  C   UNL     1      -9.841  10.611  65.834  1.00  0.00    -0.296 C  
HETATM    4  C   UNL     1      -9.951  11.983  65.154  1.00  0.00    -0.239 C  
HETATM    5  C   UNL     1      -9.136  13.018  65.932  1.00  0.00     0.277 C  
HETATM    6  N   UNL     1     -11.462  12.319  65.223  1.00  0.00    -0.342 N  
HETATM    7  C   UNL     1      -9.712  13.430  67.299  1.00  0.00    -0.232 C  
HETATM    8  C   UNL     1     -12.261  11.397  64.268  1.00  0.00     0.418 C  
HETATM    9  C   UNL     1     -11.117  12.923  67.662  1.00  0.00    -0.297 C  
ENDROOT
BRANCH   6  10
HETATM   10  C   UNL     1     -11.812  13.819  64.885  1.00  0.00    -0.375 C  
HETATM   11  C   UNL     1     -13.034  14.308  65.663  1.00  0.00    -0.210 C  
HETATM   12  C   UNL     1     -11.996  14.041  63.380  1.00  0.00     0.228 C  
ENDBRANCH   6  10
BRANCH   7  13
HETATM   13  O   UNL     1      -8.792  13.041  68.336  1.00  0.00    -0.183 OA 
BRANCH  13  14
HETATM   14  C   UNL     1      -7.700  13.869  68.453  1.00  0.00    -0.139 C  
HETATM   15  C   UNL     1      -7.997  15.021  69.395  1.00  0.00    -0.170 C  
HETATM   16  O   UNL     1      -6.652  13.703  67.840  1.00  0.00    -0.121 OA 
HETATM   17  C   UNL     1      -6.723  15.367  70.176  1.00  0.00     0.000 C  
HETATM   18  C   UNL     1      -8.565  16.203  68.635  1.00  0.00    -0.210 A  
HETATM   19  C   UNL     1      -9.853  16.675  68.928  1.00  0.00    -0.261 A  
HETATM   20  O   UNL     1      -6.361  14.270  71.015  1.00  0.00    -0.370 OA 
HETATM   21  H   UNL     1      -5.571  14.484  71.499  1.00  0.00     0.000 HD 
HETATM   22  C   UNL     1     -10.398  17.742  68.210  1.00  0.00    -0.387 A  
HETATM   23  C   UNL     1      -9.663  18.348  67.194  1.00  0.00    -0.307 A  
HETATM   24  C   UNL     1      -8.382  17.894  66.895  1.00  0.00    -0.260 A  
HETATM   25  C   UNL     1      -7.834  16.829  67.612  1.00  0.00    -0.189 A  
ENDBRANCH  13  14
ENDBRANCH   7  13
TORSDOF 3
ENDMDL
MODEL      169
REMARK 921   NORMALIZED FREE ENERGY PREDICTED BY IDOCK:   -2.94 KCAL/MOL
REMARK 922        TOTAL FREE ENERGY PREDICTED BY IDOCK:   -4.53 KCAL/MOL
REMARK 923 INTER-LIGAND FREE ENERGY PREDICTED BY IDOCK:   -3.76 KCAL/MOL
REMARK 924 INTRA-LIGAND FREE ENERGY PREDICTED BY IDOCK:   -0.77 KCAL/MOL
REMARK 927      BINDING AFFINITY PREDICTED BY RF-SCORE:    0.00 PKD
ROOT
HETATM    1  C   UNL     1     -10.796   8.628  69.110  1.00  0.00    -0.039 C  
HETATM    2  C   UNL     1     -10.090   9.860  68.528  1.00  0.00    -0.186 C  
HETATM    3  C   UNL     1      -9.049  10.262  69.562  1.00  0.00    -0.187 C  
HETATM    4  C   UNL     1      -9.182   9.239  70.699  1.00  0.00    -0.264 C  
HETATM    5  C   UNL     1      -8.267   8.042  70.435  1.00  0.00    -0.118 C  
HETATM    6  N   UNL     1     -10.670   8.807  70.647  1.00  0.00    -0.216 N  
HETATM    7  C   UNL     1      -8.699   7.114  69.284  1.00  0.00    -0.136 C  
HETATM    8  C   UNL     1     -11.582   9.967  71.118  1.00  0.00    -0.389 C  
HETATM    9  C   UNL     1     -10.077   7.359  68.651  1.00  0.00    -0.186 C  
ENDROOT
BRANCH   6  10
HETATM   10  C   UNL     1     -11.006   7.523  71.498  1.00  0.00    -0.229 C  
HETATM   11  C   UNL     1     -12.417   7.004  71.214  1.00  0.00    -0.430 C  
HETATM   12  C   UNL     1     -10.800   7.758  72.998  1.00  0.00    -0.451 C  
ENDBRANCH   6  10
BRANCH   7  13
HETATM   13  O   UNL     1      -7.696   7.145  68.251  1.00  0.00    -0.115 OA 
BRANCH  13  14
HETATM   14  C   UNL     1      -6.681   6.233  68.431  1.00  0.00    -0.068 C  
HETATM   15  C   UNL     1      -7.134   4.840  68.034  1.00  0.00    -0.062 C  
HETATM   16  O   UNL     1      -5.581   6.521  68.887  1.00  0.00    -0.015 OA 
HETATM   17  C   UNL     1      -5.950   4.092  67.406  1.00  0.00    -0.024 C  
HETATM   18  C   UNL     1      -7.732   4.111  69.221  1.00  0.00    -0.054 A  
HETATM   19  C   UNL     1      -9.070   3.692  69.189  1.00  0.00    -0.200 A  
HETATM   20  O   UNL     1      -5.569   4.733  66.188  1.00  0.00    -0.016 OA 
HETATM   21  H   UNL     1      -4.836   4.269  65.799  1.00  0.00     0.000 HD 
HETATM   22  C   UNL     1      -9.639   3.050  70.290  1.00  0.00    -0.160 A  
HETATM   23  C   UNL     1      -8.880   2.820  71.435  1.00  0.00    -0.131 A  
HETATM   24  C   UNL     1      -7.549   3.227  71.480  1.00  0.00    -0.048 A  
HETATM   25  C   UNL     1      -6.976   3.867  70.380  1.00  0.00    -0.034 A  
ENDBRANCH  13  14
ENDBRANCH   7  13
TORSDOF 3
ENDMDL
MODEL      170
REMARK 921   NORMALIZED FREE ENERGY PREDICTED BY IDOCK:   -2.88 KCAL/MOL
REMARK 922        TOTAL FREE ENERGY PREDICTED BY IDOCK:   -4.46 KCAL/MOL
REMARK 923 INTER-LIGAND FREE ENERGY PREDICTED BY IDOCK:   -3.55 KCAL/MOL
REMARK 924 INTRA-LIGAND FREE ENERGY PREDICTED BY IDOCK:   -0.92 KCAL/MOL
REMARK 927      BINDING AFFINITY PREDICTED BY RF-SCORE:    0.00 PKD
ROOT
HETATM    1  C   UNL     1     -11.120   6.515  71.432  1.00  0.00    -0.268 C  
HETATM    2  C   UNL     1     -12.115   7.684  71.427  1.00  0.00    -0.342 C  
HETATM    3  C   UNL     1     -11.287   8.927  71.716  1.00  0.00    -0.431 C  
HETATM    4  C   UNL     1      -9.840   8.433  71.864  1.00  0.00    -0.258 C  
HETATM    5  C   UNL     1      -9.142   8.444  70.503  1.00  0.00    -0.163 C  
HETATM    6  N   UNL     1      -9.989   6.981  72.387  1.00  0.00    -0.164 N  
HETATM    7  C   UNL     1      -9.615   7.372  69.503  1.00  0.00    -0.155 C  
HETATM    8  C   UNL     1     -10.502   6.987  73.848  1.00  0.00    -0.294 C  
HETATM    9  C   UNL     1     -10.581   6.294  70.018  1.00  0.00    -0.307 C  
ENDROOT
BRANCH   6  10
HETATM   10  C   UNL     1      -8.666   6.127  72.321  1.00  0.00    -0.137 C  
HETATM   11  C   UNL     1      -8.913   4.664  72.694  1.00  0.00    -0.133 C  
HETATM   12  C   UNL     1      -7.549   6.730  73.179  1.00  0.00    -0.086 C  
ENDBRANCH   6  10
BRANCH   7  13
HETATM   13  O   UNL     1     -10.203   8.020  68.359  1.00  0.00    -0.198 OA 
BRANCH  13  14
HETATM   14  C   UNL     1      -9.566   7.742  67.171  1.00  0.00    -0.170 C  
HETATM   15  C   UNL     1      -8.060   7.753  67.353  1.00  0.00    -0.123 C  
HETATM   16  O   UNL     1     -10.154   7.552  66.113  1.00  0.00     0.029 OA 
HETATM   17  C   UNL     1      -7.441   6.683  66.445  1.00  0.00    -0.085 C  
HETATM   18  C   UNL     1      -7.500   9.139  67.101  1.00  0.00    -0.087 A  
HETATM   19  C   UNL     1      -6.830   9.825  68.125  1.00  0.00    -0.069 A  
HETATM   20  O   UNL     1      -7.867   5.388  66.870  1.00  0.00    -0.099 OA 
HETATM   21  H   UNL     1      -7.484   4.725  66.307  1.00  0.00     0.000 HD 
HETATM   22  C   UNL     1      -6.341  11.115  67.914  1.00  0.00    -0.054 A  
HETATM   23  C   UNL     1      -6.514  11.734  66.678  1.00  0.00    -0.005 A  
HETATM   24  C   UNL     1      -7.172  11.064  65.650  1.00  0.00     0.154 A  
HETATM   25  C   UNL     1      -7.661   9.773  65.858  1.00  0.00    -0.103 A  
ENDBRANCH  13  14
ENDBRANCH   7  13
TORSDOF 3
ENDMDL
MODEL      171
REMARK 921   NORMALIZED FREE ENERGY PREDICTED BY IDOCK:   -2.86 KCAL/MOL
REMARK 922        TOTAL FREE ENERGY PREDICTED BY IDOCK:   -4.44 KCAL/MOL
REMARK 923 INTER-LIGAND FREE ENERGY PREDICTED BY IDOCK:   -3.68 KCAL/MOL
REMARK 924 INTRA-LIGAND FREE ENERGY PREDICTED BY IDOCK:   -0.76 KCAL/MOL
REMARK 927      BINDING AFFINITY PREDICTED BY RF-SCORE:    0.00 PKD
ROOT
HETATM    1  C   UNL     1     -10.626   8.506  68.495  1.00  0.00    -0.111 C  
HETATM    2  C   UNL     1     -10.548   9.804  67.678  1.00  0.00    -0.333 C  
HETATM    3  C   UNL     1      -9.086  10.222  67.713  1.00  0.00    -0.138 C  
HETATM    4  C   UNL     1      -8.369   9.144  68.539  1.00  0.00    -0.123 C  
HETATM    5  C   UNL     1      -7.888   8.017  67.622  1.00  0.00    -0.122 C  
HETATM    6  N   UNL     1      -9.459   8.625  69.511  1.00  0.00    -0.161 N  
HETATM    7  C   UNL     1      -8.992   7.116  67.039  1.00  0.00    -0.129 C  
HETATM    8  C   UNL     1      -9.791   9.706  70.570  1.00  0.00    -0.231 C  
HETATM    9  C   UNL     1     -10.421   7.304  67.572  1.00  0.00    -0.337 C  
ENDROOT
BRANCH   6  10
HETATM   10  C   UNL     1      -9.083   7.288  70.257  1.00  0.00    -0.152 C  
HETATM   11  C   UNL     1     -10.238   6.773  71.119  1.00  0.00    -0.212 C  
HETATM   12  C   UNL     1      -7.803   7.431  71.085  1.00  0.00    -0.092 C  
ENDBRANCH   6  10
BRANCH   7  13
HETATM   13  O   UNL     1      -9.005   7.252  65.606  1.00  0.00    -0.087 OA 
BRANCH  13  14
HETATM   14  C   UNL     1      -8.246   6.311  64.948  1.00  0.00    -0.119 C  
HETATM   15  C   UNL     1      -8.970   4.979  64.896  1.00  0.00    -0.114 C  
HETATM   16  O   UNL     1      -7.125   6.530  64.506  1.00  0.00    -0.055 OA 
HETATM   17  C   UNL     1      -8.646   4.288  63.565  1.00  0.00    -0.110 C  
HETATM   18  C   UNL     1      -8.620   4.131  66.103  1.00  0.00    -0.113 A  
HETATM   19  C   UNL     1      -9.622   3.738  67.002  1.00  0.00    -0.213 A  
HETATM   20  O   UNL     1      -9.179   5.055  62.485  1.00  0.00    -0.288 OA 
HETATM   21  H   UNL     1      -8.979   4.628  61.660  1.00  0.00     0.000 HD 
HETATM   22  C   UNL     1      -9.304   2.985  68.134  1.00  0.00    -0.254 A  
HETATM   23  C   UNL     1      -7.984   2.617  68.381  1.00  0.00    -0.061 A  
HETATM   24  C   UNL     1      -6.979   2.996  67.495  1.00  0.00    -0.049 A  
HETATM   25  C   UNL     1      -7.294   3.746  66.361  1.00  0.00    -0.072 A  
ENDBRANCH  13  14
ENDBRANCH   7  13
TORSDOF 3
ENDMDL
MODEL      172
REMARK 921   NORMALIZED FREE ENERGY PREDICTED BY IDOCK:   -2.86 KCAL/MOL
REMARK 922        TOTAL FREE ENERGY PREDICTED BY IDOCK:   -4.44 KCAL/MOL
REMARK 923 INTER-LIGAND FREE ENERGY PREDICTED BY IDOCK:   -3.84 KCAL/MOL
REMARK 924 INTRA-LIGAND FREE ENERGY PREDICTED BY IDOCK:   -0.59 KCAL/MOL
REMARK 927      BINDING AFFINITY PREDICTED BY RF-SCORE:    0.00 PKD
ROOT
HETATM    1  C   UNL     1      -8.143  15.324  68.396  1.00  0.00    -0.137 C  
HETATM    2  C   UNL     1      -8.705  14.814  69.731  1.00  0.00     0.328 C  
HETATM    3  C   UNL     1     -10.135  14.389  69.436  1.00  0.00     0.041 C  
HETATM    4  C   UNL     1     -10.344  14.655  67.938  1.00  0.00    -0.237 C  
HETATM    5  C   UNL     1      -9.948  13.419  67.128  1.00  0.00    -0.242 C  
HETATM    6  N   UNL     1      -9.390  15.837  67.628  1.00  0.00    -0.215 N  
HETATM    7  C   UNL     1      -8.439  13.119  67.065  1.00  0.00    -0.132 C  
HETATM    8  C   UNL     1      -9.915  17.137  68.286  1.00  0.00    -0.300 C  
HETATM    9  C   UNL     1      -7.479  14.170  67.644  1.00  0.00    -0.192 C  
ENDROOT
BRANCH   6  10
HETATM   10  C   UNL     1      -9.164  16.105  66.091  1.00  0.00    -0.347 C  
HETATM   11  C   UNL     1      -8.266  17.319  65.851  1.00  0.00    -0.027 C  
HETATM   12  C   UNL     1     -10.488  16.243  65.331  1.00  0.00    -0.365 C  
ENDBRANCH   6  10
BRANCH   7  13
HETATM   13  O   UNL     1      -8.184  11.851  67.698  1.00  0.00    -0.133 OA 
BRANCH  13  14
HETATM   14  C   UNL     1      -8.955  10.819  67.214  1.00  0.00    -0.140 C  
HETATM   15  C   UNL     1      -9.583  10.038  68.353  1.00  0.00    -0.153 C  
HETATM   16  O   UNL     1      -9.074  10.561  66.023  1.00  0.00    -0.159 OA 
HETATM   17  C   UNL     1     -10.978   9.566  67.923  1.00  0.00    -0.110 C  
HETATM   18  C   UNL     1      -8.680   8.899  68.784  1.00  0.00    -0.137 A  
HETATM   19  C   UNL     1      -8.173   8.857  70.091  1.00  0.00    -0.126 A  
HETATM   20  O   UNL     1     -11.826  10.698  67.723  1.00  0.00    -0.699 OA 
HETATM   21  H   UNL     1     -12.691  10.406  67.457  1.00  0.00     0.000 HD 
HETATM   22  C   UNL     1      -7.314   7.831  70.487  1.00  0.00    -0.072 A  
HETATM   23  C   UNL     1      -6.951   6.835  69.582  1.00  0.00    -0.063 A  
HETATM   24  C   UNL     1      -7.450   6.860  68.283  1.00  0.00    -0.099 A  
HETATM   25  C   UNL     1      -8.311   7.884  67.885  1.00  0.00    -0.126 A  
ENDBRANCH  13  14
ENDBRANCH   7  13
TORSDOF 3
ENDMDL
MODEL      173
REMARK 921   NORMALIZED FREE ENERGY PREDICTED BY IDOCK:   -2.83 KCAL/MOL
REMARK 922        TOTAL FREE ENERGY PREDICTED BY IDOCK:   -4.41 KCAL/MOL
REMARK 923 INTER-LIGAND FREE ENERGY PREDICTED BY IDOCK:   -4.03 KCAL/MOL
REMARK 924 INTRA-LIGAND FREE ENERGY PREDICTED BY IDOCK:   -0.38 KCAL/MOL
REMARK 927      BINDING AFFINITY PREDICTED BY RF-SCORE:    0.00 PKD
ROOT
HETATM    1  C   UNL     1      -7.022   5.143  66.298  1.00  0.00    -0.067 C  
HETATM    2  C   UNL     1      -7.339   6.635  66.476  1.00  0.00    -0.074 C  
HETATM    3  C   UNL     1      -8.856   6.737  66.444  1.00  0.00    -0.153 C  
HETATM    4  C   UNL     1      -9.363   5.299  66.263  1.00  0.00    -0.153 C  
HETATM    5  C   UNL     1      -9.567   4.640  67.629  1.00  0.00    -0.200 C  
HETATM    6  N   UNL     1      -8.224   4.593  65.484  1.00  0.00    -0.113 N  
HETATM    7  C   UNL     1      -8.280   4.299  68.403  1.00  0.00    -0.084 C  
HETATM    8  C   UNL     1      -8.161   5.122  64.030  1.00  0.00    -0.119 C  
HETATM    9  C   UNL     1      -6.941   4.468  67.668  1.00  0.00    -0.060 C  
ENDROOT
BRANCH   6  10
HETATM   10  C   UNL     1      -8.340   3.021  65.444  1.00  0.00    -0.097 C  
HETATM   11  C   UNL     1      -6.985   2.356  65.194  1.00  0.00    -0.048 C  
HETATM   12  C   UNL     1      -9.380   2.547  64.424  1.00  0.00    -0.135 C  
ENDBRANCH   6  10
BRANCH   7  13
HETATM   13  O   UNL     1      -8.245   5.065  69.622  1.00  0.00    -0.086 OA 
BRANCH  13  14
HETATM   14  C   UNL     1      -9.453   5.124  70.279  1.00  0.00    -0.172 C  
HETATM   15  C   UNL     1      -9.791   6.555  70.654  1.00  0.00    -0.201 C  
HETATM   16  O   UNL     1     -10.129   4.139  70.548  1.00  0.00    -0.170 OA 
HETATM   17  C   UNL     1     -11.308   6.754  70.542  1.00  0.00    -0.343 C  
HETATM   18  C   UNL     1      -9.250   6.891  72.029  1.00  0.00    -0.146 A  
HETATM   19  C   UNL     1      -8.304   7.915  72.183  1.00  0.00    -0.168 A  
HETATM   20  O   UNL     1     -11.711   6.610  69.179  1.00  0.00    -0.629 OA 
HETATM   21  H   UNL     1     -12.651   6.733  69.110  1.00  0.00     0.000 HD 
HETATM   22  C   UNL     1      -7.775   8.209  73.441  1.00  0.00    -0.212 A  
HETATM   23  C   UNL     1      -8.184   7.486  74.558  1.00  0.00    -0.246 A  
HETATM   24  C   UNL     1      -9.126   6.470  74.422  1.00  0.00    -0.206 A  
HETATM   25  C   UNL     1      -9.659   6.175  73.166  1.00  0.00    -0.147 A  
ENDBRANCH  13  14
ENDBRANCH   7  13
TORSDOF 3
ENDMDL
MODEL      174
REMARK 921   NORMALIZED FREE ENERGY PREDICTED BY IDOCK:   -2.82 KCAL/MOL
REMARK 922        TOTAL FREE ENERGY PREDICTED BY IDOCK:   -4.39 KCAL/MOL
REMARK 923 INTER-LIGAND FREE ENERGY PREDICTED BY IDOCK:   -3.68 KCAL/MOL
REMARK 924 INTRA-LIGAND FREE ENERGY PREDICTED BY IDOCK:   -0.70 KCAL/MOL
REMARK 927      BINDING AFFINITY PREDICTED BY RF-SCORE:    0.00 PKD
ROOT
HETATM    1  C   UNL     1      -7.313   8.118  67.547  1.00  0.00    -0.093 C  
HETATM    2  C   UNL     1      -5.781   8.180  67.631  1.00  0.00    -0.039 C  
HETATM    3  C   UNL     1      -5.471   9.250  68.668  1.00  0.00    -0.040 C  
HETATM    4  C   UNL     1      -6.836   9.758  69.156  1.00  0.00    -0.054 C  
HETATM    5  C   UNL     1      -7.308   8.924  70.349  1.00  0.00    -0.070 C  
HETATM    6  N   UNL     1      -7.774   9.547  67.940  1.00  0.00    -0.087 N  
HETATM    7  C   UNL     1      -7.740   7.482  70.024  1.00  0.00    -0.094 C  
HETATM    8  C   UNL     1      -7.419  10.545  66.809  1.00  0.00    -0.115 C  
HETATM    9  C   UNL     1      -7.840   7.085  68.543  1.00  0.00    -0.122 C  
ENDROOT
BRANCH   6  10
HETATM   10  C   UNL     1      -9.309   9.686  68.271  1.00  0.00    -0.133 C  
HETATM   11  C   UNL     1     -10.186   9.283  67.084  1.00  0.00    -0.324 C  
HETATM   12  C   UNL     1      -9.667  11.091  68.765  1.00  0.00    -0.199 C  
ENDBRANCH   6  10
BRANCH   7  13
HETATM   13  O   UNL     1      -6.860   6.563  70.697  1.00  0.00    -0.059 OA 
BRANCH  13  14
HETATM   14  C   UNL     1      -7.321   6.145  71.924  1.00  0.00    -0.093 C  
HETATM   15  C   UNL     1      -8.475   5.173  71.763  1.00  0.00    -0.125 C  
HETATM   16  O   UNL     1      -6.872   6.546  72.992  1.00  0.00    -0.072 OA 
HETATM   17  C   UNL     1      -8.398   4.120  72.875  1.00  0.00    -0.093 C  
HETATM   18  C   UNL     1      -9.798   5.911  71.736  1.00  0.00    -0.192 A  
HETATM   19  C   UNL     1     -10.622   5.840  70.603  1.00  0.00    -0.346 A  
HETATM   20  O   UNL     1      -7.214   3.338  72.715  1.00  0.00    -0.042 OA 
HETATM   21  H   UNL     1      -7.166   2.685  73.405  1.00  0.00     0.000 HD 
HETATM   22  C   UNL     1     -11.827   6.544  70.557  1.00  0.00    -0.393 A  
HETATM   23  C   UNL     1     -12.223   7.325  71.640  1.00  0.00    -0.377 A  
HETATM   24  C   UNL     1     -11.418   7.401  72.774  1.00  0.00    -0.312 A  
HETATM   25  C   UNL     1     -10.214   6.697  72.824  1.00  0.00    -0.208 A  
ENDBRANCH  13  14
ENDBRANCH   7  13
TORSDOF 3
ENDMDL
MODEL      175
REMARK 921   NORMALIZED FREE ENERGY PREDICTED BY IDOCK:   -2.79 KCAL/MOL
REMARK 922        TOTAL FREE ENERGY PREDICTED BY IDOCK:   -4.35 KCAL/MOL
REMARK 923 INTER-LIGAND FREE ENERGY PREDICTED BY IDOCK:   -3.74 KCAL/MOL
REMARK 924 INTRA-LIGAND FREE ENERGY PREDICTED BY IDOCK:   -0.61 KCAL/MOL
REMARK 927      BINDING AFFINITY PREDICTED BY RF-SCORE:    0.00 PKD
ROOT
HETATM    1  C   UNL     1      -8.424   9.824  69.081  1.00  0.00    -0.143 C  
HETATM    2  C   UNL     1      -9.252   9.835  70.374  1.00  0.00    -0.169 C  
HETATM    3  C   UNL     1     -10.646   9.380  69.970  1.00  0.00    -0.267 C  
HETATM    4  C   UNL     1     -10.570   9.110  68.460  1.00  0.00    -0.169 C  
HETATM    5  C   UNL     1     -10.165   7.656  68.209  1.00  0.00    -0.229 C  
HETATM    6  N   UNL     1      -9.466  10.075  67.959  1.00  0.00    -0.137 N  
HETATM    7  C   UNL     1      -8.704   7.303  68.546  1.00  0.00    -0.123 C  
HETATM    8  C   UNL     1      -9.965  11.540  68.022  1.00  0.00    -0.189 C  
HETATM    9  C   UNL     1      -7.758   8.459  68.909  1.00  0.00    -0.105 C  
ENDROOT
BRANCH   6  10
HETATM   10  C   UNL     1      -8.956   9.778  66.497  1.00  0.00    -0.150 C  
HETATM   11  C   UNL     1      -7.651  10.515  66.188  1.00  0.00    -0.135 C  
HETATM   12  C   UNL     1     -10.023  10.089  65.442  1.00  0.00    -0.364 C  
ENDBRANCH   6  10
BRANCH   7  13
HETATM   13  O   UNL     1      -8.685   6.332  69.609  1.00  0.00    -0.134 OA 
BRANCH  13  14
HETATM   14  C   UNL     1      -9.416   5.197  69.340  1.00  0.00    -0.140 C  
HETATM   15  C   UNL     1      -8.558   4.158  68.643  1.00  0.00    -0.114 C  
HETATM   16  O   UNL     1     -10.607   5.078  69.602  1.00  0.00    -0.212 OA 
HETATM   17  C   UNL     1      -8.986   2.762  69.115  1.00  0.00    -0.113 C  
HETATM   18  C   UNL     1      -8.631   4.323  67.138  1.00  0.00    -0.104 A  
HETATM   19  C   UNL     1      -7.473   4.615  66.405  1.00  0.00    -0.082 A  
HETATM   20  O   UNL     1      -8.705   2.618  70.507  1.00  0.00    -0.060 OA 
HETATM   21  H   UNL     1      -8.971   1.753  70.799  1.00  0.00     0.000 HD 
HETATM   22  C   UNL     1      -7.536   4.802  65.022  1.00  0.00    -0.076 A  
HETATM   23  C   UNL     1      -8.756   4.700  64.359  1.00  0.00    -0.148 A  
HETATM   24  C   UNL     1      -9.914   4.406  65.073  1.00  0.00    -0.165 A  
HETATM   25  C   UNL     1      -9.854   4.216  66.454  1.00  0.00    -0.214 A  
ENDBRANCH  13  14
ENDBRANCH   7  13
TORSDOF 3
ENDMDL
MODEL      176
REMARK 921   NORMALIZED FREE ENERGY PREDICTED BY IDOCK:   -2.76 KCAL/MOL
REMARK 922        TOTAL FREE ENERGY PREDICTED BY IDOCK:   -4.32 KCAL/MOL
REMARK 923 INTER-LIGAND FREE ENERGY PREDICTED BY IDOCK:   -4.62 KCAL/MOL
REMARK 924 INTRA-LIGAND FREE ENERGY PREDICTED BY IDOCK:    0.30 KCAL/MOL
REMARK 927      BINDING AFFINITY PREDICTED BY RF-SCORE:    0.00 PKD
ROOT
HETATM    1  C   UNL     1     -12.214  14.473  66.062  1.00  0.00    -0.252 C  
HETATM    2  C   UNL     1     -12.535  13.472  64.943  1.00  0.00    -0.429 C  
HETATM    3  C   UNL     1     -11.208  13.187  64.257  1.00  0.00    -0.422 C  
HETATM    4  C   UNL     1     -10.165  14.022  65.013  1.00  0.00    -0.368 C  
HETATM    5  C   UNL     1      -9.588  13.212  66.175  1.00  0.00    -0.209 C  
HETATM    6  N   UNL     1     -10.967  15.238  65.543  1.00  0.00    -0.350 N  
HETATM    7  C   UNL     1     -10.544  12.973  67.359  1.00  0.00    -0.234 C  
HETATM    8  C   UNL     1     -11.370  16.167  64.371  1.00  0.00    -0.201 C  
HETATM    9  C   UNL     1     -11.889  13.716  67.350  1.00  0.00    -0.429 C  
ENDROOT
BRANCH   6  10
HETATM   10  C   UNL     1     -10.209  16.094  66.628  1.00  0.00    -0.287 C  
HETATM   11  C   UNL     1     -11.110  17.174  67.233  1.00  0.00     0.130 C  
HETATM   12  C   UNL     1      -8.916  16.705  66.079  1.00  0.00    -0.248 C  
ENDBRANCH   6  10
BRANCH   7  13
HETATM   13  O   UNL     1     -10.790  11.560  67.489  1.00  0.00    -0.211 OA 
BRANCH  13  14
HETATM   14  C   UNL     1      -9.806  10.882  68.170  1.00  0.00    -0.175 C  
HETATM   15  C   UNL     1      -8.434  11.239  67.629  1.00  0.00    -0.124 C  
HETATM   16  O   UNL     1     -10.031  10.074  69.063  1.00  0.00    -0.176 OA 
HETATM   17  C   UNL     1      -7.430  11.251  68.789  1.00  0.00    -0.123 C  
HETATM   18  C   UNL     1      -8.035  10.296  66.511  1.00  0.00    -0.118 A  
HETATM   19  C   UNL     1      -7.797  10.794  65.222  1.00  0.00     0.033 A  
HETATM   20  O   UNL     1      -7.765  12.296  69.703  1.00  0.00     0.003 OA 
HETATM   21  H   UNL     1      -7.142  12.304  70.422  1.00  0.00     0.000 HD 
HETATM   22  C   UNL     1      -7.462   9.929  64.178  1.00  0.00    -0.139 A  
HETATM   23  C   UNL     1      -7.362   8.559  64.410  1.00  0.00    -0.097 A  
HETATM   24  C   UNL     1      -7.592   8.051  65.686  1.00  0.00    -0.084 A  
HETATM   25  C   UNL     1      -7.924   8.913  66.732  1.00  0.00    -0.107 A  
ENDBRANCH  13  14
ENDBRANCH   7  13
TORSDOF 3
ENDMDL
MODEL      177
REMARK 921   NORMALIZED FREE ENERGY PREDICTED BY IDOCK:   -2.75 KCAL/MOL
REMARK 922        TOTAL FREE ENERGY PREDICTED BY IDOCK:   -4.31 KCAL/MOL
REMARK 923 INTER-LIGAND FREE ENERGY PREDICTED BY IDOCK:   -3.83 KCAL/MOL
REMARK 924 INTRA-LIGAND FREE ENERGY PREDICTED BY IDOCK:   -0.48 KCAL/MOL
REMARK 927      BINDING AFFINITY PREDICTED BY RF-SCORE:    0.00 PKD
ROOT
HETATM    1  C   UNL     1      -9.096   7.417  71.518  1.00  0.00    -0.139 C  
HETATM    2  C   UNL     1      -8.269   6.273  72.122  1.00  0.00    -0.109 C  
HETATM    3  C   UNL     1      -9.186   5.060  72.119  1.00  0.00    -0.156 C  
HETATM    4  C   UNL     1     -10.506   5.543  71.501  1.00  0.00    -0.235 C  
HETATM    5  C   UNL     1     -10.472   5.357  69.983  1.00  0.00    -0.373 C  
HETATM    6  N   UNL     1     -10.564   7.049  71.863  1.00  0.00    -0.213 N  
HETATM    7  C   UNL     1      -9.536   6.309  69.216  1.00  0.00    -0.134 C  
HETATM    8  C   UNL     1     -10.809   7.227  73.382  1.00  0.00    -0.324 C  
HETATM    9  C   UNL     1      -8.888   7.458  70.004  1.00  0.00    -0.141 C  
ENDROOT
BRANCH   6  10
HETATM   10  C   UNL     1     -11.659   7.865  71.076  1.00  0.00    -0.282 C  
HETATM   11  C   UNL     1     -11.546   9.369  71.336  1.00  0.00    -0.451 C  
HETATM   12  C   UNL     1     -13.076   7.363  71.375  1.00  0.00    -0.401 C  
ENDBRANCH   6  10
BRANCH   7  13
HETATM   13  O   UNL     1      -8.502   5.540  68.574  1.00  0.00    -0.100 OA 
BRANCH  13  14
HETATM   14  C   UNL     1      -7.563   6.303  67.918  1.00  0.00    -0.102 C  
HETATM   15  C   UNL     1      -7.945   6.490  66.462  1.00  0.00    -0.109 C  
HETATM   16  O   UNL     1      -6.545   6.731  68.448  1.00  0.00    -0.053 OA 
HETATM   17  C   UNL     1      -7.514   7.892  66.010  1.00  0.00    -0.078 C  
HETATM   18  C   UNL     1      -7.357   5.386  65.606  1.00  0.00    -0.073 A  
HETATM   19  C   UNL     1      -8.201   4.524  64.891  1.00  0.00    -0.107 A  
HETATM   20  O   UNL     1      -8.255   8.877  66.730  1.00  0.00    -0.109 OA 
HETATM   21  H   UNL     1      -7.988   9.745  66.450  1.00  0.00     0.000 HD 
HETATM   22  C   UNL     1      -7.669   3.482  64.128  1.00  0.00    -0.077 A  
HETATM   23  C   UNL     1      -6.291   3.291  64.070  1.00  0.00    -0.023 A  
HETATM   24  C   UNL     1      -5.440   4.141  64.770  1.00  0.00    -0.013 A  
HETATM   25  C   UNL     1      -5.968   5.185  65.533  1.00  0.00    -0.025 A  
ENDBRANCH  13  14
ENDBRANCH   7  13
TORSDOF 3
ENDMDL
MODEL      178
REMARK 921   NORMALIZED FREE ENERGY PREDICTED BY IDOCK:   -2.75 KCAL/MOL
REMARK 922        TOTAL FREE ENERGY PREDICTED BY IDOCK:   -4.30 KCAL/MOL
REMARK 923 INTER-LIGAND FREE ENERGY PREDICTED BY IDOCK:   -4.09 KCAL/MOL
REMARK 924 INTRA-LIGAND FREE ENERGY PREDICTED BY IDOCK:   -0.21 KCAL/MOL
REMARK 927      BINDING AFFINITY PREDICTED BY RF-SCORE:    0.00 PKD
ROOT
HETATM    1  C   UNL     1      -9.758   3.719  66.980  1.00  0.00    -0.109 C  
HETATM    2  C   UNL     1      -9.017   3.348  68.273  1.00  0.00    -0.184 C  
HETATM    3  C   UNL     1      -7.537   3.454  67.941  1.00  0.00    -0.064 C  
HETATM    4  C   UNL     1      -7.475   3.896  66.471  1.00  0.00    -0.083 C  
HETATM    5  C   UNL     1      -7.470   5.423  66.385  1.00  0.00    -0.087 C  
HETATM    6  N   UNL     1      -8.772   3.321  65.849  1.00  0.00    -0.121 N  
HETATM    7  C   UNL     1      -8.798   6.115  66.742  1.00  0.00    -0.122 C  
HETATM    8  C   UNL     1      -8.681   1.777  65.749  1.00  0.00    -0.116 C  
HETATM    9  C   UNL     1     -10.031   5.223  66.958  1.00  0.00    -0.214 C  
ENDROOT
BRANCH   6  10
HETATM   10  C   UNL     1      -9.123   3.898  64.425  1.00  0.00    -0.137 C  
HETATM   11  C   UNL     1     -10.453   3.354  63.901  1.00  0.00    -0.248 C  
HETATM   12  C   UNL     1      -7.997   3.658  63.414  1.00  0.00    -0.079 C  
ENDBRANCH   6  10
BRANCH   7  13
HETATM   13  O   UNL     1      -8.604   6.936  67.909  1.00  0.00    -0.122 OA 
BRANCH  13  14
HETATM   14  C   UNL     1      -9.677   7.744  68.208  1.00  0.00    -0.159 C  
HETATM   15  C   UNL     1      -9.454   8.468  69.523  1.00  0.00    -0.165 C  
HETATM   16  O   UNL     1     -10.683   7.824  67.513  1.00  0.00    -0.250 OA 
HETATM   17  C   UNL     1     -10.076   9.867  69.432  1.00  0.00    -0.212 C  
HETATM   18  C   UNL     1      -9.996   7.654  70.682  1.00  0.00    -0.183 A  
HETATM   19  C   UNL     1      -9.133   7.210  71.694  1.00  0.00    -0.141 A  
HETATM   20  O   UNL     1      -9.383  10.638  68.450  1.00  0.00    -0.150 OA 
HETATM   21  H   UNL     1      -9.768  11.505  68.394  1.00  0.00     0.000 HD 
HETATM   22  C   UNL     1      -9.616   6.431  72.748  1.00  0.00    -0.154 A  
HETATM   23  C   UNL     1     -10.964   6.087  72.802  1.00  0.00    -0.299 A  
HETATM   24  C   UNL     1     -11.834   6.525  71.807  1.00  0.00    -0.384 A  
HETATM   25  C   UNL     1     -11.355   7.305  70.753  1.00  0.00    -0.312 A  
ENDBRANCH  13  14
ENDBRANCH   7  13
TORSDOF 3
ENDMDL
MODEL      179
REMARK 921   NORMALIZED FREE ENERGY PREDICTED BY IDOCK:   -2.72 KCAL/MOL
REMARK 922        TOTAL FREE ENERGY PREDICTED BY IDOCK:   -4.28 KCAL/MOL
REMARK 923 INTER-LIGAND FREE ENERGY PREDICTED BY IDOCK:   -3.46 KCAL/MOL
REMARK 924 INTRA-LIGAND FREE ENERGY PREDICTED BY IDOCK:   -0.81 KCAL/MOL
REMARK 927      BINDING AFFINITY PREDICTED BY RF-SCORE:    0.00 PKD
ROOT
HETATM    1  C   UNL     1      -9.761   7.181  70.998  1.00  0.00    -0.165 C  
HETATM    2  C   UNL     1     -10.629   8.379  70.584  1.00  0.00    -0.234 C  
HETATM    3  C   UNL     1      -9.713   9.287  69.778  1.00  0.00    -0.202 C  
HETATM    4  C   UNL     1      -8.353   8.576  69.743  1.00  0.00    -0.124 C  
HETATM    5  C   UNL     1      -8.280   7.646  68.531  1.00  0.00    -0.125 C  
HETATM    6  N   UNL     1      -8.321   7.757  71.059  1.00  0.00    -0.112 N  
HETATM    7  C   UNL     1      -9.160   6.384  68.606  1.00  0.00    -0.127 C  
HETATM    8  C   UNL     1      -8.184   8.704  72.277  1.00  0.00    -0.039 C  
HETATM    9  C   UNL     1      -9.862   6.083  69.939  1.00  0.00    -0.213 C  
ENDROOT
BRANCH   6  10
HETATM   10  C   UNL     1      -7.174   6.679  71.127  1.00  0.00    -0.078 C  
HETATM   11  C   UNL     1      -7.457   5.611  72.186  1.00  0.00    -0.099 C  
HETATM   12  C   UNL     1      -5.798   7.316  71.347  1.00  0.00    -0.036 C  
ENDBRANCH   6  10
BRANCH   7  13
HETATM   13  O   UNL     1     -10.145   6.433  67.557  1.00  0.00    -0.133 OA 
BRANCH  13  14
HETATM   14  C   UNL     1      -9.731   5.867  66.374  1.00  0.00    -0.134 C  
HETATM   15  C   UNL     1     -10.079   4.391  66.333  1.00  0.00    -0.235 C  
HETATM   16  O   UNL     1      -9.128   6.481  65.501  1.00  0.00    -0.007 OA 
HETATM   17  C   UNL     1     -10.444   4.005  64.893  1.00  0.00    -0.158 C  
HETATM   18  C   UNL     1      -8.948   3.556  66.900  1.00  0.00    -0.165 A  
HETATM   19  C   UNL     1      -9.160   2.760  68.035  1.00  0.00    -0.228 A  
HETATM   20  O   UNL     1     -11.634   4.690  64.500  1.00  0.00    -0.625 OA 
HETATM   21  H   UNL     1     -11.860   4.451  63.608  1.00  0.00     0.000 HD 
HETATM   22  C   UNL     1      -8.116   2.015  68.585  1.00  0.00    -0.065 A  
HETATM   23  C   UNL     1      -6.849   2.055  68.008  1.00  0.00    -0.036 A  
HETATM   24  C   UNL     1      -6.624   2.837  66.878  1.00  0.00    -0.036 A  
HETATM   25  C   UNL     1      -7.666   3.582  66.325  1.00  0.00    -0.084 A  
ENDBRANCH  13  14
ENDBRANCH   7  13
TORSDOF 3
ENDMDL
MODEL      180
REMARK 921   NORMALIZED FREE ENERGY PREDICTED BY IDOCK:   -2.70 KCAL/MOL
REMARK 922        TOTAL FREE ENERGY PREDICTED BY IDOCK:   -4.25 KCAL/MOL
REMARK 923 INTER-LIGAND FREE ENERGY PREDICTED BY IDOCK:   -3.76 KCAL/MOL
REMARK 924 INTRA-LIGAND FREE ENERGY PREDICTED BY IDOCK:   -0.49 KCAL/MOL
REMARK 927      BINDING AFFINITY PREDICTED BY RF-SCORE:    0.00 PKD
ROOT
HETATM    1  C   UNL     1      -5.536   7.956  66.059  1.00  0.00    -0.029 C  
HETATM    2  C   UNL     1      -5.550   9.183  66.983  1.00  0.00    -0.041 C  
HETATM    3  C   UNL     1      -6.709  10.043  66.501  1.00  0.00    -0.082 C  
HETATM    4  C   UNL     1      -7.330   9.276  65.325  1.00  0.00    -0.094 C  
HETATM    5  C   UNL     1      -8.418   8.328  65.835  1.00  0.00    -0.151 C  
HETATM    6  N   UNL     1      -6.146   8.473  64.729  1.00  0.00    -0.063 N  
HETATM    7  C   UNL     1      -7.918   7.105  66.625  1.00  0.00    -0.111 C  
HETATM    8  C   UNL     1      -5.149   9.429  64.028  1.00  0.00    -0.059 C  
HETATM    9  C   UNL     1      -6.403   6.850  66.661  1.00  0.00    -0.046 C  
ENDROOT
BRANCH   6  10
HETATM   10  C   UNL     1      -6.570   7.350  63.708  1.00  0.00    -0.052 C  
HETATM   11  C   UNL     1      -5.384   6.473  63.301  1.00  0.00    -0.026 C  
HETATM   12  C   UNL     1      -7.271   7.928  62.475  1.00  0.00    -0.092 C  
ENDBRANCH   6  10
BRANCH   7  13
HETATM   13  O   UNL     1      -8.412   7.181  67.976  1.00  0.00    -0.121 OA 
BRANCH  13  14
HETATM   14  C   UNL     1      -9.720   7.595  68.069  1.00  0.00    -0.152 C  
HETATM   15  C   UNL     1      -9.837   8.807  68.975  1.00  0.00    -0.183 C  
HETATM   16  O   UNL     1     -10.655   7.025  67.519  1.00  0.00    -0.222 OA 
HETATM   17  C   UNL     1     -10.936   9.729  68.432  1.00  0.00    -0.152 C  
HETATM   18  C   UNL     1     -10.075   8.383  70.411  1.00  0.00    -0.202 A  
HETATM   19  C   UNL     1      -9.148   8.720  71.407  1.00  0.00    -0.313 A  
HETATM   20  O   UNL     1     -10.548  10.241  67.157  1.00  0.00    -0.247 OA 
HETATM   21  H   UNL     1     -11.229  10.812  66.821  1.00  0.00     0.000 HD 
HETATM   22  C   UNL     1      -9.341   8.305  72.726  1.00  0.00    -0.338 A  
HETATM   23  C   UNL     1     -10.462   7.550  73.064  1.00  0.00    -0.396 A  
HETATM   24  C   UNL     1     -11.394   7.212  72.087  1.00  0.00    -0.301 A  
HETATM   25  C   UNL     1     -11.204   7.627  70.768  1.00  0.00    -0.282 A  
ENDBRANCH  13  14
ENDBRANCH   7  13
TORSDOF 3
ENDMDL
MODEL      181
REMARK 921   NORMALIZED FREE ENERGY PREDICTED BY IDOCK:   -2.66 KCAL/MOL
REMARK 922        TOTAL FREE ENERGY PREDICTED BY IDOCK:   -4.20 KCAL/MOL
REMARK 923 INTER-LIGAND FREE ENERGY PREDICTED BY IDOCK:   -3.40 KCAL/MOL
REMARK 924 INTRA-LIGAND FREE ENERGY PREDICTED BY IDOCK:   -0.80 KCAL/MOL
REMARK 927      BINDING AFFINITY PREDICTED BY RF-SCORE:    0.00 PKD
ROOT
HETATM    1  C   UNL     1      -5.840   7.695  66.358  1.00  0.00    -0.037 C  
HETATM    2  C   UNL     1      -6.066   9.040  67.063  1.00  0.00    -0.058 C  
HETATM    3  C   UNL     1      -7.523   9.396  66.807  1.00  0.00    -0.094 C  
HETATM    4  C   UNL     1      -8.090   8.237  65.975  1.00  0.00    -0.110 C  
HETATM    5  C   UNL     1      -8.653   7.156  66.900  1.00  0.00    -0.124 C  
HETATM    6  N   UNL     1      -6.865   7.698  65.192  1.00  0.00    -0.047 N  
HETATM    7  C   UNL     1      -7.609   6.342  67.685  1.00  0.00    -0.097 C  
HETATM    8  C   UNL     1      -6.429   8.718  64.111  1.00  0.00    -0.072 C  
HETATM    9  C   UNL     1      -6.128   6.551  67.331  1.00  0.00    -0.028 C  
ENDROOT
BRANCH   6  10
HETATM   10  C   UNL     1      -7.097   6.300  64.503  1.00  0.00    -0.057 C  
HETATM   11  C   UNL     1      -5.777   5.588  64.201  1.00  0.00    -0.017 C  
HETATM   12  C   UNL     1      -7.958   6.416  63.241  1.00  0.00    -0.089 C  
ENDBRANCH   6  10
BRANCH   7  13
HETATM   13  O   UNL     1      -7.791   6.575  69.095  1.00  0.00    -0.106 OA 
BRANCH  13  14
HETATM   14  C   UNL     1      -8.056   5.436  69.820  1.00  0.00    -0.096 C  
HETATM   15  C   UNL     1      -9.425   4.884  69.473  1.00  0.00    -0.216 C  
HETATM   16  O   UNL     1      -7.291   4.970  70.656  1.00  0.00    -0.061 OA 
HETATM   17  C   UNL     1      -9.373   3.352  69.526  1.00  0.00    -0.170 C  
HETATM   18  C   UNL     1     -10.487   5.472  70.381  1.00  0.00    -0.356 A  
HETATM   19  C   UNL     1     -11.534   6.233  69.840  1.00  0.00    -0.459 A  
HETATM   20  O   UNL     1      -8.495   2.866  68.510  1.00  0.00    -0.064 OA 
HETATM   21  H   UNL     1      -8.463   1.916  68.543  1.00  0.00     0.000 HD 
HETATM   22  C   UNL     1     -12.498   6.807  70.671  1.00  0.00    -0.142 A  
HETATM   23  C   UNL     1     -12.426   6.628  72.051  1.00  0.00    -0.288 A  
HETATM   24  C   UNL     1     -11.396   5.871  72.602  1.00  0.00    -0.337 A  
HETATM   25  C   UNL     1     -10.432   5.294  71.773  1.00  0.00    -0.278 A  
ENDBRANCH  13  14
ENDBRANCH   7  13
TORSDOF 3
ENDMDL
MODEL      182
REMARK 921   NORMALIZED FREE ENERGY PREDICTED BY IDOCK:   -2.61 KCAL/MOL
REMARK 922        TOTAL FREE ENERGY PREDICTED BY IDOCK:   -4.14 KCAL/MOL
REMARK 923 INTER-LIGAND FREE ENERGY PREDICTED BY IDOCK:   -3.36 KCAL/MOL
REMARK 924 INTRA-LIGAND FREE ENERGY PREDICTED BY IDOCK:   -0.78 KCAL/MOL
REMARK 927      BINDING AFFINITY PREDICTED BY RF-SCORE:    0.00 PKD
ROOT
HETATM    1  C   UNL     1      -7.935  11.441  66.442  1.00  0.00    -0.088 C  
HETATM    2  C   UNL     1      -6.887  11.974  67.430  1.00  0.00    -0.142 C  
HETATM    3  C   UNL     1      -7.643  12.240  68.723  1.00  0.00    -0.044 C  
HETATM    4  C   UNL     1      -9.098  11.840  68.440  1.00  0.00    -0.176 C  
HETATM    5  C   UNL     1      -9.308  10.362  68.776  1.00  0.00    -0.175 C  
HETATM    6  N   UNL     1      -9.267  12.081  66.918  1.00  0.00    -0.191 N  
HETATM    7  C   UNL     1      -8.638   9.360  67.818  1.00  0.00    -0.116 C  
HETATM    8  C   UNL     1      -9.262  13.599  66.612  1.00  0.00    -0.212 C  
HETATM    9  C   UNL     1      -8.001   9.917  66.535  1.00  0.00    -0.110 C  
ENDROOT
BRANCH   6  10
HETATM   10  C   UNL     1     -10.571  11.446  66.300  1.00  0.00    -0.263 C  
HETATM   11  C   UNL     1     -10.565  11.508  64.772  1.00  0.00    -0.362 C  
HETATM   12  C   UNL     1     -11.845  12.079  66.869  1.00  0.00    -0.250 C  
ENDBRANCH   6  10
BRANCH   7  13
HETATM   13  O   UNL     1      -7.650   8.603  68.542  1.00  0.00    -0.092 OA 
BRANCH  13  14
HETATM   14  C   UNL     1      -8.073   7.349  68.920  1.00  0.00    -0.127 C  
HETATM   15  C   UNL     1      -8.598   7.366  70.343  1.00  0.00    -0.144 C  
HETATM   16  O   UNL     1      -7.991   6.359  68.202  1.00  0.00    -0.106 OA 
HETATM   17  C   UNL     1      -9.770   6.382  70.452  1.00  0.00    -0.165 C  
HETATM   18  C   UNL     1      -7.485   7.073  71.330  1.00  0.00    -0.081 A  
HETATM   19  C   UNL     1      -7.130   8.026  72.294  1.00  0.00    -0.093 A  
HETATM   20  O   UNL     1     -10.854   6.834  69.639  1.00  0.00    -0.236 OA 
HETATM   21  H   UNL     1     -11.580   6.225  69.707  1.00  0.00     0.000 HD 
HETATM   22  C   UNL     1      -6.084   7.779  73.185  1.00  0.00    -0.062 A  
HETATM   23  C   UNL     1      -5.382   6.577  73.123  1.00  0.00    -0.037 A  
HETATM   24  C   UNL     1      -5.726   5.619  72.174  1.00  0.00    -0.022 A  
HETATM   25  C   UNL     1      -6.773   5.863  71.283  1.00  0.00    -0.061 A  
ENDBRANCH  13  14
ENDBRANCH   7  13
TORSDOF 3
ENDMDL
MODEL      183
REMARK 921   NORMALIZED FREE ENERGY PREDICTED BY IDOCK:   -2.60 KCAL/MOL
REMARK 922        TOTAL FREE ENERGY PREDICTED BY IDOCK:   -4.13 KCAL/MOL
REMARK 923 INTER-LIGAND FREE ENERGY PREDICTED BY IDOCK:   -3.51 KCAL/MOL
REMARK 924 INTRA-LIGAND FREE ENERGY PREDICTED BY IDOCK:   -0.62 KCAL/MOL
REMARK 927      BINDING AFFINITY PREDICTED BY RF-SCORE:    0.00 PKD
ROOT
HETATM    1  C   UNL     1      -7.048   7.489  67.094  1.00  0.00    -0.085 C  
HETATM    2  C   UNL     1      -7.113   6.999  65.640  1.00  0.00    -0.068 C  
HETATM    3  C   UNL     1      -8.543   6.523  65.433  1.00  0.00    -0.076 C  
HETATM    4  C   UNL     1      -9.256   6.767  66.771  1.00  0.00    -0.150 C  
HETATM    5  C   UNL     1      -9.865   8.171  66.790  1.00  0.00    -0.329 C  
HETATM    6  N   UNL     1      -8.128   6.650  67.828  1.00  0.00    -0.115 N  
HETATM    7  C   UNL     1      -8.859   9.332  66.888  1.00  0.00    -0.127 C  
HETATM    8  C   UNL     1      -7.659   5.179  67.951  1.00  0.00    -0.084 C  
HETATM    9  C   UNL     1      -7.386   8.979  67.149  1.00  0.00    -0.087 C  
ENDROOT
BRANCH   6  10
HETATM   10  C   UNL     1      -8.522   7.176  69.260  1.00  0.00    -0.133 C  
HETATM   11  C   UNL     1      -7.315   7.225  70.200  1.00  0.00    -0.079 C  
HETATM   12  C   UNL     1      -9.664   6.363  69.878  1.00  0.00    -0.185 C  
ENDBRANCH   6  10
BRANCH   7  13
HETATM   13  O   UNL     1      -8.944  10.133  65.695  1.00  0.00    -0.157 OA 
BRANCH  13  14
HETATM   14  C   UNL     1      -9.963  11.058  65.715  1.00  0.00    -0.244 C  
HETATM   15  C   UNL     1      -9.798  12.015  66.881  1.00  0.00    -0.217 C  
HETATM   16  O   UNL     1     -10.889  11.066  64.912  1.00  0.00    -0.250 OA 
HETATM   17  C   UNL     1     -10.280  13.407  66.454  1.00  0.00    -0.293 C  
HETATM   18  C   UNL     1     -10.515  11.491  68.110  1.00  0.00    -0.216 A  
HETATM   19  C   UNL     1      -9.792  11.201  69.276  1.00  0.00    -0.000 A  
HETATM   20  O   UNL     1      -9.433  13.913  65.422  1.00  0.00    -0.526 OA 
HETATM   21  H   UNL     1      -9.731  14.776  65.157  1.00  0.00     0.000 HD 
HETATM   22  C   UNL     1     -10.438  10.687  70.402  1.00  0.00     0.305 A  
HETATM   23  C   UNL     1     -11.812  10.456  70.375  1.00  0.00    -0.418 A  
HETATM   24  C   UNL     1     -12.543  10.744  69.226  1.00  0.00     0.298 A  
HETATM   25  C   UNL     1     -11.901  11.260  68.100  1.00  0.00    -0.276 A  
ENDBRANCH  13  14
ENDBRANCH   7  13
TORSDOF 3
ENDMDL
MODEL      184
REMARK 921   NORMALIZED FREE ENERGY PREDICTED BY IDOCK:   -2.60 KCAL/MOL
REMARK 922        TOTAL FREE ENERGY PREDICTED BY IDOCK:   -4.13 KCAL/MOL
REMARK 923 INTER-LIGAND FREE ENERGY PREDICTED BY IDOCK:   -4.00 KCAL/MOL
REMARK 924 INTRA-LIGAND FREE ENERGY PREDICTED BY IDOCK:   -0.13 KCAL/MOL
REMARK 927      BINDING AFFINITY PREDICTED BY RF-SCORE:    0.00 PKD
ROOT
HETATM    1  C   UNL     1     -12.528  14.763  69.026  1.00  0.00     0.080 C  
HETATM    2  C   UNL     1     -12.606  15.958  69.987  1.00  0.00     0.069 C  
HETATM    3  C   UNL     1     -11.408  15.817  70.913  1.00  0.00    -0.426 C  
HETATM    4  C   UNL     1     -10.673  14.553  70.445  1.00  0.00     0.293 C  
HETATM    5  C   UNL     1      -9.639  14.915  69.377  1.00  0.00    -0.080 C  
HETATM    6  N   UNL     1     -11.792  13.667  69.841  1.00  0.00    -0.315 N  
HETATM    7  C   UNL     1     -10.212  15.326  68.008  1.00  0.00    -0.230 C  
HETATM    8  C   UNL     1     -12.717  13.133  70.962  1.00  0.00    -0.277 C  
HETATM    9  C   UNL     1     -11.723  15.152  67.787  1.00  0.00    -0.250 C  
ENDROOT
BRANCH   6  10
HETATM   10  C   UNL     1     -11.268  12.445  68.995  1.00  0.00    -0.266 C  
HETATM   11  C   UNL     1     -12.083  12.247  67.715  1.00  0.00    -0.033 C  
HETATM   12  C   UNL     1     -11.219  11.153  69.818  1.00  0.00    -0.318 C  
ENDBRANCH   6  10
BRANCH   7  13
HETATM   13  O   UNL     1      -9.853  16.694  67.738  1.00  0.00    -0.244 OA 
BRANCH  13  14
HETATM   14  C   UNL     1      -8.727  16.833  66.959  1.00  0.00    -0.204 C  
HETATM   15  C   UNL     1      -7.472  16.732  67.806  1.00  0.00    -0.176 C  
HETATM   16  O   UNL     1      -8.757  17.047  65.753  1.00  0.00    -0.522 OA 
HETATM   17  C   UNL     1      -6.377  16.032  66.991  1.00  0.00     0.030 C  
HETATM   18  C   UNL     1      -7.053  18.100  68.309  1.00  0.00    -0.249 A  
HETATM   19  C   UNL     1      -7.003  18.358  69.686  1.00  0.00     0.086 A  
HETATM   20  O   UNL     1      -6.766  14.685  66.722  1.00  0.00    -0.119 OA 
HETATM   21  H   UNL     1      -6.088  14.251  66.218  1.00  0.00     0.000 HD 
HETATM   22  C   UNL     1      -6.651  19.624  70.158  1.00  0.00    -0.187 A  
HETATM   23  C   UNL     1      -6.345  20.645  69.261  1.00  0.00    -0.147 A  
HETATM   24  C   UNL     1      -6.385  20.401  67.891  1.00  0.00    -0.304 A  
HETATM   25  C   UNL     1      -6.734  19.136  67.416  1.00  0.00    -0.211 A  
ENDBRANCH  13  14
ENDBRANCH   7  13
TORSDOF 3
ENDMDL
MODEL      185
REMARK 921   NORMALIZED FREE ENERGY PREDICTED BY IDOCK:   -2.58 KCAL/MOL
REMARK 922        TOTAL FREE ENERGY PREDICTED BY IDOCK:   -4.11 KCAL/MOL
REMARK 923 INTER-LIGAND FREE ENERGY PREDICTED BY IDOCK:   -3.17 KCAL/MOL
REMARK 924 INTRA-LIGAND FREE ENERGY PREDICTED BY IDOCK:   -0.94 KCAL/MOL
REMARK 927      BINDING AFFINITY PREDICTED BY RF-SCORE:    0.00 PKD
ROOT
HETATM    1  C   UNL     1      -6.815   4.623  68.141  1.00  0.00    -0.055 C  
HETATM    2  C   UNL     1      -5.581   5.314  67.543  1.00  0.00    -0.013 C  
HETATM    3  C   UNL     1      -6.106   6.566  66.857  1.00  0.00    -0.029 C  
HETATM    4  C   UNL     1      -7.623   6.561  67.094  1.00  0.00    -0.096 C  
HETATM    5  C   UNL     1      -7.951   7.295  68.396  1.00  0.00    -0.124 C  
HETATM    6  N   UNL     1      -7.981   5.058  67.214  1.00  0.00    -0.099 N  
HETATM    7  C   UNL     1      -7.547   6.567  69.691  1.00  0.00    -0.098 C  
HETATM    8  C   UNL     1      -7.845   4.363  65.836  1.00  0.00    -0.095 C  
HETATM    9  C   UNL     1      -7.041   5.121  69.568  1.00  0.00    -0.056 C  
ENDROOT
BRANCH   6  10
HETATM   10  C   UNL     1      -9.425   4.776  67.780  1.00  0.00    -0.146 C  
HETATM   11  C   UNL     1      -9.620   3.300  68.132  1.00  0.00    -0.147 C  
HETATM   12  C   UNL     1     -10.522   5.262  66.827  1.00  0.00    -0.330 C  
ENDBRANCH   6  10
BRANCH   7  13
HETATM   13  O   UNL     1      -6.558   7.352  70.385  1.00  0.00    -0.045 OA 
BRANCH  13  14
HETATM   14  C   UNL     1      -7.073   8.138  71.390  1.00  0.00    -0.068 C  
HETATM   15  C   UNL     1      -7.039   7.403  72.717  1.00  0.00    -0.071 C  
HETATM   16  O   UNL     1      -7.527   9.261  71.209  1.00  0.00    -0.284 OA 
HETATM   17  C   UNL     1      -6.751   8.412  73.837  1.00  0.00    -0.117 C  
HETATM   18  C   UNL     1      -8.323   6.628  72.934  1.00  0.00    -0.121 A  
HETATM   19  C   UNL     1      -8.289   5.232  73.067  1.00  0.00    -0.112 A  
HETATM   20  O   UNL     1      -5.442   8.957  73.668  1.00  0.00    -0.096 OA 
HETATM   21  H   UNL     1      -5.264   9.581  74.361  1.00  0.00     0.000 HD 
HETATM   22  C   UNL     1      -9.470   4.506  73.233  1.00  0.00    -0.134 A  
HETATM   23  C   UNL     1     -10.697   5.165  73.269  1.00  0.00    -0.318 A  
HETATM   24  C   UNL     1     -10.746   6.551  73.144  1.00  0.00    -0.297 A  
HETATM   25  C   UNL     1      -9.567   7.280  72.979  1.00  0.00    -0.219 A  
ENDBRANCH  13  14
ENDBRANCH   7  13
TORSDOF 3
ENDMDL
MODEL      186
REMARK 921   NORMALIZED FREE ENERGY PREDICTED BY IDOCK:   -2.55 KCAL/MOL
REMARK 922        TOTAL FREE ENERGY PREDICTED BY IDOCK:   -4.07 KCAL/MOL
REMARK 923 INTER-LIGAND FREE ENERGY PREDICTED BY IDOCK:   -3.66 KCAL/MOL
REMARK 924 INTRA-LIGAND FREE ENERGY PREDICTED BY IDOCK:   -0.41 KCAL/MOL
REMARK 927      BINDING AFFINITY PREDICTED BY RF-SCORE:    0.00 PKD
ROOT
HETATM    1  C   UNL     1      -7.458   7.385  67.099  1.00  0.00    -0.106 C  
HETATM    2  C   UNL     1      -6.411   6.690  67.980  1.00  0.00    -0.044 C  
HETATM    3  C   UNL     1      -5.635   7.811  68.655  1.00  0.00    -0.027 C  
HETATM    4  C   UNL     1      -6.270   9.114  68.149  1.00  0.00    -0.054 C  
HETATM    5  C   UNL     1      -7.417   9.530  69.073  1.00  0.00    -0.074 C  
HETATM    6  N   UNL     1      -6.810   8.750  66.742  1.00  0.00    -0.069 N  
HETATM    7  C   UNL     1      -8.681   8.654  69.000  1.00  0.00    -0.134 C  
HETATM    8  C   UNL     1      -5.635   8.534  65.756  1.00  0.00    -0.042 C  
HETATM    9  C   UNL     1      -8.747   7.588  67.895  1.00  0.00    -0.124 C  
ENDROOT
BRANCH   6  10
HETATM   10  C   UNL     1      -7.795   9.816  66.128  1.00  0.00    -0.107 C  
HETATM   11  C   UNL     1      -8.460   9.306  64.847  1.00  0.00    -0.182 C  
HETATM   12  C   UNL     1      -7.107  11.164  65.888  1.00  0.00     0.123 C  
ENDBRANCH   6  10
BRANCH   7  13
HETATM   13  O   UNL     1      -8.890   8.019  70.276  1.00  0.00    -0.142 OA 
BRANCH  13  14
HETATM   14  C   UNL     1      -9.871   8.608  71.039  1.00  0.00    -0.210 C  
HETATM   15  C   UNL     1     -11.176   8.689  70.268  1.00  0.00    -0.196 C  
HETATM   16  O   UNL     1      -9.686   9.038  72.171  1.00  0.00    -0.279 OA 
HETATM   17  C   UNL     1     -12.343   8.486  71.243  1.00  0.00    -0.271 C  
HETATM   18  C   UNL     1     -11.265   9.993  69.500  1.00  0.00    -0.254 A  
HETATM   19  C   UNL     1     -11.361   9.981  68.101  1.00  0.00    -0.100 A  
HETATM   20  O   UNL     1     -12.297   7.163  71.779  1.00  0.00    -0.321 OA 
HETATM   21  H   UNL     1     -13.020   7.038  72.383  1.00  0.00     0.000 HD 
HETATM   22  C   UNL     1     -11.410  11.177  67.383  1.00  0.00    -0.329 A  
HETATM   23  C   UNL     1     -11.364  12.397  68.053  1.00  0.00    -0.340 A  
HETATM   24  C   UNL     1     -11.274  12.425  69.442  1.00  0.00    -0.225 A  
HETATM   25  C   UNL     1     -11.227  11.231  70.163  1.00  0.00    -0.151 A  
ENDBRANCH  13  14
ENDBRANCH   7  13
TORSDOF 3
ENDMDL
MODEL      187
REMARK 921   NORMALIZED FREE ENERGY PREDICTED BY IDOCK:   -2.52 KCAL/MOL
REMARK 922        TOTAL FREE ENERGY PREDICTED BY IDOCK:   -4.04 KCAL/MOL
REMARK 923 INTER-LIGAND FREE ENERGY PREDICTED BY IDOCK:   -4.40 KCAL/MOL
REMARK 924 INTRA-LIGAND FREE ENERGY PREDICTED BY IDOCK:    0.36 KCAL/MOL
REMARK 927      BINDING AFFINITY PREDICTED BY RF-SCORE:    0.00 PKD
ROOT
HETATM    1  C   UNL     1      -7.956   9.476  69.439  1.00  0.00    -0.099 C  
HETATM    2  C   UNL     1      -6.989  10.634  69.723  1.00  0.00    -0.145 C  
HETATM    3  C   UNL     1      -5.954  10.585  68.609  1.00  0.00    -0.040 C  
HETATM    4  C   UNL     1      -6.369   9.408  67.713  1.00  0.00    -0.058 C  
HETATM    5  C   UNL     1      -7.327   9.893  66.624  1.00  0.00    -0.099 C  
HETATM    6  N   UNL     1      -7.092   8.435  68.679  1.00  0.00    -0.070 N  
HETATM    7  C   UNL     1      -8.738  10.282  67.103  1.00  0.00    -0.129 C  
HETATM    8  C   UNL     1      -6.073   7.787  69.650  1.00  0.00    -0.030 C  
HETATM    9  C   UNL     1      -9.106   9.971  68.562  1.00  0.00    -0.127 C  
ENDROOT
BRANCH   6  10
HETATM   10  C   UNL     1      -7.903   7.290  67.962  1.00  0.00    -0.118 C  
HETATM   11  C   UNL     1      -8.863   6.585  68.922  1.00  0.00    -0.126 C  
HETATM   12  C   UNL     1      -6.983   6.280  67.268  1.00  0.00    -0.072 C  
ENDBRANCH   6  10
BRANCH   7  13
HETATM   13  O   UNL     1      -8.951  11.684  66.854  1.00  0.00    -0.178 OA 
BRANCH  13  14
HETATM   14  C   UNL     1     -10.188  12.140  67.247  1.00  0.00    -0.202 C  
HETATM   15  C   UNL     1     -10.519  13.454  66.566  1.00  0.00    -0.283 C  
HETATM   16  O   UNL     1     -10.895  11.565  68.067  1.00  0.00    -0.192 OA 
HETATM   17  C   UNL     1     -12.024  13.500  66.275  1.00  0.00    -0.413 C  
HETATM   18  C   UNL     1     -10.041  14.626  67.400  1.00  0.00    -0.232 A  
HETATM   19  C   UNL     1      -9.085  15.514  66.886  1.00  0.00    -0.264 A  
HETATM   20  O   UNL     1     -12.362  12.484  65.330  1.00  0.00    -0.579 OA 
HETATM   21  H   UNL     1     -13.295  12.512  65.150  1.00  0.00     0.000 HD 
HETATM   22  C   UNL     1      -8.614  16.576  67.659  1.00  0.00    -0.189 A  
HETATM   23  C   UNL     1      -9.092  16.764  68.954  1.00  0.00    -0.230 A  
HETATM   24  C   UNL     1     -10.045  15.894  69.477  1.00  0.00    -0.277 A  
HETATM   25  C   UNL     1     -10.519  14.832  68.705  1.00  0.00    -0.250 A  
ENDBRANCH  13  14
ENDBRANCH   7  13
TORSDOF 3
ENDMDL
MODEL      188
REMARK 921   NORMALIZED FREE ENERGY PREDICTED BY IDOCK:   -2.44 KCAL/MOL
REMARK 922        TOTAL FREE ENERGY PREDICTED BY IDOCK:   -3.95 KCAL/MOL
REMARK 923 INTER-LIGAND FREE ENERGY PREDICTED BY IDOCK:   -3.00 KCAL/MOL
REMARK 924 INTRA-LIGAND FREE ENERGY PREDICTED BY IDOCK:   -0.95 KCAL/MOL
REMARK 927      BINDING AFFINITY PREDICTED BY RF-SCORE:    0.00 PKD
ROOT
HETATM    1  C   UNL     1      -8.288   7.985  71.101  1.00  0.00    -0.114 C  
HETATM    2  C   UNL     1      -7.018   7.156  71.341  1.00  0.00    -0.064 C  
HETATM    3  C   UNL     1      -7.251   5.835  70.623  1.00  0.00    -0.082 C  
HETATM    4  C   UNL     1      -8.642   5.953  69.984  1.00  0.00    -0.130 C  
HETATM    5  C   UNL     1      -8.522   6.545  68.578  1.00  0.00    -0.124 C  
HETATM    6  N   UNL     1      -9.406   6.925  70.919  1.00  0.00    -0.157 N  
HETATM    7  C   UNL     1      -8.148   8.038  68.513  1.00  0.00    -0.125 C  
HETATM    8  C   UNL     1      -9.708   6.238  72.274  1.00  0.00    -0.155 C  
HETATM    9  C   UNL     1      -8.122   8.824  69.834  1.00  0.00    -0.109 C  
ENDROOT
BRANCH   6  10
HETATM   10  C   UNL     1     -10.757   7.475  70.321  1.00  0.00    -0.238 C  
HETATM   11  C   UNL     1     -11.433   8.472  71.265  1.00  0.00    -0.329 C  
HETATM   12  C   UNL     1     -11.718   6.346  69.937  1.00  0.00    -0.309 C  
ENDBRANCH   6  10
BRANCH   7  13
HETATM   13  O   UNL     1      -6.873   8.178  67.860  1.00  0.00    -0.069 OA 
BRANCH  13  14
HETATM   14  C   UNL     1      -6.679   9.405  67.269  1.00  0.00    -0.075 C  
HETATM   15  C   UNL     1      -7.638   9.602  66.110  1.00  0.00    -0.102 C  
HETATM   16  O   UNL     1      -5.817  10.201  67.623  1.00  0.00    -0.045 OA 
HETATM   17  C   UNL     1      -8.048  11.079  66.048  1.00  0.00    -0.110 C  
HETATM   18  C   UNL     1      -7.025   9.103  64.816  1.00  0.00    -0.086 A  
HETATM   19  C   UNL     1      -7.634   8.058  64.106  1.00  0.00    -0.122 A  
HETATM   20  O   UNL     1      -8.789  11.420  67.220  1.00  0.00    -0.147 OA 
HETATM   21  H   UNL     1      -9.044  12.335  67.182  1.00  0.00     0.000 HD 
HETATM   22  C   UNL     1      -7.059   7.569  62.931  1.00  0.00    -0.078 A  
HETATM   23  C   UNL     1      -5.871   8.118  62.454  1.00  0.00    -0.075 A  
HETATM   24  C   UNL     1      -5.257   9.158  63.146  1.00  0.00    -0.067 A  
HETATM   25  C   UNL     1      -5.831   9.651  64.319  1.00  0.00    -0.085 A  
ENDBRANCH  13  14
ENDBRANCH   7  13
TORSDOF 3
ENDMDL
MODEL      189
REMARK 921   NORMALIZED FREE ENERGY PREDICTED BY IDOCK:   -2.44 KCAL/MOL
REMARK 922        TOTAL FREE ENERGY PREDICTED BY IDOCK:   -3.94 KCAL/MOL
REMARK 923 INTER-LIGAND FREE ENERGY PREDICTED BY IDOCK:   -5.70 KCAL/MOL
REMARK 924 INTRA-LIGAND FREE ENERGY PREDICTED BY IDOCK:    1.76 KCAL/MOL
REMARK 927      BINDING AFFINITY PREDICTED BY RF-SCORE:    0.00 PKD
ROOT
HETATM    1  C   UNL     1      -9.026  18.299  68.486  1.00  0.00    -0.312 C  
HETATM    2  C   UNL     1     -10.174  17.762  67.620  1.00  0.00    -0.359 C  
HETATM    3  C   UNL     1      -9.959  18.361  66.239  1.00  0.00    -0.378 C  
HETATM    4  C   UNL     1      -8.686  19.213  66.353  1.00  0.00    -0.328 C  
HETATM    5  C   UNL     1      -7.457  18.362  66.031  1.00  0.00    -0.256 C  
HETATM    6  N   UNL     1      -8.664  19.661  67.837  1.00  0.00    -0.319 N  
HETATM    7  C   UNL     1      -7.082  17.306  67.088  1.00  0.00    -0.173 C  
HETATM    8  C   UNL     1      -9.791  20.689  68.104  1.00  0.00     0.039 C  
HETATM    9  C   UNL     1      -7.841  17.335  68.424  1.00  0.00    -0.254 C  
ENDROOT
BRANCH   6  10
HETATM   10  C   UNL     1      -7.293  20.282  68.308  1.00  0.00    -0.172 C  
HETATM   11  C   UNL     1      -6.244  20.258  67.195  1.00  0.00    -0.225 C  
HETATM   12  C   UNL     1      -6.761  19.606  69.576  1.00  0.00    -0.379 C  
ENDBRANCH   6  10
BRANCH   7  13
HETATM   13  O   UNL     1      -7.205  15.993  66.508  1.00  0.00    -0.153 OA 
BRANCH  13  14
HETATM   14  C   UNL     1      -7.213  14.973  67.431  1.00  0.00    -0.194 C  
HETATM   15  C   UNL     1      -8.154  13.865  66.999  1.00  0.00    -0.016 C  
HETATM   16  O   UNL     1      -6.569  14.995  68.473  1.00  0.00    -0.089 OA 
HETATM   17  C   UNL     1      -7.566  12.516  67.431  1.00  0.00    -0.156 C  
HETATM   18  C   UNL     1      -9.549  14.103  67.543  1.00  0.00    -0.223 A  
HETATM   19  C   UNL     1     -10.627  14.277  66.664  1.00  0.00    -0.278 A  
HETATM   20  O   UNL     1      -6.346  12.277  66.728  1.00  0.00    -0.433 OA 
HETATM   21  H   UNL     1      -5.981  11.441  66.995  1.00  0.00     0.000 HD 
HETATM   22  C   UNL     1     -11.910  14.531  67.154  1.00  0.00    -0.412 A  
HETATM   23  C   UNL     1     -12.129  14.613  68.527  1.00  0.00    -0.229 A  
HETATM   24  C   UNL     1     -11.070  14.438  69.413  1.00  0.00    -0.294 A  
HETATM   25  C   UNL     1      -9.787  14.182  68.925  1.00  0.00    -0.110 A  
ENDBRANCH  13  14
ENDBRANCH   7  13
TORSDOF 3
ENDMDL
MODEL      190
REMARK 921   NORMALIZED FREE ENERGY PREDICTED BY IDOCK:   -2.39 KCAL/MOL
REMARK 922        TOTAL FREE ENERGY PREDICTED BY IDOCK:   -3.88 KCAL/MOL
REMARK 923 INTER-LIGAND FREE ENERGY PREDICTED BY IDOCK:   -3.16 KCAL/MOL
REMARK 924 INTRA-LIGAND FREE ENERGY PREDICTED BY IDOCK:   -0.73 KCAL/MOL
REMARK 927      BINDING AFFINITY PREDICTED BY RF-SCORE:    0.00 PKD
ROOT
HETATM    1  C   UNL     1      -8.924  13.235  66.432  1.00  0.00     0.029 C  
HETATM    2  C   UNL     1      -7.512  13.238  67.033  1.00  0.00     0.200 C  
HETATM    3  C   UNL     1      -7.705  13.416  68.532  1.00  0.00    -0.124 C  
HETATM    4  C   UNL     1      -9.224  13.495  68.744  1.00  0.00     0.082 C  
HETATM    5  C   UNL     1      -9.794  12.093  68.969  1.00  0.00     0.190 C  
HETATM    6  N   UNL     1      -9.761  14.093  67.419  1.00  0.00    -0.228 N  
HETATM    7  C   UNL     1      -9.816  11.176  67.732  1.00  0.00    -0.171 C  
HETATM    8  C   UNL     1      -9.352  15.582  67.298  1.00  0.00    -0.212 C  
HETATM    9  C   UNL     1      -9.455  11.802  66.375  1.00  0.00    -0.234 C  
ENDROOT
BRANCH   6  10
HETATM   10  C   UNL     1     -11.323  13.983  67.241  1.00  0.00    -0.330 C  
HETATM   11  C   UNL     1     -11.788  14.579  65.910  1.00  0.00    -0.334 C  
HETATM   12  C   UNL     1     -12.081  14.609  68.416  1.00  0.00    -0.223 C  
ENDBRANCH   6  10
BRANCH   7  13
HETATM   13  O   UNL     1      -8.960  10.043  67.968  1.00  0.00    -0.128 OA 
BRANCH  13  14
HETATM   14  C   UNL     1      -9.611   8.950  68.492  1.00  0.00    -0.157 C  
HETATM   15  C   UNL     1      -9.469   8.912  70.002  1.00  0.00    -0.189 C  
HETATM   16  O   UNL     1     -10.190   8.112  67.810  1.00  0.00    -0.202 OA 
HETATM   17  C   UNL     1     -10.763   8.355  70.610  1.00  0.00    -0.220 C  
HETATM   18  C   UNL     1      -8.238   8.124  70.405  1.00  0.00    -0.114 A  
HETATM   19  C   UNL     1      -7.205   8.749  71.120  1.00  0.00    -0.097 A  
HETATM   20  O   UNL     1     -11.841   9.254  70.350  1.00  0.00    -0.439 OA 
HETATM   21  H   UNL     1     -12.643   8.909  70.727  1.00  0.00     0.000 HD 
HETATM   22  C   UNL     1      -6.053   8.040  71.466  1.00  0.00    -0.035 A  
HETATM   23  C   UNL     1      -5.920   6.702  71.103  1.00  0.00    -0.035 A  
HETATM   24  C   UNL     1      -6.939   6.067  70.398  1.00  0.00    -0.059 A  
HETATM   25  C   UNL     1      -8.093   6.772  70.052  1.00  0.00    -0.125 A  
ENDBRANCH  13  14
ENDBRANCH   7  13
TORSDOF 3
ENDMDL
MODEL      191
REMARK 921   NORMALIZED FREE ENERGY PREDICTED BY IDOCK:   -2.37 KCAL/MOL
REMARK 922        TOTAL FREE ENERGY PREDICTED BY IDOCK:   -3.86 KCAL/MOL
REMARK 923 INTER-LIGAND FREE ENERGY PREDICTED BY IDOCK:   -3.13 KCAL/MOL
REMARK 924 INTRA-LIGAND FREE ENERGY PREDICTED BY IDOCK:   -0.73 KCAL/MOL
REMARK 927      BINDING AFFINITY PREDICTED BY RF-SCORE:    0.00 PKD
ROOT
HETATM    1  C   UNL     1      -5.898   9.058  65.814  1.00  0.00    -0.051 C  
HETATM    2  C   UNL     1      -6.140  10.358  66.596  1.00  0.00    -0.068 C  
HETATM    3  C   UNL     1      -7.506  10.855  66.150  1.00  0.00    -0.107 C  
HETATM    4  C   UNL     1      -8.012   9.817  65.136  1.00  0.00    -0.129 C  
HETATM    5  C   UNL     1      -8.793   8.718  65.859  1.00  0.00    -0.222 C  
HETATM    6  N   UNL     1      -6.717   9.241  64.508  1.00  0.00    -0.083 N  
HETATM    7  C   UNL     1      -7.950   7.758  66.720  1.00  0.00    -0.107 C  
HETATM    8  C   UNL     1      -6.040  10.302  63.606  1.00  0.00    -0.130 C  
HETATM    9  C   UNL     1      -6.421   7.869  66.621  1.00  0.00    -0.055 C  
ENDROOT
BRANCH   6  10
HETATM   10  C   UNL     1      -6.932   7.926  63.666  1.00  0.00    -0.075 C  
HETATM   11  C   UNL     1      -5.605   7.324  63.201  1.00  0.00    -0.041 C  
HETATM   12  C   UNL     1      -7.877   8.150  62.481  1.00  0.00    -0.140 C  
ENDBRANCH   6  10
BRANCH   7  13
HETATM   13  O   UNL     1      -8.342   7.893  68.099  1.00  0.00    -0.122 OA 
BRANCH  13  14
HETATM   14  C   UNL     1      -9.498   7.219  68.420  1.00  0.00    -0.142 C  
HETATM   15  C   UNL     1      -9.245   5.725  68.498  1.00  0.00    -0.126 C  
HETATM   16  O   UNL     1     -10.582   7.767  68.579  1.00  0.00    -0.189 OA 
HETATM   17  C   UNL     1     -10.121   5.130  69.608  1.00  0.00    -0.261 C  
HETATM   18  C   UNL     1      -9.472   5.071  67.149  1.00  0.00    -0.146 A  
HETATM   19  C   UNL     1      -8.418   4.411  66.501  1.00  0.00    -0.112 A  
HETATM   20  O   UNL     1      -9.715   5.653  70.873  1.00  0.00    -0.164 OA 
HETATM   21  H   UNL     1     -10.257   5.284  71.560  1.00  0.00     0.000 HD 
HETATM   22  C   UNL     1      -8.608   3.835  65.243  1.00  0.00    -0.114 A  
HETATM   23  C   UNL     1      -9.852   3.912  64.620  1.00  0.00    -0.193 A  
HETATM   24  C   UNL     1     -10.909   4.560  65.254  1.00  0.00    -0.095 A  
HETATM   25  C   UNL     1     -10.722   5.135  66.512  1.00  0.00    -0.262 A  
ENDBRANCH  13  14
ENDBRANCH   7  13
TORSDOF 3
ENDMDL
MODEL      192
REMARK 921   NORMALIZED FREE ENERGY PREDICTED BY IDOCK:   -2.36 KCAL/MOL
REMARK 922        TOTAL FREE ENERGY PREDICTED BY IDOCK:   -3.85 KCAL/MOL
REMARK 923 INTER-LIGAND FREE ENERGY PREDICTED BY IDOCK:   -3.18 KCAL/MOL
REMARK 924 INTRA-LIGAND FREE ENERGY PREDICTED BY IDOCK:   -0.67 KCAL/MOL
REMARK 927      BINDING AFFINITY PREDICTED BY RF-SCORE:    0.00 PKD
ROOT
HETATM    1  C   UNL     1      -9.148  13.366  66.692  1.00  0.00    -0.169 C  
HETATM    2  C   UNL     1      -7.768  13.846  67.165  1.00  0.00     0.005 C  
HETATM    3  C   UNL     1      -7.471  13.053  68.429  1.00  0.00    -0.128 C  
HETATM    4  C   UNL     1      -8.684  12.134  68.633  1.00  0.00     0.007 C  
HETATM    5  C   UNL     1      -8.462  10.807  67.905  1.00  0.00    -0.122 C  
HETATM    6  N   UNL     1      -9.861  12.914  67.994  1.00  0.00    -0.218 N  
HETATM    7  C   UNL     1      -8.522  10.872  66.368  1.00  0.00    -0.163 C  
HETATM    8  C   UNL     1     -10.217  14.150  68.857  1.00  0.00    -0.175 C  
HETATM    9  C   UNL     1      -8.980  12.191  65.728  1.00  0.00     0.154 C  
ENDROOT
BRANCH   6  10
HETATM   10  C   UNL     1     -11.167  12.058  67.777  1.00  0.00    -0.271 C  
HETATM   11  C   UNL     1     -12.036  12.620  66.650  1.00  0.00    -0.382 C  
HETATM   12  C   UNL     1     -11.977  11.906  69.069  1.00  0.00    -0.321 C  
ENDBRANCH   6  10
BRANCH   7  13
HETATM   13  O   UNL     1      -7.235  10.513  65.830  1.00  0.00    -0.130 OA 
BRANCH  13  14
HETATM   14  C   UNL     1      -7.262  10.173  64.497  1.00  0.00    -0.119 C  
HETATM   15  C   UNL     1      -8.358   9.161  64.222  1.00  0.00    -0.178 C  
HETATM   16  O   UNL     1      -6.473  10.611  63.668  1.00  0.00    -0.018 OA 
HETATM   17  C   UNL     1      -8.955   9.437  62.836  1.00  0.00    -0.169 C  
HETATM   18  C   UNL     1      -7.833   7.747  64.370  1.00  0.00    -0.138 A  
HETATM   19  C   UNL     1      -8.379   6.889  65.335  1.00  0.00    -0.122 A  
HETATM   20  O   UNL     1      -9.601  10.710  62.837  1.00  0.00    -0.298 OA 
HETATM   21  H   UNL     1      -9.971  10.882  61.978  1.00  0.00     0.000 HD 
HETATM   22  C   UNL     1      -7.879   5.596  65.501  1.00  0.00    -0.100 A  
HETATM   23  C   UNL     1      -6.828   5.146  64.705  1.00  0.00    -0.049 A  
HETATM   24  C   UNL     1      -6.279   5.984  63.739  1.00  0.00    -0.025 A  
HETATM   25  C   UNL     1      -6.778   7.276  63.570  1.00  0.00    -0.053 A  
ENDBRANCH  13  14
ENDBRANCH   7  13
TORSDOF 3
ENDMDL
MODEL      193
REMARK 921   NORMALIZED FREE ENERGY PREDICTED BY IDOCK:   -2.31 KCAL/MOL
REMARK 922        TOTAL FREE ENERGY PREDICTED BY IDOCK:   -3.79 KCAL/MOL
REMARK 923 INTER-LIGAND FREE ENERGY PREDICTED BY IDOCK:   -5.02 KCAL/MOL
REMARK 924 INTRA-LIGAND FREE ENERGY PREDICTED BY IDOCK:    1.22 KCAL/MOL
REMARK 927      BINDING AFFINITY PREDICTED BY RF-SCORE:    0.00 PKD
ROOT
HETATM    1  C   UNL     1     -11.650  16.052  67.287  1.00  0.00     0.304 C  
HETATM    2  C   UNL     1     -11.890  16.066  68.804  1.00  0.00    -0.210 C  
HETATM    3  C   UNL     1     -10.970  14.997  69.373  1.00  0.00    -0.275 C  
HETATM    4  C   UNL     1     -10.222  14.412  68.167  1.00  0.00    -0.232 C  
HETATM    5  C   UNL     1      -8.935  15.201  67.918  1.00  0.00    -0.174 C  
HETATM    6  N   UNL     1     -11.208  14.595  66.985  1.00  0.00    -0.334 N  
HETATM    7  C   UNL     1      -9.123  16.624  67.361  1.00  0.00    -0.201 C  
HETATM    8  C   UNL     1     -12.415  13.635  67.141  1.00  0.00    -0.029 C  
HETATM    9  C   UNL     1     -10.539  17.040  66.933  1.00  0.00    -0.208 C  
ENDROOT
BRANCH   6  10
HETATM   10  C   UNL     1     -10.568  14.373  65.563  1.00  0.00    -0.347 C  
HETATM   11  C   UNL     1     -11.471  14.895  64.443  1.00  0.00    -0.255 C  
HETATM   12  C   UNL     1     -10.192  12.907  65.323  1.00  0.00    -0.294 C  
ENDBRANCH   6  10
BRANCH   7  13
HETATM   13  O   UNL     1      -8.624  17.576  68.319  1.00  0.00    -0.250 OA 
BRANCH  13  14
HETATM   14  C   UNL     1      -8.989  18.876  68.057  1.00  0.00    -0.305 C  
HETATM   15  C   UNL     1      -9.030  19.132  66.563  1.00  0.00    -0.359 C  
HETATM   16  O   UNL     1      -9.209  19.709  68.929  1.00  0.00    -0.344 OA 
HETATM   17  C   UNL     1     -10.170  20.112  66.257  1.00  0.00    -0.422 C  
HETATM   18  C   UNL     1      -7.683  19.618  66.065  1.00  0.00    -0.335 A  
HETATM   19  C   UNL     1      -6.973  18.872  65.113  1.00  0.00     0.136 A  
HETATM   20  O   UNL     1     -11.423  19.504  66.575  1.00  0.00     0.163 OA 
HETATM   21  H   UNL     1     -12.130  20.111  66.385  1.00  0.00     0.000 HD 
HETATM   22  C   UNL     1      -5.717  19.293  64.674  1.00  0.00    -0.302 A  
HETATM   23  C   UNL     1      -5.156  20.464  65.179  1.00  0.00    -0.195 A  
HETATM   24  C   UNL     1      -5.851  21.218  66.120  1.00  0.00    -0.305 A  
HETATM   25  C   UNL     1      -7.108  20.800  66.560  1.00  0.00    -0.243 A  
ENDBRANCH  13  14
ENDBRANCH   7  13
TORSDOF 3
ENDMDL
MODEL      194
REMARK 921   NORMALIZED FREE ENERGY PREDICTED BY IDOCK:   -2.29 KCAL/MOL
REMARK 922        TOTAL FREE ENERGY PREDICTED BY IDOCK:   -3.77 KCAL/MOL
REMARK 923 INTER-LIGAND FREE ENERGY PREDICTED BY IDOCK:   -3.10 KCAL/MOL
REMARK 924 INTRA-LIGAND FREE ENERGY PREDICTED BY IDOCK:   -0.66 KCAL/MOL
REMARK 927      BINDING AFFINITY PREDICTED BY RF-SCORE:    0.00 PKD
ROOT
HETATM    1  C   UNL     1      -7.458   6.565  66.984  1.00  0.00    -0.087 C  
HETATM    2  C   UNL     1      -5.928   6.627  67.102  1.00  0.00    -0.021 C  
HETATM    3  C   UNL     1      -5.648   7.410  68.375  1.00  0.00    -0.023 C  
HETATM    4  C   UNL     1      -7.027   7.762  68.954  1.00  0.00    -0.066 C  
HETATM    5  C   UNL     1      -7.496   6.651  69.897  1.00  0.00    -0.095 C  
HETATM    6  N   UNL     1      -7.949   7.845  67.711  1.00  0.00    -0.122 N  
HETATM    7  C   UNL     1      -7.899   5.329  69.219  1.00  0.00    -0.088 C  
HETATM    8  C   UNL     1      -7.600   9.097  66.868  1.00  0.00    -0.091 C  
HETATM    9  C   UNL     1      -7.977   5.309  67.685  1.00  0.00    -0.100 C  
ENDROOT
BRANCH   6  10
HETATM   10  C   UNL     1      -9.489   7.874  68.044  1.00  0.00    -0.149 C  
HETATM   11  C   UNL     1     -10.346   7.669  66.794  1.00  0.00    -0.343 C  
HETATM   12  C   UNL     1      -9.894   9.155  68.781  1.00  0.00    -0.175 C  
ENDBRANCH   6  10
BRANCH   7  13
HETATM   13  O   UNL     1      -7.009   4.284  69.656  1.00  0.00    -0.044 OA 
BRANCH  13  14
HETATM   14  C   UNL     1      -7.598   3.043  69.729  1.00  0.00    -0.044 C  
HETATM   15  C   UNL     1      -9.107   3.169  69.833  1.00  0.00    -0.196 C  
HETATM   16  O   UNL     1      -6.969   1.992  69.746  1.00  0.00    -0.033 OA 
HETATM   17  C   UNL     1      -9.757   2.007  69.072  1.00  0.00     0.113 C  
HETATM   18  C   UNL     1      -9.541   3.243  71.284  1.00  0.00    -0.229 A  
HETATM   19  C   UNL     1     -10.210   4.379  71.762  1.00  0.00    -0.201 A  
HETATM   20  O   UNL     1      -9.458   2.118  67.679  1.00  0.00    -0.343 OA 
HETATM   21  H   UNL     1      -9.861   1.398  67.208  1.00  0.00     0.000 HD 
HETATM   22  C   UNL     1     -10.584   4.470  73.104  1.00  0.00    -0.284 A  
HETATM   23  C   UNL     1     -10.293   3.429  73.982  1.00  0.00    -0.229 A  
HETATM   24  C   UNL     1      -9.634   2.293  73.522  1.00  0.00    -0.114 A  
HETATM   25  C   UNL     1      -9.261   2.198  72.180  1.00  0.00    -0.139 A  
ENDBRANCH  13  14
ENDBRANCH   7  13
TORSDOF 3
ENDMDL
MODEL      195
REMARK 921   NORMALIZED FREE ENERGY PREDICTED BY IDOCK:   -2.28 KCAL/MOL
REMARK 922        TOTAL FREE ENERGY PREDICTED BY IDOCK:   -3.75 KCAL/MOL
REMARK 923 INTER-LIGAND FREE ENERGY PREDICTED BY IDOCK:   -2.61 KCAL/MOL
REMARK 924 INTRA-LIGAND FREE ENERGY PREDICTED BY IDOCK:   -1.14 KCAL/MOL
REMARK 927      BINDING AFFINITY PREDICTED BY RF-SCORE:    0.00 PKD
ROOT
HETATM    1  C   UNL     1      -8.402   3.267  66.554  1.00  0.00    -0.103 C  
HETATM    2  C   UNL     1      -7.100   2.670  67.108  1.00  0.00    -0.053 C  
HETATM    3  C   UNL     1      -6.006   3.116  66.150  1.00  0.00    -0.023 C  
HETATM    4  C   UNL     1      -6.713   3.967  65.084  1.00  0.00    -0.048 C  
HETATM    5  C   UNL     1      -6.745   5.432  65.523  1.00  0.00    -0.041 C  
HETATM    6  N   UNL     1      -8.148   3.385  65.028  1.00  0.00    -0.089 N  
HETATM    7  C   UNL     1      -7.692   5.757  66.693  1.00  0.00    -0.100 C  
HETATM    8  C   UNL     1      -8.130   1.975  64.386  1.00  0.00    -0.074 C  
HETATM    9  C   UNL     1      -8.638   4.645  67.173  1.00  0.00    -0.104 C  
ENDROOT
BRANCH   6  10
HETATM   10  C   UNL     1      -9.183   4.281  64.246  1.00  0.00    -0.151 C  
HETATM   11  C   UNL     1     -10.600   3.708  64.315  1.00  0.00    -0.208 C  
HETATM   12  C   UNL     1      -8.758   4.517  62.793  1.00  0.00    -0.117 C  
ENDBRANCH   6  10
BRANCH   7  13
HETATM   13  O   UNL     1      -6.916   6.227  67.812  1.00  0.00    -0.070 OA 
BRANCH  13  14
HETATM   14  C   UNL     1      -7.596   7.091  68.639  1.00  0.00    -0.108 C  
HETATM   15  C   UNL     1      -7.229   6.845  70.091  1.00  0.00    -0.076 C  
HETATM   16  O   UNL     1      -8.411   7.914  68.240  1.00  0.00    -0.122 OA 
HETATM   17  C   UNL     1      -7.222   8.186  70.836  1.00  0.00    -0.055 C  
HETATM   18  C   UNL     1      -8.162   5.826  70.715  1.00  0.00    -0.123 A  
HETATM   19  C   UNL     1      -7.655   4.616  71.209  1.00  0.00    -0.080 A  
HETATM   20  O   UNL     1      -6.185   9.019  70.316  1.00  0.00    -0.039 OA 
HETATM   21  H   UNL     1      -6.180   9.849  70.777  1.00  0.00     0.000 HD 
HETATM   22  C   UNL     1      -8.510   3.658  71.755  1.00  0.00    -0.100 A  
HETATM   23  C   UNL     1      -9.881   3.896  71.812  1.00  0.00    -0.249 A  
HETATM   24  C   UNL     1     -10.400   5.095  71.330  1.00  0.00    -0.276 A  
HETATM   25  C   UNL     1      -9.547   6.056  70.785  1.00  0.00    -0.197 A  
ENDBRANCH  13  14
ENDBRANCH   7  13
TORSDOF 3
ENDMDL
MODEL      196
REMARK 921   NORMALIZED FREE ENERGY PREDICTED BY IDOCK:   -2.25 KCAL/MOL
REMARK 922        TOTAL FREE ENERGY PREDICTED BY IDOCK:   -3.72 KCAL/MOL
REMARK 923 INTER-LIGAND FREE ENERGY PREDICTED BY IDOCK:   -3.74 KCAL/MOL
REMARK 924 INTRA-LIGAND FREE ENERGY PREDICTED BY IDOCK:    0.03 KCAL/MOL
REMARK 927      BINDING AFFINITY PREDICTED BY RF-SCORE:    0.00 PKD
ROOT
HETATM    1  C   UNL     1      -9.266  11.455  67.808  1.00  0.00    -0.159 C  
HETATM    2  C   UNL     1     -10.316  12.004  68.784  1.00  0.00    -0.181 C  
HETATM    3  C   UNL     1     -11.638  11.392  68.348  1.00  0.00    -0.385 C  
HETATM    4  C   UNL     1     -11.303  10.500  67.143  1.00  0.00     0.108 C  
HETATM    5  C   UNL     1     -10.957   9.088  67.619  1.00  0.00     0.008 C  
HETATM    6  N   UNL     1     -10.064  11.178  66.505  1.00  0.00    -0.216 N  
HETATM    7  C   UNL     1      -9.610   8.944  68.352  1.00  0.00    -0.146 C  
HETATM    8  C   UNL     1     -10.468  12.518  65.840  1.00  0.00    -0.265 C  
HETATM    9  C   UNL     1      -8.672  10.161  68.366  1.00  0.00    -0.123 C  
ENDROOT
BRANCH   6  10
HETATM   10  C   UNL     1      -9.315  10.292  65.439  1.00  0.00    -0.207 C  
HETATM   11  C   UNL     1      -7.795  10.384  65.588  1.00  0.00    -0.154 C  
HETATM   12  C   UNL     1      -9.746  10.627  64.007  1.00  0.00    -0.373 C  
ENDBRANCH   6  10
BRANCH   7  13
HETATM   13  O   UNL     1      -9.853   8.523  69.707  1.00  0.00    -0.181 OA 
BRANCH  13  14
HETATM   14  C   UNL     1      -9.759   7.164  69.896  1.00  0.00    -0.170 C  
HETATM   15  C   UNL     1      -8.436   6.638  69.373  1.00  0.00    -0.131 C  
HETATM   16  O   UNL     1     -10.652   6.483  70.387  1.00  0.00    -0.212 OA 
HETATM   17  C   UNL     1      -7.962   5.495  70.279  1.00  0.00    -0.101 C  
HETATM   18  C   UNL     1      -8.557   6.229  67.919  1.00  0.00    -0.115 A  
HETATM   19  C   UNL     1      -7.782   6.868  66.940  1.00  0.00    -0.099 A  
HETATM   20  O   UNL     1      -7.683   6.001  71.585  1.00  0.00    -0.098 OA 
HETATM   21  H   UNL     1      -7.389   5.292  72.147  1.00  0.00     0.000 HD 
HETATM   22  C   UNL     1      -7.912   6.522  65.594  1.00  0.00    -0.114 A  
HETATM   23  C   UNL     1      -8.816   5.535  65.210  1.00  0.00    -0.112 A  
HETATM   24  C   UNL     1      -9.589   4.888  66.170  1.00  0.00    -0.183 A  
HETATM   25  C   UNL     1      -9.461   5.231  67.517  1.00  0.00    -0.136 A  
ENDBRANCH  13  14
ENDBRANCH   7  13
TORSDOF 3
ENDMDL
MODEL      197
REMARK 921   NORMALIZED FREE ENERGY PREDICTED BY IDOCK:   -2.19 KCAL/MOL
REMARK 922        TOTAL FREE ENERGY PREDICTED BY IDOCK:   -3.65 KCAL/MOL
REMARK 923 INTER-LIGAND FREE ENERGY PREDICTED BY IDOCK:   -5.83 KCAL/MOL
REMARK 924 INTRA-LIGAND FREE ENERGY PREDICTED BY IDOCK:    2.18 KCAL/MOL
REMARK 927      BINDING AFFINITY PREDICTED BY RF-SCORE:    0.00 PKD
ROOT
HETATM    1  C   UNL     1      -9.250  17.582  68.559  1.00  0.00    -0.278 C  
HETATM    2  C   UNL     1     -10.654  17.231  68.047  1.00  0.00    -0.394 C  
HETATM    3  C   UNL     1     -10.468  16.821  66.594  1.00  0.00    -0.258 C  
HETATM    4  C   UNL     1      -8.961  16.938  66.322  1.00  0.00    -0.270 C  
HETATM    5  C   UNL     1      -8.267  15.614  66.647  1.00  0.00    -0.284 C  
HETATM    6  N   UNL     1      -8.488  18.052  67.291  1.00  0.00    -0.231 N  
HETATM    7  C   UNL     1      -8.170  15.262  68.144  1.00  0.00    -0.141 C  
HETATM    8  C   UNL     1      -9.029  19.428  66.830  1.00  0.00    -0.310 C  
HETATM    9  C   UNL     1      -8.594  16.337  69.157  1.00  0.00    -0.212 C  
ENDROOT
BRANCH   6  10
HETATM   10  C   UNL     1      -6.923  18.153  67.451  1.00  0.00    -0.197 C  
HETATM   11  C   UNL     1      -6.191  17.201  66.503  1.00  0.00    -0.248 C  
HETATM   12  C   UNL     1      -6.478  17.932  68.900  1.00  0.00    -0.228 C  
ENDBRANCH   6  10
BRANCH   7  13
HETATM   13  O   UNL     1      -8.921  14.059  68.396  1.00  0.00    -0.188 OA 
BRANCH  13  14
HETATM   14  C   UNL     1      -8.736  13.077  67.450  1.00  0.00    -0.205 C  
HETATM   15  C   UNL     1     -10.055  12.421  67.091  1.00  0.00    -0.221 C  
HETATM   16  O   UNL     1      -7.639  12.765  67.001  1.00  0.00    -0.090 OA 
HETATM   17  C   UNL     1     -10.041  12.056  65.601  1.00  0.00    -0.243 C  
HETATM   18  C   UNL     1     -10.325  11.230  67.990  1.00  0.00    -0.204 A  
HETATM   19  C   UNL     1     -11.454  11.216  68.820  1.00  0.00    -0.366 A  
HETATM   20  O   UNL     1      -9.980  13.247  64.815  1.00  0.00    -0.560 OA 
HETATM   21  H   UNL     1      -9.971  13.021  63.892  1.00  0.00     0.000 HD 
HETATM   22  C   UNL     1     -11.692  10.139  69.676  1.00  0.00    -0.165 A  
HETATM   23  C   UNL     1     -10.806   9.065  69.711  1.00  0.00    -0.215 A  
HETATM   24  C   UNL     1      -9.683   9.062  68.889  1.00  0.00    -0.166 A  
HETATM   25  C   UNL     1      -9.443  10.137  68.031  1.00  0.00    -0.156 A  
ENDBRANCH  13  14
ENDBRANCH   7  13
TORSDOF 3
ENDMDL
MODEL      198
REMARK 921   NORMALIZED FREE ENERGY PREDICTED BY IDOCK:   -2.18 KCAL/MOL
REMARK 922        TOTAL FREE ENERGY PREDICTED BY IDOCK:   -3.64 KCAL/MOL
REMARK 923 INTER-LIGAND FREE ENERGY PREDICTED BY IDOCK:   -2.59 KCAL/MOL
REMARK 924 INTRA-LIGAND FREE ENERGY PREDICTED BY IDOCK:   -1.05 KCAL/MOL
REMARK 927      BINDING AFFINITY PREDICTED BY RF-SCORE:    0.00 PKD
ROOT
HETATM    1  C   UNL     1      -9.680   6.181  66.311  1.00  0.00    -0.061 C  
HETATM    2  C   UNL     1     -10.812   5.279  66.822  1.00  0.00    -0.124 C  
HETATM    3  C   UNL     1     -10.138   3.994  67.277  1.00  0.00     0.132 C  
HETATM    4  C   UNL     1      -8.638   4.204  67.025  1.00  0.00    -0.105 C  
HETATM    5  C   UNL     1      -7.983   4.830  68.259  1.00  0.00    -0.085 C  
HETATM    6  N   UNL     1      -8.590   5.187  65.827  1.00  0.00    -0.130 N  
HETATM    7  C   UNL     1      -8.345   6.303  68.530  1.00  0.00    -0.115 C  
HETATM    8  C   UNL     1      -9.061   4.478  64.533  1.00  0.00    -0.148 C  
HETATM    9  C   UNL     1      -9.155   7.046  67.457  1.00  0.00    -0.122 C  
ENDROOT
BRANCH   6  10
HETATM   10  C   UNL     1      -7.173   5.826  65.566  1.00  0.00    -0.074 C  
HETATM   11  C   UNL     1      -7.221   6.888  64.465  1.00  0.00    -0.073 C  
HETATM   12  C   UNL     1      -6.112   4.764  65.256  1.00  0.00    -0.030 C  
ENDBRANCH   6  10
BRANCH   7  13
HETATM   13  O   UNL     1      -9.040   6.393  69.788  1.00  0.00    -0.140 OA 
BRANCH  13  14
HETATM   14  C   UNL     1      -8.405   7.180  70.721  1.00  0.00    -0.128 C  
HETATM   15  C   UNL     1      -9.171   8.470  70.949  1.00  0.00    -0.213 C  
HETATM   16  O   UNL     1      -7.344   6.879  71.255  1.00  0.00    -0.079 OA 
HETATM   17  C   UNL     1      -9.047   8.869  72.425  1.00  0.00     0.182 C  
HETATM   18  C   UNL     1      -8.694   9.552  70.001  1.00  0.00    -0.242 A  
HETATM   19  C   UNL     1      -9.582  10.119  69.075  1.00  0.00    -0.202 A  
HETATM   20  O   UNL     1      -9.692   7.891  73.242  1.00  0.00    -0.282 OA 
HETATM   21  H   UNL     1      -9.615   8.139  74.157  1.00  0.00     0.000 HD 
HETATM   22  C   UNL     1      -9.143  11.093  68.175  1.00  0.00    -0.159 A  
HETATM   23  C   UNL     1      -7.814  11.510  68.190  1.00  0.00    -0.128 A  
HETATM   24  C   UNL     1      -6.922  10.959  69.106  1.00  0.00    -0.096 A  
HETATM   25  C   UNL     1      -7.358   9.987  70.008  1.00  0.00    -0.172 A  
ENDBRANCH  13  14
ENDBRANCH   7  13
TORSDOF 3
ENDMDL
MODEL      199
REMARK 921   NORMALIZED FREE ENERGY PREDICTED BY IDOCK:   -2.12 KCAL/MOL
REMARK 922        TOTAL FREE ENERGY PREDICTED BY IDOCK:   -3.56 KCAL/MOL
REMARK 923 INTER-LIGAND FREE ENERGY PREDICTED BY IDOCK:   -3.36 KCAL/MOL
REMARK 924 INTRA-LIGAND FREE ENERGY PREDICTED BY IDOCK:   -0.21 KCAL/MOL
REMARK 927      BINDING AFFINITY PREDICTED BY RF-SCORE:    0.00 PKD
ROOT
HETATM    1  C   UNL     1      -7.431   7.306  68.015  1.00  0.00    -0.102 C  
HETATM    2  C   UNL     1      -7.301   8.350  66.897  1.00  0.00    -0.083 C  
HETATM    3  C   UNL     1      -8.580   8.237  66.081  1.00  0.00    -0.156 C  
HETATM    4  C   UNL     1      -9.409   7.140  66.766  1.00  0.00    -0.161 C  
HETATM    5  C   UNL     1     -10.306   7.758  67.841  1.00  0.00    -0.276 C  
HETATM    6  N   UNL     1      -8.349   6.211  67.410  1.00  0.00    -0.109 N  
HETATM    7  C   UNL     1      -9.580   8.270  69.099  1.00  0.00    -0.160 C  
HETATM    8  C   UNL     1      -7.584   5.430  66.313  1.00  0.00    -0.087 C  
HETATM    9  C   UNL     1      -8.084   7.945  69.241  1.00  0.00    -0.126 C  
ENDROOT
BRANCH   6  10
HETATM   10  C   UNL     1      -8.933   5.180  68.449  1.00  0.00    -0.106 C  
HETATM   11  C   UNL     1      -8.104   3.895  68.504  1.00  0.00    -0.079 C  
HETATM   12  C   UNL     1     -10.409   4.867  68.182  1.00  0.00    -0.035 C  
ENDBRANCH   6  10
BRANCH   7  13
HETATM   13  O   UNL     1      -9.762   9.694  69.203  1.00  0.00    -0.165 OA 
BRANCH  13  14
HETATM   14  C   UNL     1     -10.567  10.080  70.250  1.00  0.00    -0.295 C  
HETATM   15  C   UNL     1     -11.849  10.711  69.739  1.00  0.00    -0.377 C  
HETATM   16  O   UNL     1     -10.255   9.956  71.428  1.00  0.00     0.094 OA 
HETATM   17  C   UNL     1     -12.999  10.338  70.683  1.00  0.00    -0.266 C  
HETATM   18  C   UNL     1     -11.680  12.209  69.574  1.00  0.00    -0.402 A  
HETATM   19  C   UNL     1     -11.823  12.799  68.310  1.00  0.00    -0.357 A  
HETATM   20  O   UNL     1     -13.221   8.928  70.634  1.00  0.00    -0.350 OA 
HETATM   21  H   UNL     1     -13.934   8.696  71.218  1.00  0.00     0.000 HD 
HETATM   22  C   UNL     1     -11.637  14.173  68.143  1.00  0.00    -0.365 A  
HETATM   23  C   UNL     1     -11.307  14.971  69.236  1.00  0.00    -0.311 A  
HETATM   24  C   UNL     1     -11.166  14.401  70.497  1.00  0.00    -0.017 A  
HETATM   25  C   UNL     1     -11.354  13.028  70.668  1.00  0.00     0.936 A  
ENDBRANCH  13  14
ENDBRANCH   7  13
TORSDOF 3
ENDMDL
MODEL      200
REMARK 921   NORMALIZED FREE ENERGY PREDICTED BY IDOCK:   -2.07 KCAL/MOL
REMARK 922        TOTAL FREE ENERGY PREDICTED BY IDOCK:   -3.50 KCAL/MOL
REMARK 923 INTER-LIGAND FREE ENERGY PREDICTED BY IDOCK:   -3.16 KCAL/MOL
REMARK 924 INTRA-LIGAND FREE ENERGY PREDICTED BY IDOCK:   -0.34 KCAL/MOL
REMARK 927      BINDING AFFINITY PREDICTED BY RF-SCORE:    0.00 PKD
ROOT
HETATM    1  C   UNL     1      -7.582  10.367  66.275  1.00  0.00    -0.127 C  
HETATM    2  C   UNL     1      -8.998  10.390  66.867  1.00  0.00    -0.151 C  
HETATM    3  C   UNL     1      -9.724   9.211  66.239  1.00  0.00    -0.344 C  
HETATM    4  C   UNL     1      -8.697   8.540  65.316  1.00  0.00    -0.140 C  
HETATM    5  C   UNL     1      -7.914   7.477  66.090  1.00  0.00    -0.111 C  
HETATM    6  N   UNL     1      -7.761   9.698  64.886  1.00  0.00    -0.114 N  
HETATM    7  C   UNL     1      -6.918   8.013  67.135  1.00  0.00    -0.075 C  
HETATM    8  C   UNL     1      -8.506  10.662  63.929  1.00  0.00    -0.059 C  
HETATM    9  C   UNL     1      -6.666   9.529  67.167  1.00  0.00    -0.072 C  
ENDROOT
BRANCH   6  10
HETATM   10  C   UNL     1      -6.425   9.233  64.192  1.00  0.00    -0.090 C  
HETATM   11  C   UNL     1      -5.266  10.186  64.490  1.00  0.00    -0.104 C  
HETATM   12  C   UNL     1      -6.598   9.036  62.682  1.00  0.00    -0.094 C  
ENDBRANCH   6  10
BRANCH   7  13
HETATM   13  O   UNL     1      -7.329   7.579  68.445  1.00  0.00    -0.093 OA 
BRANCH  13  14
HETATM   14  C   UNL     1      -7.001   6.273  68.728  1.00  0.00    -0.076 C  
HETATM   15  C   UNL     1      -8.205   5.366  68.551  1.00  0.00    -0.094 C  
HETATM   16  O   UNL     1      -5.892   5.917  69.108  1.00  0.00    -0.014 OA 
HETATM   17  C   UNL     1      -7.733   4.012  68.008  1.00  0.00    -0.067 C  
HETATM   18  C   UNL     1      -8.981   5.246  69.848  1.00  0.00    -0.146 A  
HETATM   19  C   UNL     1     -10.314   5.677  69.913  1.00  0.00    -0.347 A  
HETATM   20  O   UNL     1      -7.187   4.183  66.700  1.00  0.00    -0.069 OA 
HETATM   21  H   UNL     1      -6.895   3.344  66.363  1.00  0.00     0.000 HD 
HETATM   22  C   UNL     1     -11.027   5.602  71.111  1.00  0.00    -0.248 A  
HETATM   23  C   UNL     1     -10.417   5.096  72.257  1.00  0.00    -0.277 A  
HETATM   24  C   UNL     1      -9.096   4.659  72.206  1.00  0.00    -0.146 A  
HETATM   25  C   UNL     1      -8.382   4.731  71.009  1.00  0.00    -0.102 A  
ENDBRANCH  13  14
ENDBRANCH   7  13
TORSDOF 3
ENDMDL
MODEL      201
REMARK 921   NORMALIZED FREE ENERGY PREDICTED BY IDOCK:   -1.98 KCAL/MOL
REMARK 922        TOTAL FREE ENERGY PREDICTED BY IDOCK:   -3.40 KCAL/MOL
REMARK 923 INTER-LIGAND FREE ENERGY PREDICTED BY IDOCK:   -3.45 KCAL/MOL
REMARK 924 INTRA-LIGAND FREE ENERGY PREDICTED BY IDOCK:    0.05 KCAL/MOL
REMARK 927      BINDING AFFINITY PREDICTED BY RF-SCORE:    0.00 PKD
ROOT
HETATM    1  C   UNL     1     -11.529   9.968  68.328  1.00  0.00     0.084 C  
HETATM    2  C   UNL     1     -11.085  11.188  67.508  1.00  0.00    -0.353 C  
HETATM    3  C   UNL     1      -9.863  11.740  68.227  1.00  0.00    -0.198 C  
HETATM    4  C   UNL     1      -9.638  10.812  69.430  1.00  0.00    -0.030 C  
HETATM    5  C   UNL     1      -8.718   9.656  69.032  1.00  0.00    -0.142 C  
HETATM    6  N   UNL     1     -11.056  10.286  69.771  1.00  0.00    -0.268 N  
HETATM    7  C   UNL     1      -9.336   8.608  68.088  1.00  0.00    -0.137 C  
HETATM    8  C   UNL     1     -11.920  11.423  70.371  1.00  0.00    -0.374 C  
HETATM    9  C   UNL     1     -10.840   8.712  67.794  1.00  0.00    -0.075 C  
ENDROOT
BRANCH   6  10
HETATM   10  C   UNL     1     -11.073   9.062  70.764  1.00  0.00    -0.272 C  
HETATM   11  C   UNL     1     -12.464   8.831  71.359  1.00  0.00    -0.348 C  
HETATM   12  C   UNL     1     -10.022   9.202  71.870  1.00  0.00    -0.164 C  
ENDBRANCH   6  10
BRANCH   7  13
HETATM   13  O   UNL     1      -8.614   8.612  66.842  1.00  0.00    -0.117 OA 
BRANCH  13  14
HETATM   14  C   UNL     1      -8.402   7.359  66.314  1.00  0.00    -0.132 C  
HETATM   15  C   UNL     1      -9.005   6.291  67.207  1.00  0.00    -0.113 C  
HETATM   16  O   UNL     1      -7.776   7.154  65.281  1.00  0.00    -0.099 OA 
HETATM   17  C   UNL     1      -9.548   5.157  66.330  1.00  0.00    -0.164 C  
HETATM   18  C   UNL     1      -7.994   5.815  68.232  1.00  0.00    -0.104 A  
HETATM   19  C   UNL     1      -8.248   5.979  69.601  1.00  0.00    -0.115 A  
HETATM   20  O   UNL     1     -10.628   5.642  65.532  1.00  0.00    -0.164 OA 
HETATM   21  H   UNL     1     -10.965   4.939  64.988  1.00  0.00     0.000 HD 
HETATM   22  C   UNL     1      -7.308   5.574  70.551  1.00  0.00    -0.075 A  
HETATM   23  C   UNL     1      -6.105   5.003  70.144  1.00  0.00    -0.021 A  
HETATM   24  C   UNL     1      -5.840   4.829  68.788  1.00  0.00    -0.021 A  
HETATM   25  C   UNL     1      -6.779   5.231  67.836  1.00  0.00    -0.055 A  
ENDBRANCH  13  14
ENDBRANCH   7  13
TORSDOF 3
ENDMDL
MODEL      202
REMARK 921   NORMALIZED FREE ENERGY PREDICTED BY IDOCK:   -1.98 KCAL/MOL
REMARK 922        TOTAL FREE ENERGY PREDICTED BY IDOCK:   -3.40 KCAL/MOL
REMARK 923 INTER-LIGAND FREE ENERGY PREDICTED BY IDOCK:   -4.10 KCAL/MOL
REMARK 924 INTRA-LIGAND FREE ENERGY PREDICTED BY IDOCK:    0.70 KCAL/MOL
REMARK 927      BINDING AFFINITY PREDICTED BY RF-SCORE:    0.00 PKD
ROOT
HETATM    1  C   UNL     1      -8.724   9.968  69.200  1.00  0.00    -0.167 C  
HETATM    2  C   UNL     1      -9.792  10.010  70.302  1.00  0.00    -0.144 C  
HETATM    3  C   UNL     1     -11.014   9.320  69.714  1.00  0.00    -0.213 C  
HETATM    4  C   UNL     1     -10.604   8.893  68.297  1.00  0.00    -0.152 C  
HETATM    5  C   UNL     1      -9.992   7.491  68.331  1.00  0.00    -0.185 C  
HETATM    6  N   UNL     1      -9.540   9.940  67.880  1.00  0.00    -0.138 N  
HETATM    7  C   UNL     1      -8.598   7.388  68.978  1.00  0.00    -0.133 C  
HETATM    8  C   UNL     1     -10.208  11.318  67.644  1.00  0.00    -0.181 C  
HETATM    9  C   UNL     1      -7.885   8.699  69.346  1.00  0.00    -0.096 C  
ENDROOT
BRANCH   6  10
HETATM   10  C   UNL     1      -8.716   9.553  66.594  1.00  0.00    -0.134 C  
HETATM   11  C   UNL     1      -7.512  10.476  66.390  1.00  0.00    -0.133 C  
HETATM   12  C   UNL     1      -9.593   9.513  65.338  1.00  0.00    -0.342 C  
ENDBRANCH   6  10
BRANCH   7  13
HETATM   13  O   UNL     1      -8.683   6.556  70.150  1.00  0.00    -0.138 OA 
BRANCH  13  14
HETATM   14  C   UNL     1      -9.896   5.925  70.301  1.00  0.00    -0.185 C  
HETATM   15  C   UNL     1     -10.265   5.812  71.768  1.00  0.00    -0.245 C  
HETATM   16  O   UNL     1     -10.554   5.486  69.365  1.00  0.00    -0.284 OA 
HETATM   17  C   UNL     1     -11.785   5.963  71.912  1.00  0.00    -0.144 C  
HETATM   18  C   UNL     1      -9.741   4.517  72.356  1.00  0.00    -0.210 A  
HETATM   19  C   UNL     1      -8.817   4.545  73.410  1.00  0.00    -0.102 A  
HETATM   20  O   UNL     1     -12.176   7.279  71.519  1.00  0.00    -0.313 OA 
HETATM   21  H   UNL     1     -13.118   7.373  71.608  1.00  0.00     0.000 HD 
HETATM   22  C   UNL     1      -8.302   3.358  73.935  1.00  0.00    -0.074 A  
HETATM   23  C   UNL     1      -8.706   2.131  73.414  1.00  0.00    -0.069 A  
HETATM   24  C   UNL     1      -9.626   2.087  72.371  1.00  0.00    -0.167 A  
HETATM   25  C   UNL     1     -10.144   3.272  71.845  1.00  0.00    -0.153 A  
ENDBRANCH  13  14
ENDBRANCH   7  13
TORSDOF 3
ENDMDL
MODEL      203
REMARK 921   NORMALIZED FREE ENERGY PREDICTED BY IDOCK:   -1.90 KCAL/MOL
REMARK 922        TOTAL FREE ENERGY PREDICTED BY IDOCK:   -3.31 KCAL/MOL
REMARK 923 INTER-LIGAND FREE ENERGY PREDICTED BY IDOCK:   -6.05 KCAL/MOL
REMARK 924 INTRA-LIGAND FREE ENERGY PREDICTED BY IDOCK:    2.74 KCAL/MOL
REMARK 927      BINDING AFFINITY PREDICTED BY RF-SCORE:    0.00 PKD
ROOT
HETATM    1  C   UNL     1      -9.320   9.017  71.122  1.00  0.00    -0.266 C  
HETATM    2  C   UNL     1      -7.945   9.544  70.689  1.00  0.00    -0.152 C  
HETATM    3  C   UNL     1      -7.454   8.577  69.622  1.00  0.00    -0.075 C  
HETATM    4  C   UNL     1      -8.569   7.533  69.468  1.00  0.00    -0.133 C  
HETATM    5  C   UNL     1      -9.571   7.991  68.406  1.00  0.00    -0.157 C  
HETATM    6  N   UNL     1      -9.241   7.488  70.864  1.00  0.00    -0.153 N  
HETATM    7  C   UNL     1     -10.467   9.178  68.803  1.00  0.00    -0.212 C  
HETATM    8  C   UNL     1      -8.291   6.828  71.895  1.00  0.00    -0.109 C  
HETATM    9  C   UNL     1     -10.411   9.656  70.262  1.00  0.00    -0.336 C  
ENDROOT
BRANCH   6  10
HETATM   10  C   UNL     1     -10.624   6.733  70.897  1.00  0.00    -0.220 C  
HETATM   11  C   UNL     1     -10.929   6.045  69.565  1.00  0.00    -0.467 C  
HETATM   12  C   UNL     1     -11.774   7.656  71.313  1.00  0.00    -0.308 C  
ENDBRANCH   6  10
BRANCH   7  13
HETATM   13  O   UNL     1     -10.188  10.292  67.934  1.00  0.00    -0.167 OA 
BRANCH  13  14
HETATM   14  C   UNL     1      -9.966   9.935  66.624  1.00  0.00    -0.217 C  
HETATM   15  C   UNL     1      -9.213  11.029  65.890  1.00  0.00    -0.220 C  
HETATM   16  O   UNL     1     -10.364   8.888  66.127  1.00  0.00    -0.187 OA 
HETATM   17  C   UNL     1      -8.259  10.383  64.877  1.00  0.00    -0.145 C  
HETATM   18  C   UNL     1     -10.177  12.010  65.253  1.00  0.00    -0.304 A  
HETATM   19  C   UNL     1     -10.166  13.358  65.636  1.00  0.00    -0.300 A  
HETATM   20  O   UNL     1      -7.262   9.630  65.568  1.00  0.00    -0.091 OA 
HETATM   21  H   UNL     1      -6.671   9.230  64.941  1.00  0.00     0.000 HD 
HETATM   22  C   UNL     1     -11.073  14.262  65.080  1.00  0.00    -0.377 A  
HETATM   23  C   UNL     1     -12.000  13.830  64.135  1.00  0.00    -0.473 A  
HETATM   24  C   UNL     1     -12.020  12.495  63.740  1.00  0.00    -0.598 A  
HETATM   25  C   UNL     1     -11.114  11.589  64.293  1.00  0.00    -0.385 A  
ENDBRANCH  13  14
ENDBRANCH   7  13
TORSDOF 3
ENDMDL
MODEL      204
REMARK 921   NORMALIZED FREE ENERGY PREDICTED BY IDOCK:   -1.90 KCAL/MOL
REMARK 922        TOTAL FREE ENERGY PREDICTED BY IDOCK:   -3.31 KCAL/MOL
REMARK 923 INTER-LIGAND FREE ENERGY PREDICTED BY IDOCK:   -2.46 KCAL/MOL
REMARK 924 INTRA-LIGAND FREE ENERGY PREDICTED BY IDOCK:   -0.85 KCAL/MOL
REMARK 927      BINDING AFFINITY PREDICTED BY RF-SCORE:    0.00 PKD
ROOT
HETATM    1  C   UNL     1      -7.952   8.867  66.294  1.00  0.00    -0.103 C  
HETATM    2  C   UNL     1      -6.458   8.702  65.980  1.00  0.00    -0.057 C  
HETATM    3  C   UNL     1      -5.723   9.418  67.103  1.00  0.00    -0.044 C  
HETATM    4  C   UNL     1      -6.818   9.960  68.032  1.00  0.00    -0.072 C  
HETATM    5  C   UNL     1      -7.161   8.918  69.099  1.00  0.00    -0.067 C  
HETATM    6  N   UNL     1      -8.029  10.195  67.093  1.00  0.00    -0.109 N  
HETATM    7  C   UNL     1      -7.925   7.678  68.597  1.00  0.00    -0.122 C  
HETATM    8  C   UNL     1      -7.752  11.393  66.151  1.00  0.00     0.073 C  
HETATM    9  C   UNL     1      -8.430   7.691  67.146  1.00  0.00    -0.121 C  
ENDROOT
BRANCH   6  10
HETATM   10  C   UNL     1      -9.393  10.446  67.841  1.00  0.00    -0.138 C  
HETATM   11  C   UNL     1     -10.595  10.050  66.981  1.00  0.00    -0.279 C  
HETATM   12  C   UNL     1      -9.523  11.892  68.331  1.00  0.00    -0.189 C  
ENDBRANCH   6  10
BRANCH   7  13
HETATM   13  O   UNL     1      -7.110   6.508  68.799  1.00  0.00    -0.077 OA 
BRANCH  13  14
HETATM   14  C   UNL     1      -7.824   5.379  69.125  1.00  0.00    -0.090 C  
HETATM   15  C   UNL     1      -8.964   5.717  70.068  1.00  0.00    -0.147 C  
HETATM   16  O   UNL     1      -7.539   4.255  68.728  1.00  0.00    -0.059 OA 
HETATM   17  C   UNL     1     -10.162   4.815  69.745  1.00  0.00    -0.148 C  
HETATM   18  C   UNL     1      -8.515   5.611  71.512  1.00  0.00    -0.128 A  
HETATM   19  C   UNL     1      -8.546   6.740  72.344  1.00  0.00    -0.126 A  
HETATM   20  O   UNL     1     -10.648   5.112  68.435  1.00  0.00    -0.076 OA 
HETATM   21  H   UNL     1     -11.390   4.553  68.236  1.00  0.00     0.000 HD 
HETATM   22  C   UNL     1      -8.103   6.661  73.665  1.00  0.00    -0.110 A  
HETATM   23  C   UNL     1      -7.624   5.454  74.170  1.00  0.00    -0.093 A  
HETATM   24  C   UNL     1      -7.592   4.324  73.358  1.00  0.00    -0.078 A  
HETATM   25  C   UNL     1      -8.036   4.400  72.037  1.00  0.00    -0.098 A  
ENDBRANCH  13  14
ENDBRANCH   7  13
TORSDOF 3
ENDMDL
MODEL      205
REMARK 921   NORMALIZED FREE ENERGY PREDICTED BY IDOCK:   -1.79 KCAL/MOL
REMARK 922        TOTAL FREE ENERGY PREDICTED BY IDOCK:   -3.19 KCAL/MOL
REMARK 923 INTER-LIGAND FREE ENERGY PREDICTED BY IDOCK:   -4.30 KCAL/MOL
REMARK 924 INTRA-LIGAND FREE ENERGY PREDICTED BY IDOCK:    1.11 KCAL/MOL
REMARK 927      BINDING AFFINITY PREDICTED BY RF-SCORE:    0.00 PKD
ROOT
HETATM    1  C   UNL     1     -10.510   6.010  71.226  1.00  0.00    -0.230 C  
HETATM    2  C   UNL     1     -11.728   6.672  71.885  1.00  0.00    -0.355 C  
HETATM    3  C   UNL     1     -11.216   7.266  73.188  1.00  0.00    -0.263 C  
HETATM    4  C   UNL     1      -9.716   6.938  73.228  1.00  0.00    -0.185 C  
HETATM    5  C   UNL     1      -8.918   8.057  72.556  1.00  0.00    -0.256 C  
HETATM    6  N   UNL     1      -9.595   5.622  72.418  1.00  0.00    -0.150 N  
HETATM    7  C   UNL     1      -9.058   8.148  71.025  1.00  0.00    -0.152 C  
HETATM    8  C   UNL     1     -10.226   4.448  73.206  1.00  0.00    -0.162 C  
HETATM    9  C   UNL     1      -9.812   7.016  70.310  1.00  0.00    -0.180 C  
ENDROOT
BRANCH   6  10
HETATM   10  C   UNL     1      -8.119   5.232  72.028  1.00  0.00    -0.114 C  
HETATM   11  C   UNL     1      -8.075   3.998  71.125  1.00  0.00    -0.068 C  
HETATM   12  C   UNL     1      -7.229   5.040  73.261  1.00  0.00    -0.086 C  
ENDBRANCH   6  10
BRANCH   7  13
HETATM   13  O   UNL     1      -9.667   9.407  70.681  1.00  0.00    -0.248 OA 
BRANCH  13  14
HETATM   14  C   UNL     1     -10.758   9.291  69.850  1.00  0.00    -0.234 C  
HETATM   15  C   UNL     1     -10.333   9.334  68.395  1.00  0.00    -0.244 C  
HETATM   16  O   UNL     1     -11.912   9.204  70.253  1.00  0.00    -0.050 OA 
HETATM   17  C   UNL     1     -11.238   8.399  67.583  1.00  0.00     0.702 C  
HETATM   18  C   UNL     1     -10.337  10.759  67.877  1.00  0.00    -0.216 A  
HETATM   19  C   UNL     1      -9.149  11.345  67.415  1.00  0.00    -0.160 A  
HETATM   20  O   UNL     1     -11.032   7.049  68.002  1.00  0.00    -0.427 OA 
HETATM   21  H   UNL     1     -11.593   6.470  67.499  1.00  0.00     0.000 HD 
HETATM   22  C   UNL     1      -9.137  12.667  66.968  1.00  0.00    -0.215 A  
HETATM   23  C   UNL     1     -10.310  13.419  66.976  1.00  0.00    -0.247 A  
HETATM   24  C   UNL     1     -11.498  12.850  67.426  1.00  0.00    -0.388 A  
HETATM   25  C   UNL     1     -11.514  11.527  67.872  1.00  0.00    -0.372 A  
ENDBRANCH  13  14
ENDBRANCH   7  13
TORSDOF 3
ENDMDL
MODEL      206
REMARK 921   NORMALIZED FREE ENERGY PREDICTED BY IDOCK:   -1.78 KCAL/MOL
REMARK 922        TOTAL FREE ENERGY PREDICTED BY IDOCK:   -3.17 KCAL/MOL
REMARK 923 INTER-LIGAND FREE ENERGY PREDICTED BY IDOCK:   -4.04 KCAL/MOL
REMARK 924 INTRA-LIGAND FREE ENERGY PREDICTED BY IDOCK:    0.87 KCAL/MOL
REMARK 927      BINDING AFFINITY PREDICTED BY RF-SCORE:    0.00 PKD
ROOT
HETATM    1  C   UNL     1     -13.644  14.263  70.216  1.00  0.00     0.794 C  
HETATM    2  C   UNL     1     -13.901  15.614  70.898  1.00  0.00     0.121 C  
HETATM    3  C   UNL     1     -12.736  15.817  71.854  1.00  0.00    -0.516 C  
HETATM    4  C   UNL     1     -11.840  14.582  71.681  1.00  0.00    -0.169 C  
HETATM    5  C   UNL     1     -10.809  14.834  70.580  1.00  0.00     0.016 C  
HETATM    6  N   UNL     1     -12.823  13.459  71.259  1.00  0.00    -0.345 N  
HETATM    7  C   UNL     1     -11.365  14.877  69.144  1.00  0.00    -0.292 C  
HETATM    8  C   UNL     1     -13.729  13.064  72.452  1.00  0.00    -0.494 C  
HETATM    9  C   UNL     1     -12.834  14.478  68.937  1.00  0.00     0.895 C  
ENDROOT
BRANCH   6  10
HETATM   10  C   UNL     1     -12.125  12.160  70.703  1.00  0.00    -0.250 C  
HETATM   11  C   UNL     1     -12.327  12.007  69.194  1.00  0.00     0.069 C  
HETATM   12  C   UNL     1     -12.580  10.900  71.447  1.00  0.00    -0.508 C  
ENDBRANCH   6  10
BRANCH   7  13
HETATM   13  O   UNL     1     -11.154  16.191  68.595  1.00  0.00    -0.318 OA 
BRANCH  13  14
HETATM   14  C   UNL     1     -10.281  16.219  67.532  1.00  0.00    -0.270 C  
HETATM   15  C   UNL     1     -11.028  16.079  66.219  1.00  0.00    -0.071 C  
HETATM   16  O   UNL     1      -9.065  16.306  67.654  1.00  0.00    -0.193 OA 
HETATM   17  C   UNL     1     -10.324  16.930  65.153  1.00  0.00     0.136 C  
HETATM   18  C   UNL     1     -11.152  14.621  65.825  1.00  0.00    -0.331 A  
HETATM   19  C   UNL     1     -12.418  14.033  65.692  1.00  0.00    -0.531 A  
HETATM   20  O   UNL     1     -10.420  18.311  65.502  1.00  0.00    -0.616 OA 
HETATM   21  H   UNL     1      -9.984  18.839  64.842  1.00  0.00     0.000 HD 
HETATM   22  C   UNL     1     -12.542  12.681  65.362  1.00  0.00    -0.288 A  
HETATM   23  C   UNL     1     -11.404  11.904  65.161  1.00  0.00    -0.328 A  
HETATM   24  C   UNL     1     -10.140  12.475  65.285  1.00  0.00    -0.275 A  
HETATM   25  C   UNL     1     -10.013  13.826  65.612  1.00  0.00    -0.275 A  
ENDBRANCH  13  14
ENDBRANCH   7  13
TORSDOF 3
ENDMDL
MODEL      207
REMARK 921   NORMALIZED FREE ENERGY PREDICTED BY IDOCK:   -1.77 KCAL/MOL
REMARK 922        TOTAL FREE ENERGY PREDICTED BY IDOCK:   -3.15 KCAL/MOL
REMARK 923 INTER-LIGAND FREE ENERGY PREDICTED BY IDOCK:   -5.52 KCAL/MOL
REMARK 924 INTRA-LIGAND FREE ENERGY PREDICTED BY IDOCK:    2.36 KCAL/MOL
REMARK 927      BINDING AFFINITY PREDICTED BY RF-SCORE:    0.00 PKD
ROOT
HETATM    1  C   UNL     1     -11.077  13.703  65.305  1.00  0.00    -0.301 C  
HETATM    2  C   UNL     1     -12.184  13.892  66.352  1.00  0.00    -0.487 C  
HETATM    3  C   UNL     1     -12.085  12.687  67.275  1.00  0.00    -0.184 C  
HETATM    4  C   UNL     1     -10.914  11.851  66.737  1.00  0.00    -0.292 C  
HETATM    5  C   UNL     1      -9.607  12.299  67.394  1.00  0.00    -0.179 C  
HETATM    6  N   UNL     1     -10.893  12.164  65.219  1.00  0.00    -0.284 N  
HETATM    7  C   UNL     1      -9.080  13.678  66.958  1.00  0.00    -0.248 C  
HETATM    8  C   UNL     1     -12.121  11.525  64.523  1.00  0.00     0.213 C  
HETATM    9  C   UNL     1      -9.793  14.376  65.789  1.00  0.00    -0.330 C  
ENDROOT
BRANCH   6  10
HETATM   10  C   UNL     1      -9.588  11.688  64.474  1.00  0.00    -0.114 C  
HETATM   11  C   UNL     1      -9.717  11.822  62.956  1.00  0.00    -0.238 C  
HETATM   12  C   UNL     1      -9.190  10.261  64.866  1.00  0.00    -0.273 C  
ENDBRANCH   6  10
BRANCH   7  13
HETATM   13  O   UNL     1      -9.071  14.561  68.096  1.00  0.00    -0.178 OA 
BRANCH  13  14
HETATM   14  C   UNL     1      -9.902  15.650  67.964  1.00  0.00    -0.209 C  
HETATM   15  C   UNL     1      -9.985  16.424  69.267  1.00  0.00    -0.259 C  
HETATM   16  O   UNL     1     -10.513  15.918  66.937  1.00  0.00    -0.301 OA 
HETATM   17  C   UNL     1     -10.104  17.920  68.950  1.00  0.00    -0.348 C  
HETATM   18  C   UNL     1     -11.122  15.908  70.127  1.00  0.00    -0.369 A  
HETATM   19  C   UNL     1     -10.857  15.362  71.391  1.00  0.00    -0.044 A  
HETATM   20  O   UNL     1      -8.910  18.373  68.311  1.00  0.00    -0.290 OA 
HETATM   21  H   UNL     1      -8.984  19.300  68.115  1.00  0.00     0.000 HD 
HETATM   22  C   UNL     1     -11.894  14.854  72.176  1.00  0.00    -0.394 A  
HETATM   23  C   UNL     1     -13.205  14.885  71.707  1.00  0.00    -0.438 A  
HETATM   24  C   UNL     1     -13.484  15.429  70.456  1.00  0.00    -0.079 A  
HETATM   25  C   UNL     1     -12.450  15.940  69.670  1.00  0.00     0.108 A  
ENDBRANCH  13  14
ENDBRANCH   7  13
TORSDOF 3
ENDMDL
MODEL      208
REMARK 921   NORMALIZED FREE ENERGY PREDICTED BY IDOCK:   -1.75 KCAL/MOL
REMARK 922        TOTAL FREE ENERGY PREDICTED BY IDOCK:   -3.13 KCAL/MOL
REMARK 923 INTER-LIGAND FREE ENERGY PREDICTED BY IDOCK:   -2.97 KCAL/MOL
REMARK 924 INTRA-LIGAND FREE ENERGY PREDICTED BY IDOCK:   -0.16 KCAL/MOL
REMARK 927      BINDING AFFINITY PREDICTED BY RF-SCORE:    0.00 PKD
ROOT
HETATM    1  C   UNL     1      -9.198  17.715  65.475  1.00  0.00     0.857 C  
HETATM    2  C   UNL     1      -7.928  16.862  65.605  1.00  0.00     0.765 C  
HETATM    3  C   UNL     1      -7.606  16.833  67.091  1.00  0.00    -0.221 C  
HETATM    4  C   UNL     1      -8.709  17.658  67.769  1.00  0.00    -0.232 C  
HETATM    5  C   UNL     1      -9.886  16.753  68.139  1.00  0.00    -0.264 C  
HETATM    6  N   UNL     1      -9.133  18.684  66.686  1.00  0.00    -0.299 N  
HETATM    7  C   UNL     1     -10.726  16.235  66.957  1.00  0.00    -0.233 C  
HETATM    8  C   UNL     1      -8.008  19.726  66.466  1.00  0.00    -0.319 C  
HETATM    9  C   UNL     1     -10.432  16.816  65.565  1.00  0.00    -0.254 C  
ENDROOT
BRANCH   6  10
HETATM   10  C   UNL     1     -10.474  19.448  67.002  1.00  0.00    -0.463 C  
HETATM   11  C   UNL     1     -11.033  20.154  65.765  1.00  0.00    -0.007 C  
HETATM   12  C   UNL     1     -10.316  20.430  68.168  1.00  0.00    -0.255 C  
ENDBRANCH   6  10
BRANCH   7  13
HETATM   13  O   UNL     1     -10.622  14.800  66.898  1.00  0.00    -0.284 OA 
BRANCH  13  14
HETATM   14  C   UNL     1     -10.342  14.210  68.109  1.00  0.00    -0.239 C  
HETATM   15  C   UNL     1      -9.112  13.327  68.006  1.00  0.00    -0.202 C  
HETATM   16  O   UNL     1     -11.029  14.359  69.112  1.00  0.00    -0.253 OA 
HETATM   17  C   UNL     1      -8.333  13.404  69.325  1.00  0.00     0.699 C  
HETATM   18  C   UNL     1      -9.498  11.911  67.627  1.00  0.00    -0.182 A  
HETATM   19  C   UNL     1      -9.025  11.347  66.433  1.00  0.00    -0.196 A  
HETATM   20  O   UNL     1      -7.838  14.730  69.513  1.00  0.00    -0.335 OA 
HETATM   21  H   UNL     1      -7.355  14.777  70.331  1.00  0.00     0.000 HD 
HETATM   22  C   UNL     1      -9.402  10.056  66.060  1.00  0.00    -0.224 A  
HETATM   23  C   UNL     1     -10.255   9.314  66.874  1.00  0.00    -0.327 A  
HETATM   24  C   UNL     1     -10.728   9.858  68.064  1.00  0.00    -0.296 A  
HETATM   25  C   UNL     1     -10.352  11.148  68.441  1.00  0.00    -0.201 A  
ENDBRANCH  13  14
ENDBRANCH   7  13
TORSDOF 3
ENDMDL
MODEL      209
REMARK 921   NORMALIZED FREE ENERGY PREDICTED BY IDOCK:   -1.70 KCAL/MOL
REMARK 922        TOTAL FREE ENERGY PREDICTED BY IDOCK:   -3.08 KCAL/MOL
REMARK 923 INTER-LIGAND FREE ENERGY PREDICTED BY IDOCK:   -3.72 KCAL/MOL
REMARK 924 INTRA-LIGAND FREE ENERGY PREDICTED BY IDOCK:    0.64 KCAL/MOL
REMARK 927      BINDING AFFINITY PREDICTED BY RF-SCORE:    0.00 PKD
ROOT
HETATM    1  C   UNL     1      -7.009  11.037  68.635  1.00  0.00    -0.075 C  
HETATM    2  C   UNL     1      -6.403  12.303  69.258  1.00  0.00    -0.103 C  
HETATM    3  C   UNL     1      -6.545  13.387  68.200  1.00  0.00    -0.118 C  
HETATM    4  C   UNL     1      -7.240  12.712  67.008  1.00  0.00     0.074 C  
HETATM    5  C   UNL     1      -8.758  12.835  67.150  1.00  0.00    -0.202 C  
HETATM    6  N   UNL     1      -6.804  11.228  67.109  1.00  0.00    -0.104 N  
HETATM    7  C   UNL     1      -9.395  11.979  68.260  1.00  0.00    -0.197 C  
HETATM    8  C   UNL     1      -5.302  11.085  66.758  1.00  0.00    -0.081 C  
HETATM    9  C   UNL     1      -8.497  10.958  68.977  1.00  0.00    -0.110 C  
ENDROOT
BRANCH   6  10
HETATM   10  C   UNL     1      -7.630  10.244  66.196  1.00  0.00    -0.124 C  
HETATM   11  C   UNL     1      -7.460   8.786  66.630  1.00  0.00    -0.085 C  
HETATM   12  C   UNL     1      -7.293  10.416  64.711  1.00  0.00    -0.038 C  
ENDBRANCH   6  10
BRANCH   7  13
HETATM   13  O   UNL     1      -9.993  12.847  69.242  1.00  0.00     0.300 OA 
BRANCH  13  14
HETATM   14  C   UNL     1      -9.954  14.181  68.905  1.00  0.00    -0.127 C  
HETATM   15  C   UNL     1     -11.348  14.704  68.616  1.00  0.00    -0.305 C  
HETATM   16  O   UNL     1      -8.918  14.829  68.819  1.00  0.00    -0.177 OA 
HETATM   17  C   UNL     1     -11.446  16.156  69.101  1.00  0.00    -0.311 C  
HETATM   18  C   UNL     1     -11.687  14.546  67.147  1.00  0.00    -0.420 A  
HETATM   19  C   UNL     1     -12.768  13.743  66.756  1.00  0.00     0.114 A  
HETATM   20  O   UNL     1     -11.308  16.198  70.521  1.00  0.00    -0.371 OA 
HETATM   21  H   UNL     1     -11.368  17.098  70.822  1.00  0.00     0.000 HD 
HETATM   22  C   UNL     1     -13.067  13.565  65.404  1.00  0.00    -0.121 A  
HETATM   23  C   UNL     1     -12.290  14.185  64.428  1.00  0.00    -0.410 A  
HETATM   24  C   UNL     1     -11.216  14.988  64.801  1.00  0.00    -0.393 A  
HETATM   25  C   UNL     1     -10.916  15.170  66.152  1.00  0.00    -0.331 A  
ENDBRANCH  13  14
ENDBRANCH   7  13
TORSDOF 3
ENDMDL
MODEL      210
REMARK 921   NORMALIZED FREE ENERGY PREDICTED BY IDOCK:   -1.65 KCAL/MOL
REMARK 922        TOTAL FREE ENERGY PREDICTED BY IDOCK:   -3.02 KCAL/MOL
REMARK 923 INTER-LIGAND FREE ENERGY PREDICTED BY IDOCK:   -5.14 KCAL/MOL
REMARK 924 INTRA-LIGAND FREE ENERGY PREDICTED BY IDOCK:    2.12 KCAL/MOL
REMARK 927      BINDING AFFINITY PREDICTED BY RF-SCORE:    0.00 PKD
ROOT
HETATM    1  C   UNL     1      -9.092   5.948  67.376  1.00  0.00    -0.110 C  
HETATM    2  C   UNL     1     -10.096   4.891  66.895  1.00  0.00    -0.257 C  
HETATM    3  C   UNL     1     -10.029   3.768  67.919  1.00  0.00     0.133 C  
HETATM    4  C   UNL     1      -8.999   4.223  68.962  1.00  0.00    -0.108 C  
HETATM    5  C   UNL     1      -9.693   5.016  70.071  1.00  0.00    -0.278 C  
HETATM    6  N   UNL     1      -8.031   5.135  68.166  1.00  0.00    -0.087 N  
HETATM    7  C   UNL     1     -10.199   6.414  69.673  1.00  0.00    -0.189 C  
HETATM    8  C   UNL     1      -7.180   4.289  67.187  1.00  0.00    -0.068 C  
HETATM    9  C   UNL     1      -9.799   6.950  68.290  1.00  0.00    -0.141 C  
ENDROOT
BRANCH   6  10
HETATM   10  C   UNL     1      -7.062   5.996  69.063  1.00  0.00    -0.073 C  
HETATM   11  C   UNL     1      -7.096   5.552  70.526  1.00  0.00    -0.062 C  
HETATM   12  C   UNL     1      -7.345   7.497  68.939  1.00  0.00    -0.094 C  
ENDBRANCH   6  10
BRANCH   7  13
HETATM   13  O   UNL     1     -11.634   6.448  69.791  1.00  0.00    -0.431 OA 
BRANCH  13  14
HETATM   14  C   UNL     1     -12.084   6.927  71.001  1.00  0.00    -0.380 C  
HETATM   15  C   UNL     1     -11.571   8.333  71.246  1.00  0.00    -0.318 C  
HETATM   16  O   UNL     1     -12.773   6.274  71.776  1.00  0.00    -0.149 OA 
HETATM   17  C   UNL     1     -12.646   9.131  71.995  1.00  0.00    -0.390 C  
HETATM   18  C   UNL     1     -10.243   8.300  71.977  1.00  0.00    -0.339 A  
HETATM   19  C   UNL     1      -9.096   8.841  71.378  1.00  0.00    -0.313 A  
HETATM   20  O   UNL     1     -13.797   9.284  71.162  1.00  0.00    -0.530 OA 
HETATM   21  H   UNL     1     -14.463   9.778  71.626  1.00  0.00     0.000 HD 
HETATM   22  C   UNL     1      -7.862   8.785  72.028  1.00  0.00    -0.040 A  
HETATM   23  C   UNL     1      -7.760   8.189  73.283  1.00  0.00    -0.211 A  
HETATM   24  C   UNL     1      -8.890   7.651  73.892  1.00  0.00    -0.311 A  
HETATM   25  C   UNL     1     -10.126   7.708  73.245  1.00  0.00    -0.393 A  
ENDBRANCH  13  14
ENDBRANCH   7  13
TORSDOF 3
ENDMDL
MODEL      211
REMARK 921   NORMALIZED FREE ENERGY PREDICTED BY IDOCK:   -1.63 KCAL/MOL
REMARK 922        TOTAL FREE ENERGY PREDICTED BY IDOCK:   -2.99 KCAL/MOL
REMARK 923 INTER-LIGAND FREE ENERGY PREDICTED BY IDOCK:   -2.13 KCAL/MOL
REMARK 924 INTRA-LIGAND FREE ENERGY PREDICTED BY IDOCK:   -0.86 KCAL/MOL
REMARK 927      BINDING AFFINITY PREDICTED BY RF-SCORE:    0.00 PKD
ROOT
HETATM    1  C   UNL     1      -9.895   7.388  72.950  1.00  0.00    -0.204 C  
HETATM    2  C   UNL     1      -8.740   6.422  73.248  1.00  0.00    -0.128 C  
HETATM    3  C   UNL     1      -9.010   5.189  72.400  1.00  0.00    -0.138 C  
HETATM    4  C   UNL     1     -10.305   5.491  71.632  1.00  0.00    -0.219 C  
HETATM    5  C   UNL     1      -9.977   6.173  70.302  1.00  0.00    -0.226 C  
HETATM    6  N   UNL     1     -11.078   6.460  72.563  1.00  0.00    -0.252 N  
HETATM    7  C   UNL     1      -9.466   7.622  70.405  1.00  0.00    -0.164 C  
HETATM    8  C   UNL     1     -11.588   5.707  73.817  1.00  0.00     1.053 C  
HETATM    9  C   UNL     1      -9.515   8.299  71.783  1.00  0.00    -0.274 C  
ENDROOT
BRANCH   6  10
HETATM   10  C   UNL     1     -12.298   7.185  71.879  1.00  0.00    -0.317 C  
HETATM   11  C   UNL     1     -12.774   8.391  72.692  1.00  0.00    -0.197 C  
HETATM   12  C   UNL     1     -13.457   6.222  71.600  1.00  0.00     0.575 C  
ENDBRANCH   6  10
BRANCH   7  13
HETATM   13  O   UNL     1      -8.118   7.684  69.901  1.00  0.00    -0.119 OA 
BRANCH  13  14
HETATM   14  C   UNL     1      -8.038   7.915  68.547  1.00  0.00    -0.123 C  
HETATM   15  C   UNL     1      -7.813   9.388  68.265  1.00  0.00    -0.090 C  
HETATM   16  O   UNL     1      -8.172   7.040  67.699  1.00  0.00    -0.115 OA 
HETATM   17  C   UNL     1      -6.907   9.527  67.035  1.00  0.00    -0.084 C  
HETATM   18  C   UNL     1      -9.135  10.114  68.112  1.00  0.00    -0.128 A  
HETATM   19  C   UNL     1      -9.476  11.150  68.993  1.00  0.00    -0.074 A  
HETATM   20  O   UNL     1      -5.616   8.992  67.327  1.00  0.00    -0.041 OA 
HETATM   21  H   UNL     1      -5.054   9.078  66.565  1.00  0.00     0.000 HD 
HETATM   22  C   UNL     1     -10.706  11.801  68.880  1.00  0.00    -0.241 A  
HETATM   23  C   UNL     1     -11.608  11.425  67.887  1.00  0.00    -0.337 A  
HETATM   24  C   UNL     1     -11.281  10.402  67.002  1.00  0.00    -0.015 A  
HETATM   25  C   UNL     1     -10.052   9.750  67.111  1.00  0.00    -0.267 A  
ENDBRANCH  13  14
ENDBRANCH   7  13
TORSDOF 3
ENDMDL
MODEL      212
REMARK 921   NORMALIZED FREE ENERGY PREDICTED BY IDOCK:   -1.58 KCAL/MOL
REMARK 922        TOTAL FREE ENERGY PREDICTED BY IDOCK:   -2.94 KCAL/MOL
REMARK 923 INTER-LIGAND FREE ENERGY PREDICTED BY IDOCK:   -2.44 KCAL/MOL
REMARK 924 INTRA-LIGAND FREE ENERGY PREDICTED BY IDOCK:   -0.49 KCAL/MOL
REMARK 927      BINDING AFFINITY PREDICTED BY RF-SCORE:    0.00 PKD
ROOT
HETATM    1  C   UNL     1      -8.152  10.142  69.241  1.00  0.00    -0.149 C  
HETATM    2  C   UNL     1      -9.042   9.477  70.301  1.00  0.00    -0.296 C  
HETATM    3  C   UNL     1      -9.954   8.533  69.534  1.00  0.00    -0.193 C  
HETATM    4  C   UNL     1      -9.550   8.675  68.060  1.00  0.00    -0.149 C  
HETATM    5  C   UNL     1      -8.446   7.673  67.721  1.00  0.00    -0.122 C  
HETATM    6  N   UNL     1      -9.018  10.127  67.953  1.00  0.00    -0.128 N  
HETATM    7  C   UNL     1      -7.064   7.971  68.333  1.00  0.00    -0.084 C  
HETATM    8  C   UNL     1     -10.184  11.138  68.090  1.00  0.00    -0.181 C  
HETATM    9  C   UNL     1      -6.879   9.318  69.049  1.00  0.00    -0.055 C  
ENDROOT
BRANCH   6  10
HETATM   10  C   UNL     1      -8.236  10.437  66.620  1.00  0.00    -0.128 C  
HETATM   11  C   UNL     1      -7.438  11.739  66.717  1.00  0.00    -0.057 C  
HETATM   12  C   UNL     1      -9.163  10.453  65.400  1.00  0.00    -0.233 C  
ENDBRANCH   6  10
BRANCH   7  13
HETATM   13  O   UNL     1      -6.708   6.908  69.237  1.00  0.00    -0.046 OA 
BRANCH  13  14
HETATM   14  C   UNL     1      -6.421   5.716  68.611  1.00  0.00    -0.043 C  
HETATM   15  C   UNL     1      -7.602   4.768  68.692  1.00  0.00    -0.069 C  
HETATM   16  O   UNL     1      -5.338   5.462  68.098  1.00  0.00    -0.007 OA 
HETATM   17  C   UNL     1      -7.670   3.945  67.400  1.00  0.00    -0.079 C  
HETATM   18  C   UNL     1      -7.515   3.908  69.938  1.00  0.00    -0.048 A  
HETATM   19  C   UNL     1      -8.521   3.977  70.913  1.00  0.00    -0.096 A  
HETATM   20  O   UNL     1      -7.947   4.807  66.295  1.00  0.00    -0.102 OA 
HETATM   21  H   UNL     1      -7.989   4.297  65.494  1.00  0.00     0.000 HD 
HETATM   22  C   UNL     1      -8.433   3.214  72.079  1.00  0.00    -0.086 A  
HETATM   23  C   UNL     1      -7.340   2.375  72.284  1.00  0.00    -0.043 A  
HETATM   24  C   UNL     1      -6.336   2.292  71.323  1.00  0.00    -0.019 A  
HETATM   25  C   UNL     1      -6.423   3.052  70.155  1.00  0.00    -0.032 A  
ENDBRANCH  13  14
ENDBRANCH   7  13
TORSDOF 3
ENDMDL
MODEL      213
REMARK 921   NORMALIZED FREE ENERGY PREDICTED BY IDOCK:   -1.46 KCAL/MOL
REMARK 922        TOTAL FREE ENERGY PREDICTED BY IDOCK:   -2.80 KCAL/MOL
REMARK 923 INTER-LIGAND FREE ENERGY PREDICTED BY IDOCK:   -3.06 KCAL/MOL
REMARK 924 INTRA-LIGAND FREE ENERGY PREDICTED BY IDOCK:    0.26 KCAL/MOL
REMARK 927      BINDING AFFINITY PREDICTED BY RF-SCORE:    0.00 PKD
ROOT
HETATM    1  C   UNL     1     -10.850   8.279  67.618  1.00  0.00    -0.013 C  
HETATM    2  C   UNL     1     -10.068   9.250  66.722  1.00  0.00    -0.331 C  
HETATM    3  C   UNL     1      -8.834   9.639  67.520  1.00  0.00    -0.129 C  
HETATM    4  C   UNL     1      -8.939   8.869  68.844  1.00  0.00    -0.137 C  
HETATM    5  C   UNL     1      -8.261   7.504  68.711  1.00  0.00    -0.129 C  
HETATM    6  N   UNL     1     -10.465   8.699  69.062  1.00  0.00    -0.216 N  
HETATM    7  C   UNL     1      -8.997   6.479  67.828  1.00  0.00    -0.114 C  
HETATM    8  C   UNL     1     -11.113  10.064  69.404  1.00  0.00    -0.223 C  
HETATM    9  C   UNL     1     -10.405   6.845  67.333  1.00  0.00    -0.297 C  
ENDROOT
BRANCH   6  10
HETATM   10  C   UNL     1     -10.850   7.662  70.184  1.00  0.00    -0.248 C  
HETATM   11  C   UNL     1     -12.347   7.696  70.501  1.00  0.00     0.157 C  
HETATM   12  C   UNL     1     -10.016   7.853  71.455  1.00  0.00    -0.214 C  
ENDBRANCH   6  10
BRANCH   7  13
HETATM   13  O   UNL     1      -8.171   6.155  66.693  1.00  0.00    -0.108 OA 
BRANCH  13  14
HETATM   14  C   UNL     1      -8.166   4.817  66.370  1.00  0.00    -0.107 C  
HETATM   15  C   UNL     1      -9.272   4.083  67.104  1.00  0.00    -0.185 C  
HETATM   16  O   UNL     1      -7.345   4.303  65.619  1.00  0.00    -0.074 OA 
HETATM   17  C   UNL     1      -9.823   2.977  66.195  1.00  0.00     0.387 C  
HETATM   18  C   UNL     1      -8.776   3.560  68.438  1.00  0.00    -0.138 A  
HETATM   19  C   UNL     1      -9.365   4.003  69.631  1.00  0.00    -0.243 A  
HETATM   20  O   UNL     1     -10.446   3.562  65.051  1.00  0.00    -0.422 OA 
HETATM   21  H   UNL     1     -10.788   2.876  64.488  1.00  0.00     0.000 HD 
HETATM   22  C   UNL     1      -8.893   3.554  70.865  1.00  0.00    -0.141 A  
HETATM   23  C   UNL     1      -7.828   2.658  70.922  1.00  0.00    -0.047 A  
HETATM   24  C   UNL     1      -7.236   2.205  69.746  1.00  0.00    -0.036 A  
HETATM   25  C   UNL     1      -7.707   2.651  68.510  1.00  0.00    -0.054 A  
ENDBRANCH  13  14
ENDBRANCH   7  13
TORSDOF 3
ENDMDL
MODEL      214
REMARK 921   NORMALIZED FREE ENERGY PREDICTED BY IDOCK:   -1.43 KCAL/MOL
REMARK 922        TOTAL FREE ENERGY PREDICTED BY IDOCK:   -2.76 KCAL/MOL
REMARK 923 INTER-LIGAND FREE ENERGY PREDICTED BY IDOCK:   -3.98 KCAL/MOL
REMARK 924 INTRA-LIGAND FREE ENERGY PREDICTED BY IDOCK:    1.23 KCAL/MOL
REMARK 927      BINDING AFFINITY PREDICTED BY RF-SCORE:    0.00 PKD
ROOT
HETATM    1  C   UNL     1      -8.897  11.838  66.087  1.00  0.00    -0.107 C  
HETATM    2  C   UNL     1      -9.939  12.405  65.113  1.00  0.00    -0.219 C  
HETATM    3  C   UNL     1     -11.269  11.802  65.541  1.00  0.00    -0.316 C  
HETATM    4  C   UNL     1     -10.949  10.918  66.755  1.00  0.00    -0.185 C  
HETATM    5  C   UNL     1     -11.057  11.738  68.042  1.00  0.00    -0.297 C  
HETATM    6  N   UNL     1      -9.484  10.468  66.519  1.00  0.00    -0.162 N  
HETATM    7  C   UNL     1      -9.947  12.782  68.261  1.00  0.00    -0.230 C  
HETATM    8  C   UNL     1      -9.414   9.469  65.337  1.00  0.00    -0.269 C  
HETATM    9  C   UNL     1      -8.756  12.771  67.290  1.00  0.00    -0.200 C  
ENDROOT
BRANCH   6  10
HETATM   10  C   UNL     1      -8.795   9.812  67.775  1.00  0.00    -0.129 C  
HETATM   11  C   UNL     1      -7.297  10.121  67.829  1.00  0.00    -0.088 C  
HETATM   12  C   UNL     1      -9.045   8.301  67.845  1.00  0.00    -0.137 C  
ENDBRANCH   6  10
BRANCH   7  13
HETATM   13  O   UNL     1     -10.532  14.098  68.270  1.00  0.00    -0.237 OA 
BRANCH  13  14
HETATM   14  C   UNL     1      -9.980  14.948  69.200  1.00  0.00    -0.211 C  
HETATM   15  C   UNL     1      -8.802  15.700  68.610  1.00  0.00    -0.201 C  
HETATM   16  O   UNL     1     -10.377  15.042  70.356  1.00  0.00    -0.090 OA 
HETATM   17  C   UNL     1      -8.769  17.116  69.198  1.00  0.00     0.004 C  
HETATM   18  C   UNL     1      -7.512  14.936  68.833  1.00  0.00    -0.137 A  
HETATM   19  C   UNL     1      -6.758  14.492  67.737  1.00  0.00    -0.191 A  
HETATM   20  O   UNL     1      -9.930  17.836  68.782  1.00  0.00    -0.347 OA 
HETATM   21  H   UNL     1      -9.910  18.714  69.146  1.00  0.00     0.000 HD 
HETATM   22  C   UNL     1      -5.586  13.758  67.932  1.00  0.00    -0.105 A  
HETATM   23  C   UNL     1      -5.154  13.461  69.222  1.00  0.00    -0.074 A  
HETATM   24  C   UNL     1      -5.889  13.899  70.320  1.00  0.00    -0.150 A  
HETATM   25  C   UNL     1      -7.060  14.634  70.128  1.00  0.00     0.094 A  
ENDBRANCH  13  14
ENDBRANCH   7  13
TORSDOF 3
ENDMDL
MODEL      215
REMARK 921   NORMALIZED FREE ENERGY PREDICTED BY IDOCK:   -1.29 KCAL/MOL
REMARK 922        TOTAL FREE ENERGY PREDICTED BY IDOCK:   -2.59 KCAL/MOL
REMARK 923 INTER-LIGAND FREE ENERGY PREDICTED BY IDOCK:   -3.03 KCAL/MOL
REMARK 924 INTRA-LIGAND FREE ENERGY PREDICTED BY IDOCK:    0.44 KCAL/MOL
REMARK 927      BINDING AFFINITY PREDICTED BY RF-SCORE:    0.00 PKD
ROOT
HETATM    1  C   UNL     1     -10.123  13.767  68.287  1.00  0.00    -0.239 C  
HETATM    2  C   UNL     1     -11.291  13.471  67.336  1.00  0.00    -0.338 C  
HETATM    3  C   UNL     1     -10.650  13.095  66.008  1.00  0.00    -0.291 C  
HETATM    4  C   UNL     1      -9.135  13.175  66.244  1.00  0.00     0.025 C  
HETATM    5  C   UNL     1      -8.610  11.823  66.730  1.00  0.00    -0.185 C  
HETATM    6  N   UNL     1      -8.981  14.248  67.352  1.00  0.00    -0.191 N  
HETATM    7  C   UNL     1      -9.011  11.429  68.163  1.00  0.00    -0.169 C  
HETATM    8  C   UNL     1      -9.317  15.652  66.789  1.00  0.00    -0.246 C  
HETATM    9  C   UNL     1      -9.721  12.488  69.021  1.00  0.00     0.313 C  
ENDROOT
BRANCH   6  10
HETATM   10  C   UNL     1      -7.552  14.299  68.014  1.00  0.00    -0.142 C  
HETATM   11  C   UNL     1      -7.629  14.609  69.511  1.00  0.00    -0.042 C  
HETATM   12  C   UNL     1      -6.621  15.282  67.298  1.00  0.00    -0.010 C  
ENDBRANCH   6  10
BRANCH   7  13
HETATM   13  O   UNL     1      -9.826  10.242  68.116  1.00  0.00    -0.145 OA 
BRANCH  13  14
HETATM   14  C   UNL     1      -9.248   9.195  67.435  1.00  0.00    -0.130 C  
HETATM   15  C   UNL     1      -9.291   7.925  68.265  1.00  0.00    -0.145 C  
HETATM   16  O   UNL     1      -8.739   9.304  66.326  1.00  0.00    -0.134 OA 
HETATM   17  C   UNL     1      -9.501   6.727  67.330  1.00  0.00    -0.135 C  
HETATM   18  C   UNL     1      -8.045   7.799  69.119  1.00  0.00    -0.125 A  
HETATM   19  C   UNL     1      -8.150   7.769  70.517  1.00  0.00    -0.103 A  
HETATM   20  O   UNL     1     -10.783   6.821  66.708  1.00  0.00    -0.438 OA 
HETATM   21  H   UNL     1     -10.912   6.079  66.129  1.00  0.00     0.000 HD 
HETATM   22  C   UNL     1      -7.006   7.688  71.313  1.00  0.00    -0.050 A  
HETATM   23  C   UNL     1      -5.745   7.635  70.722  1.00  0.00    -0.030 A  
HETATM   24  C   UNL     1      -5.626   7.659  69.335  1.00  0.00    -0.023 A  
HETATM   25  C   UNL     1      -6.768   7.738  68.537  1.00  0.00    -0.058 A  
ENDBRANCH  13  14
ENDBRANCH   7  13
TORSDOF 3
ENDMDL
MODEL      216
REMARK 921   NORMALIZED FREE ENERGY PREDICTED BY IDOCK:   -1.28 KCAL/MOL
REMARK 922        TOTAL FREE ENERGY PREDICTED BY IDOCK:   -2.58 KCAL/MOL
REMARK 923 INTER-LIGAND FREE ENERGY PREDICTED BY IDOCK:   -1.83 KCAL/MOL
REMARK 924 INTRA-LIGAND FREE ENERGY PREDICTED BY IDOCK:   -0.74 KCAL/MOL
REMARK 927      BINDING AFFINITY PREDICTED BY RF-SCORE:    0.00 PKD
ROOT
HETATM    1  C   UNL     1      -9.053  13.425  66.685  1.00  0.00    -0.169 C  
HETATM    2  C   UNL     1      -9.198  14.557  67.712  1.00  0.00    -0.194 C  
HETATM    3  C   UNL     1     -10.392  14.177  68.574  1.00  0.00    -0.249 C  
HETATM    4  C   UNL     1     -10.887  12.832  68.022  1.00  0.00    -0.233 C  
HETATM    5  C   UNL     1     -10.174  11.681  68.734  1.00  0.00    -0.190 C  
HETATM    6  N   UNL     1     -10.494  12.870  66.523  1.00  0.00    -0.262 N  
HETATM    7  C   UNL     1      -8.685  11.501  68.383  1.00  0.00    -0.160 C  
HETATM    8  C   UNL     1     -11.371  13.897  65.765  1.00  0.00    -0.307 C  
HETATM    9  C   UNL     1      -8.116  12.349  67.235  1.00  0.00    -0.182 C  
ENDROOT
BRANCH   6  10
HETATM   10  C   UNL     1     -10.596  11.480  65.788  1.00  0.00    -0.263 C  
HETATM   11  C   UNL     1      -9.587  11.366  64.643  1.00  0.00    -0.228 C  
HETATM   12  C   UNL     1     -12.018  11.193  65.295  1.00  0.00     1.179 C  
ENDBRANCH   6  10
BRANCH   7  13
HETATM   13  O   UNL     1      -7.892  11.721  69.565  1.00  0.00     0.288 OA 
BRANCH  13  14
HETATM   14  C   UNL     1      -6.669  11.091  69.542  1.00  0.00    -0.126 C  
HETATM   15  C   UNL     1      -6.837   9.598  69.335  1.00  0.00    -0.054 C  
HETATM   16  O   UNL     1      -5.602  11.672  69.707  1.00  0.00    -0.067 OA 
HETATM   17  C   UNL     1      -5.673   9.079  68.481  1.00  0.00    -0.041 C  
HETATM   18  C   UNL     1      -6.960   8.882  70.665  1.00  0.00    -0.064 A  
HETATM   19  C   UNL     1      -8.125   8.165  70.975  1.00  0.00    -0.103 A  
HETATM   20  O   UNL     1      -5.740   9.656  67.176  1.00  0.00    -0.049 OA 
HETATM   21  H   UNL     1      -5.019   9.335  66.647  1.00  0.00     0.000 HD 
HETATM   22  C   UNL     1      -8.261   7.531  72.211  1.00  0.00    -0.120 A  
HETATM   23  C   UNL     1      -7.235   7.605  73.151  1.00  0.00    -0.100 A  
HETATM   24  C   UNL     1      -6.071   8.308  72.857  1.00  0.00    -0.074 A  
HETATM   25  C   UNL     1      -5.931   8.942  71.621  1.00  0.00    -0.063 A  
ENDBRANCH  13  14
ENDBRANCH   7  13
TORSDOF 3
ENDMDL
MODEL      217
REMARK 921   NORMALIZED FREE ENERGY PREDICTED BY IDOCK:   -0.78 KCAL/MOL
REMARK 922        TOTAL FREE ENERGY PREDICTED BY IDOCK:   -1.99 KCAL/MOL
REMARK 923 INTER-LIGAND FREE ENERGY PREDICTED BY IDOCK:   -2.01 KCAL/MOL
REMARK 924 INTRA-LIGAND FREE ENERGY PREDICTED BY IDOCK:    0.02 KCAL/MOL
REMARK 927      BINDING AFFINITY PREDICTED BY RF-SCORE:    0.00 PKD
ROOT
HETATM    1  C   UNL     1      -7.430   8.502  67.362  1.00  0.00    -0.093 C  
HETATM    2  C   UNL     1      -7.475   8.396  65.831  1.00  0.00    -0.081 C  
HETATM    3  C   UNL     1      -8.947   8.495  65.458  1.00  0.00    -0.182 C  
HETATM    4  C   UNL     1      -9.698   8.668  66.786  1.00  0.00    -0.233 C  
HETATM    5  C   UNL     1      -9.820  10.154  67.128  1.00  0.00    -0.231 C  
HETATM    6  N   UNL     1      -8.803   7.944  67.824  1.00  0.00    -0.123 N  
HETATM    7  C   UNL     1      -8.513  10.850  67.550  1.00  0.00    -0.123 C  
HETATM    8  C   UNL     1      -8.851   6.412  67.597  1.00  0.00    -0.112 C  
HETATM    9  C   UNL     1      -7.275   9.967  67.772  1.00  0.00    -0.087 C  
ENDROOT
BRANCH   6  10
HETATM   10  C   UNL     1      -9.175   8.243  69.326  1.00  0.00    -0.151 C  
HETATM   11  C   UNL     1      -9.014   7.005  70.210  1.00  0.00    -0.149 C  
HETATM   12  C   UNL     1     -10.581   8.836  69.463  1.00  0.00    -0.224 C  
ENDBRANCH   6  10
BRANCH   7  13
HETATM   13  O   UNL     1      -8.192  11.874  66.589  1.00  0.00    -0.163 OA 
BRANCH  13  14
HETATM   14  C   UNL     1      -7.687  13.026  67.148  1.00  0.00    -0.039 C  
HETATM   15  C   UNL     1      -8.065  13.122  68.614  1.00  0.00    -0.014 C  
HETATM   16  O   UNL     1      -7.054  13.865  66.519  1.00  0.00     0.970 OA 
HETATM   17  C   UNL     1      -6.912  13.782  69.382  1.00  0.00     0.002 C  
HETATM   18  C   UNL     1      -9.383  13.852  68.782  1.00  0.00    -0.031 A  
HETATM   19  C   UNL     1     -10.480  13.200  69.362  1.00  0.00     0.314 A  
HETATM   20  O   UNL     1      -5.761  12.938  69.338  1.00  0.00    -0.079 OA 
HETATM   21  H   UNL     1      -5.047  13.346  69.815  1.00  0.00     0.000 HD 
HETATM   22  C   UNL     1     -11.708  13.853  69.491  1.00  0.00    -0.369 A  
HETATM   23  C   UNL     1     -11.852  15.164  69.041  1.00  0.00    -0.331 A  
HETATM   24  C   UNL     1     -10.770  15.826  68.468  1.00  0.00    -0.274 A  
HETATM   25  C   UNL     1      -9.541  15.176  68.340  1.00  0.00    -0.212 A  
ENDBRANCH  13  14
ENDBRANCH   7  13
TORSDOF 3
ENDMDL
MODEL      218
REMARK 921   NORMALIZED FREE ENERGY PREDICTED BY IDOCK:   -0.28 KCAL/MOL
REMARK 922        TOTAL FREE ENERGY PREDICTED BY IDOCK:   -1.40 KCAL/MOL
REMARK 923 INTER-LIGAND FREE ENERGY PREDICTED BY IDOCK:   -2.20 KCAL/MOL
REMARK 924 INTRA-LIGAND FREE ENERGY PREDICTED BY IDOCK:    0.80 KCAL/MOL
REMARK 927      BINDING AFFINITY PREDICTED BY RF-SCORE:    0.00 PKD
ROOT
HETATM    1  C   UNL     1     -11.409  15.485  68.360  1.00  0.00    -0.354 C  
HETATM    2  C   UNL     1     -12.314  15.933  69.516  1.00  0.00     0.006 C  
HETATM    3  C   UNL     1     -11.386  16.156  70.700  1.00  0.00    -0.394 C  
HETATM    4  C   UNL     1      -9.975  15.842  70.182  1.00  0.00     0.015 C  
HETATM    5  C   UNL     1      -9.334  17.108  69.610  1.00  0.00     0.593 C  
HETATM    6  N   UNL     1     -10.208  14.796  69.062  1.00  0.00    -0.237 N  
HETATM    7  C   UNL     1      -9.925  17.609  68.279  1.00  0.00    -0.339 C  
HETATM    8  C   UNL     1     -10.659  13.446  69.674  1.00  0.00     0.474 C  
HETATM    9  C   UNL     1     -10.945  16.707  67.567  1.00  0.00    -0.147 C  
ENDROOT
BRANCH   6  10
HETATM   10  C   UNL     1      -8.955  14.538  68.142  1.00  0.00    -0.182 C  
HETATM   11  C   UNL     1      -8.871  13.079  67.689  1.00  0.00    -0.191 C  
HETATM   12  C   UNL     1      -7.649  14.979  68.811  1.00  0.00    -0.137 C  
ENDBRANCH   6  10
BRANCH   7  13
HETATM   13  O   UNL     1     -10.510  18.909  68.482  1.00  0.00    -0.313 OA 
BRANCH  13  14
HETATM   14  C   UNL     1      -9.870  19.922  67.805  1.00  0.00    -0.402 C  
HETATM   15  C   UNL     1      -9.315  19.419  66.485  1.00  0.00    -0.414 C  
HETATM   16  O   UNL     1      -9.743  21.058  68.244  1.00  0.00     0.221 OA 
HETATM   17  C   UNL     1      -9.424  20.538  65.442  1.00  0.00     0.675 C  
HETATM   18  C   UNL     1      -7.899  18.907  66.658  1.00  0.00    -0.271 A  
HETATM   19  C   UNL     1      -7.597  17.565  66.385  1.00  0.00    -0.329 A  
HETATM   20  O   UNL     1     -10.800  20.830  65.192  1.00  0.00     0.298 OA 
HETATM   21  H   UNL     1     -10.867  21.523  64.545  1.00  0.00     0.000 HD 
HETATM   22  C   UNL     1      -6.303  17.076  66.574  1.00  0.00    -0.219 A  
HETATM   23  C   UNL     1      -5.298  17.921  67.038  1.00  0.00    -0.159 A  
HETATM   24  C   UNL     1      -5.581  19.257  67.308  1.00  0.00    -0.171 A  
HETATM   25  C   UNL     1      -6.873  19.749  67.119  1.00  0.00    -0.227 A  
ENDBRANCH  13  14
ENDBRANCH   7  13
TORSDOF 3
ENDMDL
MODEL      219
REMARK 921   NORMALIZED FREE ENERGY PREDICTED BY IDOCK:    0.26 KCAL/MOL
REMARK 922        TOTAL FREE ENERGY PREDICTED BY IDOCK:   -0.78 KCAL/MOL
REMARK 923 INTER-LIGAND FREE ENERGY PREDICTED BY IDOCK:   -3.09 KCAL/MOL
REMARK 924 INTRA-LIGAND FREE ENERGY PREDICTED BY IDOCK:    2.31 KCAL/MOL
REMARK 927      BINDING AFFINITY PREDICTED BY RF-SCORE:    0.00 PKD
ROOT
HETATM    1  C   UNL     1     -10.224  16.577  66.991  1.00  0.00    -0.288 C  
HETATM    2  C   UNL     1      -9.027  16.394  66.048  1.00  0.00    -0.307 C  
HETATM    3  C   UNL     1      -7.795  16.441  66.939  1.00  0.00    -0.273 C  
HETATM    4  C   UNL     1      -8.325  16.636  68.366  1.00  0.00    -0.208 C  
HETATM    5  C   UNL     1      -8.583  15.276  69.019  1.00  0.00    -0.226 C  
HETATM    6  N   UNL     1      -9.656  17.407  68.173  1.00  0.00    -0.276 N  
HETATM    7  C   UNL     1      -9.788  14.491  68.467  1.00  0.00    -0.231 C  
HETATM    8  C   UNL     1      -9.372  18.858  67.709  1.00  0.00    -0.293 C  
HETATM    9  C   UNL     1     -10.712  15.210  67.473  1.00  0.00    -0.284 C  
ENDROOT
BRANCH   6  10
HETATM   10  C   UNL     1     -10.571  17.457  69.455  1.00  0.00     0.006 C  
HETATM   11  C   UNL     1     -10.310  18.711  70.292  1.00  0.00     1.526 C  
HETATM   12  C   UNL     1     -10.436  16.192  70.308  1.00  0.00    -0.049 C  
ENDBRANCH   6  10
BRANCH   7  13
HETATM   13  O   UNL     1      -9.319  13.267  67.870  1.00  0.00    -0.198 OA 
BRANCH  13  14
HETATM   14  C   UNL     1     -10.233  12.239  67.915  1.00  0.00    -0.200 C  
HETATM   15  C   UNL     1      -9.980  11.246  66.795  1.00  0.00    -0.238 C  
HETATM   16  O   UNL     1     -11.143  12.173  68.732  1.00  0.00    -0.223 OA 
HETATM   17  C   UNL     1     -10.304   9.834  67.300  1.00  0.00    -0.248 C  
HETATM   18  C   UNL     1     -10.763  11.626  65.554  1.00  0.00    -0.333 A  
HETATM   19  C   UNL     1     -10.090  11.931  64.362  1.00  0.00    -0.310 A  
HETATM   20  O   UNL     1      -9.395   9.476  68.341  1.00  0.00    -0.133 OA 
HETATM   21  H   UNL     1      -9.595   8.601  68.653  1.00  0.00     0.000 HD 
HETATM   22  C   UNL     1     -10.801  12.314  63.224  1.00  0.00    -0.359 A  
HETATM   23  C   UNL     1     -12.191  12.397  63.263  1.00  0.00    -0.520 A  
HETATM   24  C   UNL     1     -12.873  12.093  64.437  1.00  0.00    -0.216 A  
HETATM   25  C   UNL     1     -12.165  11.708  65.577  1.00  0.00     0.795 A  
ENDBRANCH  13  14
ENDBRANCH   7  13
TORSDOF 3
ENDMDL
MODEL      220
REMARK 921   NORMALIZED FREE ENERGY PREDICTED BY IDOCK:    0.89 KCAL/MOL
REMARK 922        TOTAL FREE ENERGY PREDICTED BY IDOCK:   -0.03 KCAL/MOL
REMARK 923 INTER-LIGAND FREE ENERGY PREDICTED BY IDOCK:   -2.31 KCAL/MOL
REMARK 924 INTRA-LIGAND FREE ENERGY PREDICTED BY IDOCK:    2.28 KCAL/MOL
REMARK 927      BINDING AFFINITY PREDICTED BY RF-SCORE:    0.00 PKD
ROOT
HETATM    1  C   UNL     1     -10.230  16.555  66.942  1.00  0.00    -0.296 C  
HETATM    2  C   UNL     1      -9.021  16.447  66.002  1.00  0.00    -0.307 C  
HETATM    3  C   UNL     1      -7.797  16.483  66.903  1.00  0.00    -0.263 C  
HETATM    4  C   UNL     1      -8.342  16.597  68.334  1.00  0.00    -0.208 C  
HETATM    5  C   UNL     1      -8.569  15.202  68.919  1.00  0.00    -0.200 C  
HETATM    6  N   UNL     1      -9.691  17.342  68.167  1.00  0.00    -0.279 N  
HETATM    7  C   UNL     1      -9.749  14.413  68.322  1.00  0.00    -0.222 C  
HETATM    8  C   UNL     1      -9.442  18.820  67.774  1.00  0.00    -0.301 C  
HETATM    9  C   UNL     1     -10.686  15.155  67.355  1.00  0.00    -0.286 C  
ENDROOT
BRANCH   6  10
HETATM   10  C   UNL     1     -10.616  17.308  69.442  1.00  0.00    -0.079 C  
HETATM   11  C   UNL     1     -10.421  18.546  70.320  1.00  0.00     1.655 C  
HETATM   12  C   UNL     1     -10.426  16.024  70.256  1.00  0.00    -0.115 C  
ENDBRANCH   6  10
BRANCH   7  13
HETATM   13  O   UNL     1      -9.246  13.231  67.671  1.00  0.00    -0.192 OA 
BRANCH  13  14
HETATM   14  C   UNL     1     -10.126  12.174  67.674  1.00  0.00    -0.199 C  
HETATM   15  C   UNL     1     -10.169  11.513  69.039  1.00  0.00    -0.109 C  
HETATM   16  O   UNL     1     -10.752  11.809  66.686  1.00  0.00    -0.241 OA 
HETATM   17  C   UNL     1     -11.599  11.031  69.314  1.00  0.00    -0.314 C  
HETATM   18  C   UNL     1      -9.142  10.402  69.130  1.00  0.00    -0.197 A  
HETATM   19  C   UNL     1      -8.110  10.472  70.077  1.00  0.00     0.281 A  
HETATM   20  O   UNL     1     -12.476  12.154  69.405  1.00  0.00    -0.013 OA 
HETATM   21  H   UNL     1     -13.362  11.856  69.575  1.00  0.00     0.000 HD 
HETATM   22  C   UNL     1      -7.140   9.471  70.145  1.00  0.00    -0.099 A  
HETATM   23  C   UNL     1      -7.190   8.389  69.270  1.00  0.00    -0.063 A  
HETATM   24  C   UNL     1      -8.210   8.302  68.327  1.00  0.00    -0.128 A  
HETATM   25  C   UNL     1      -9.183   9.301  68.258  1.00  0.00    -0.134 A  
ENDBRANCH  13  14
ENDBRANCH   7  13
TORSDOF 3
ENDMDL
MODEL      221
REMARK 921   NORMALIZED FREE ENERGY PREDICTED BY IDOCK:    1.30 KCAL/MOL
REMARK 922        TOTAL FREE ENERGY PREDICTED BY IDOCK:    0.45 KCAL/MOL
REMARK 923 INTER-LIGAND FREE ENERGY PREDICTED BY IDOCK:   -0.90 KCAL/MOL
REMARK 924 INTRA-LIGAND FREE ENERGY PREDICTED BY IDOCK:    1.35 KCAL/MOL
REMARK 927      BINDING AFFINITY PREDICTED BY RF-SCORE:    0.00 PKD
ROOT
HETATM    1  C   UNL     1     -11.436  17.258  67.110  1.00  0.00     0.858 C  
HETATM    2  C   UNL     1     -11.648  18.688  67.625  1.00  0.00     1.217 C  
HETATM    3  C   UNL     1     -10.595  18.895  68.703  1.00  0.00     0.063 C  
HETATM    4  C   UNL     1      -9.803  17.581  68.763  1.00  0.00    -0.326 C  
HETATM    5  C   UNL     1      -8.626  17.635  67.787  1.00  0.00    -0.228 C  
HETATM    6  N   UNL     1     -10.826  16.503  68.322  1.00  0.00    -0.341 N  
HETATM    7  C   UNL     1      -8.995  17.574  66.294  1.00  0.00    -0.191 C  
HETATM    8  C   UNL     1     -11.904  16.306  69.416  1.00  0.00    -0.021 C  
HETATM    9  C   UNL     1     -10.459  17.275  65.934  1.00  0.00    -0.267 C  
ENDROOT
BRANCH   6  10
HETATM   10  C   UNL     1     -10.189  15.102  67.983  1.00  0.00    -0.230 C  
HETATM   11  C   UNL     1     -11.225  14.125  67.423  1.00  0.00    -0.334 C  
HETATM   12  C   UNL     1      -9.460  14.495  69.187  1.00  0.00    -0.017 C  
ENDBRANCH   6  10
BRANCH   7  13
HETATM   13  O   UNL     1      -8.598  18.803  65.658  1.00  0.00    -0.323 OA 
BRANCH  13  14
HETATM   14  C   UNL     1      -7.261  19.097  65.797  1.00  0.00    -0.248 C  
HETATM   15  C   UNL     1      -6.405  17.912  65.394  1.00  0.00    -0.043 C  
HETATM   16  O   UNL     1      -6.842  20.165  66.227  1.00  0.00    -0.222 OA 
HETATM   17  C   UNL     1      -5.125  18.427  64.724  1.00  0.00    -0.120 C  
HETATM   18  C   UNL     1      -6.130  17.017  66.587  1.00  0.00    -0.231 A  
HETATM   19  C   UNL     1      -6.571  15.686  66.585  1.00  0.00     0.894 A  
HETATM   20  O   UNL     1      -5.456  19.093  63.505  1.00  0.00    -0.288 OA 
HETATM   21  H   UNL     1      -4.662  19.412  63.090  1.00  0.00     0.000 HD 
HETATM   22  C   UNL     1      -6.353  14.865  67.693  1.00  0.00    -0.147 A  
HETATM   23  C   UNL     1      -5.692  15.363  68.813  1.00  0.00    -0.092 A  
HETATM   24  C   UNL     1      -5.244  16.681  68.827  1.00  0.00    -0.122 A  
HETATM   25  C   UNL     1      -5.460  17.504  67.721  1.00  0.00    -0.138 A  
ENDBRANCH  13  14
ENDBRANCH   7  13
TORSDOF 3
ENDMDL
MODEL      222
REMARK 921   NORMALIZED FREE ENERGY PREDICTED BY IDOCK:    1.37 KCAL/MOL
REMARK 922        TOTAL FREE ENERGY PREDICTED BY IDOCK:    0.54 KCAL/MOL
REMARK 923 INTER-LIGAND FREE ENERGY PREDICTED BY IDOCK:    0.40 KCAL/MOL
REMARK 924 INTRA-LIGAND FREE ENERGY PREDICTED BY IDOCK:    0.13 KCAL/MOL
REMARK 927      BINDING AFFINITY PREDICTED BY RF-SCORE:    0.00 PKD
ROOT
HETATM    1  C   UNL     1     -12.583   9.255  69.684  1.00  0.00     1.684 C  
HETATM    2  C   UNL     1     -13.132  10.670  69.914  1.00  0.00     0.330 C  
HETATM    3  C   UNL     1     -12.664  11.070  71.305  1.00  0.00    -0.537 C  
HETATM    4  C   UNL     1     -11.849   9.876  71.824  1.00  0.00    -0.184 C  
HETATM    5  C   UNL     1     -10.380  10.034  71.427  1.00  0.00     0.801 C  
HETATM    6  N   UNL     1     -12.477   8.652  71.111  1.00  0.00    -0.237 N  
HETATM    7  C   UNL     1     -10.071   9.846  69.931  1.00  0.00    -0.257 C  
HETATM    8  C   UNL     1     -13.894   8.372  71.671  1.00  0.00    -0.379 C  
HETATM    9  C   UNL     1     -11.205   9.339  69.027  1.00  0.00     0.130 C  
ENDROOT
BRANCH   6  10
HETATM   10  C   UNL     1     -11.624   7.330  71.215  1.00  0.00    -0.286 C  
HETATM   11  C   UNL     1     -12.213   6.203  70.364  1.00  0.00     0.613 C  
HETATM   12  C   UNL     1     -11.436   6.880  72.667  1.00  0.00    -0.235 C  
ENDBRANCH   6  10
BRANCH   7  13
HETATM   13  O   UNL     1      -9.562  11.082  69.395  1.00  0.00    -0.060 OA 
BRANCH  13  14
HETATM   14  C   UNL     1      -8.543  10.920  68.485  1.00  0.00    -0.152 C  
HETATM   15  C   UNL     1      -8.375   9.456  68.122  1.00  0.00    -0.119 C  
HETATM   16  O   UNL     1      -7.853  11.841  68.067  1.00  0.00    -0.118 OA 
HETATM   17  C   UNL     1      -7.974   9.353  66.645  1.00  0.00    -0.108 C  
HETATM   18  C   UNL     1      -7.386   8.783  69.052  1.00  0.00    -0.073 A  
HETATM   19  C   UNL     1      -7.797   7.713  69.861  1.00  0.00    -0.102 A  
HETATM   20  O   UNL     1      -9.040   9.831  65.823  1.00  0.00    -0.156 OA 
HETATM   21  H   UNL     1      -8.792   9.767  64.908  1.00  0.00     0.000 HD 
HETATM   22  C   UNL     1      -6.902   7.108  70.746  1.00  0.00    -0.053 A  
HETATM   23  C   UNL     1      -5.589   7.564  70.832  1.00  0.00    -0.030 A  
HETATM   24  C   UNL     1      -5.165   8.622  70.032  1.00  0.00    -0.029 A  
HETATM   25  C   UNL     1      -6.057   9.227  69.145  1.00  0.00    -0.042 A  
ENDBRANCH  13  14
ENDBRANCH   7  13
TORSDOF 3
ENDMDL
MODEL      223
REMARK 921   NORMALIZED FREE ENERGY PREDICTED BY IDOCK:    1.67 KCAL/MOL
REMARK 922        TOTAL FREE ENERGY PREDICTED BY IDOCK:    0.88 KCAL/MOL
REMARK 923 INTER-LIGAND FREE ENERGY PREDICTED BY IDOCK:   -2.17 KCAL/MOL
REMARK 924 INTRA-LIGAND FREE ENERGY PREDICTED BY IDOCK:    3.06 KCAL/MOL
REMARK 927      BINDING AFFINITY PREDICTED BY RF-SCORE:    0.00 PKD
ROOT
HETATM    1  C   UNL     1     -11.285  14.531  64.640  1.00  0.00    -0.353 C  
HETATM    2  C   UNL     1     -12.429  14.992  65.554  1.00  0.00     0.287 C  
HETATM    3  C   UNL     1     -13.026  13.719  66.134  1.00  0.00     0.013 C  
HETATM    4  C   UNL     1     -12.197  12.568  65.545  1.00  0.00    -0.377 C  
HETATM    5  C   UNL     1     -11.003  12.267  66.454  1.00  0.00    -0.326 C  
HETATM    6  N   UNL     1     -11.714  13.113  64.177  1.00  0.00    -0.393 N  
HETATM    7  C   UNL     1      -9.888  13.329  66.463  1.00  0.00    -0.281 C  
HETATM    8  C   UNL     1     -12.904  13.219  63.192  1.00  0.00     0.677 C  
HETATM    9  C   UNL     1      -9.982  14.470  65.439  1.00  0.00    -0.352 C  
ENDROOT
BRANCH   6  10
HETATM   10  C   UNL     1     -10.575  12.259  63.502  1.00  0.00    -0.448 C  
HETATM   11  C   UNL     1     -11.138  11.050  62.751  1.00  0.00     0.892 C  
HETATM   12  C   UNL     1      -9.505  11.827  64.510  1.00  0.00     0.007 C  
ENDBRANCH   6  10
BRANCH   7  13
HETATM   13  O   UNL     1      -9.784  13.892  67.785  1.00  0.00    -0.215 OA 
BRANCH  13  14
HETATM   14  C   UNL     1      -8.564  13.684  68.386  1.00  0.00    -0.151 C  
HETATM   15  C   UNL     1      -7.779  12.613  67.653  1.00  0.00    -0.155 C  
HETATM   16  O   UNL     1      -8.198  14.268  69.399  1.00  0.00     0.101 OA 
HETATM   17  C   UNL     1      -6.288  12.972  67.696  1.00  0.00    -0.161 C  
HETATM   18  C   UNL     1      -8.075  11.242  68.227  1.00  0.00    -0.137 A  
HETATM   19  C   UNL     1      -8.650  10.250  67.421  1.00  0.00    -0.125 A  
HETATM   20  O   UNL     1      -6.063  14.178  66.966  1.00  0.00    -0.217 OA 
HETATM   21  H   UNL     1      -5.139  14.401  66.993  1.00  0.00     0.000 HD 
HETATM   22  C   UNL     1      -8.958   8.995  67.950  1.00  0.00    -0.135 A  
HETATM   23  C   UNL     1      -8.694   8.717  69.290  1.00  0.00    -0.135 A  
HETATM   24  C   UNL     1      -8.118   9.691  70.101  1.00  0.00    -0.205 A  
HETATM   25  C   UNL     1      -7.808  10.945  69.575  1.00  0.00     0.016 A  
ENDBRANCH  13  14
ENDBRANCH   7  13
TORSDOF 3
ENDMDL
MODEL      224
REMARK 921   NORMALIZED FREE ENERGY PREDICTED BY IDOCK:    1.99 KCAL/MOL
REMARK 922        TOTAL FREE ENERGY PREDICTED BY IDOCK:    1.27 KCAL/MOL
REMARK 923 INTER-LIGAND FREE ENERGY PREDICTED BY IDOCK:   -2.65 KCAL/MOL
REMARK 924 INTRA-LIGAND FREE ENERGY PREDICTED BY IDOCK:    3.91 KCAL/MOL
REMARK 927      BINDING AFFINITY PREDICTED BY RF-SCORE:    0.00 PKD
ROOT
HETATM    1  C   UNL     1      -9.756  12.909  67.200  1.00  0.00    -0.221 C  
HETATM    2  C   UNL     1      -9.098  11.964  66.185  1.00  0.00    -0.162 C  
HETATM    3  C   UNL     1      -7.633  11.886  66.589  1.00  0.00     0.039 C  
HETATM    4  C   UNL     1      -7.500  12.778  67.831  1.00  0.00    -0.127 C  
HETATM    5  C   UNL     1      -7.757  11.956  69.096  1.00  0.00     0.159 C  
HETATM    6  N   UNL     1      -8.605  13.850  67.647  1.00  0.00    -0.177 N  
HETATM    7  C   UNL     1      -9.217  11.520  69.322  1.00  0.00     0.418 C  
HETATM    8  C   UNL     1      -8.232  14.811  66.490  1.00  0.00     0.298 C  
HETATM    9  C   UNL     1     -10.287  12.101  68.385  1.00  0.00    -0.236 C  
ENDROOT
BRANCH   6  10
HETATM   10  C   UNL     1      -8.904  14.705  68.936  1.00  0.00    -0.136 C  
HETATM   11  C   UNL     1      -9.925  15.811  68.662  1.00  0.00    -0.208 C  
HETATM   12  C   UNL     1      -7.626  15.281  69.554  1.00  0.00    -0.219 C  
ENDBRANCH   6  10
BRANCH   7  13
HETATM   13  O   UNL     1      -9.291  10.083  69.284  1.00  0.00    -0.188 OA 
BRANCH  13  14
HETATM   14  C   UNL     1      -8.678   9.520  68.189  1.00  0.00    -0.120 C  
HETATM   15  C   UNL     1      -9.572   8.474  67.550  1.00  0.00    -0.194 C  
HETATM   16  O   UNL     1      -7.546   9.811  67.820  1.00  0.00    -0.090 OA 
HETATM   17  C   UNL     1      -9.370   8.508  66.030  1.00  0.00    -0.199 C  
HETATM   18  C   UNL     1      -9.313   7.107  68.151  1.00  0.00    -0.129 A  
HETATM   19  C   UNL     1     -10.340   6.426  68.821  1.00  0.00    -0.232 A  
HETATM   20  O   UNL     1      -9.819   9.762  65.514  1.00  0.00    -0.294 OA 
HETATM   21  H   UNL     1      -9.694   9.783  64.572  1.00  0.00     0.000 HD 
HETATM   22  C   UNL     1     -10.102   5.181  69.407  1.00  0.00    -0.305 A  
HETATM   23  C   UNL     1      -8.836   4.603  69.331  1.00  0.00    -0.124 A  
HETATM   24  C   UNL     1      -7.809   5.265  68.665  1.00  0.00    -0.086 A  
HETATM   25  C   UNL     1      -8.044   6.508  68.076  1.00  0.00    -0.113 A  
ENDBRANCH  13  14
ENDBRANCH   7  13
TORSDOF 3
ENDMDL
MODEL      225
REMARK 921   NORMALIZED FREE ENERGY PREDICTED BY IDOCK:    2.01 KCAL/MOL
REMARK 922        TOTAL FREE ENERGY PREDICTED BY IDOCK:    1.28 KCAL/MOL
REMARK 923 INTER-LIGAND FREE ENERGY PREDICTED BY IDOCK:   -3.61 KCAL/MOL
REMARK 924 INTRA-LIGAND FREE ENERGY PREDICTED BY IDOCK:    4.89 KCAL/MOL
REMARK 927      BINDING AFFINITY PREDICTED BY RF-SCORE:    0.00 PKD
ROOT
HETATM    1  C   UNL     1      -8.052  17.448  65.987  1.00  0.00    -0.144 C  
HETATM    2  C   UNL     1      -6.699  17.211  66.673  1.00  0.00    -0.277 C  
HETATM    3  C   UNL     1      -6.921  17.544  68.140  1.00  0.00    -0.200 C  
HETATM    4  C   UNL     1      -8.398  17.949  68.252  1.00  0.00    -0.284 C  
HETATM    5  C   UNL     1      -9.258  16.716  68.537  1.00  0.00    -0.234 C  
HETATM    6  N   UNL     1      -8.735  18.536  66.857  1.00  0.00    -0.277 N  
HETATM    7  C   UNL     1      -9.413  15.727  67.367  1.00  0.00    -0.212 C  
HETATM    8  C   UNL     1      -8.019  19.895  66.660  1.00  0.00    -0.314 C  
HETATM    9  C   UNL     1      -8.866  16.154  65.996  1.00  0.00    -0.313 C  
ENDROOT
BRANCH   6  10
HETATM   10  C   UNL     1     -10.276  18.734  66.590  1.00  0.00    -0.408 C  
HETATM   11  C   UNL     1     -10.606  18.688  65.097  1.00  0.00     0.875 C  
HETATM   12  C   UNL     1     -10.810  20.019  67.230  1.00  0.00    -0.254 C  
ENDBRANCH   6  10
BRANCH   7  13
HETATM   13  O   UNL     1      -8.824  14.465  67.734  1.00  0.00    -0.171 OA 
BRANCH  13  14
HETATM   14  C   UNL     1      -7.664  14.582  68.464  1.00  0.00    -0.129 C  
HETATM   15  C   UNL     1      -6.532  13.821  67.800  1.00  0.00    -0.178 C  
HETATM   16  O   UNL     1      -7.587  15.190  69.525  1.00  0.00    -0.201 OA 
HETATM   17  C   UNL     1      -5.221  14.588  68.019  1.00  0.00    -0.102 C  
HETATM   18  C   UNL     1      -6.474  12.393  68.306  1.00  0.00    -0.061 A  
HETATM   19  C   UNL     1      -6.653  11.323  67.418  1.00  0.00    -0.081 A  
HETATM   20  O   UNL     1      -5.283  15.846  67.347  1.00  0.00    -0.268 OA 
HETATM   21  H   UNL     1      -4.471  16.321  67.483  1.00  0.00     0.000 HD 
HETATM   22  C   UNL     1      -6.635  10.006  67.881  1.00  0.00    -0.063 A  
HETATM   23  C   UNL     1      -6.439   9.744  69.235  1.00  0.00    -0.048 A  
HETATM   24  C   UNL     1      -6.256  10.795  70.128  1.00  0.00    -0.136 A  
HETATM   25  C   UNL     1      -6.271  12.113  69.668  1.00  0.00    -0.131 A  
ENDBRANCH  13  14
ENDBRANCH   7  13
TORSDOF 3
ENDMDL
MODEL      226
REMARK 921   NORMALIZED FREE ENERGY PREDICTED BY IDOCK:    2.30 KCAL/MOL
REMARK 922        TOTAL FREE ENERGY PREDICTED BY IDOCK:    1.63 KCAL/MOL
REMARK 923 INTER-LIGAND FREE ENERGY PREDICTED BY IDOCK:   -0.46 KCAL/MOL
REMARK 924 INTRA-LIGAND FREE ENERGY PREDICTED BY IDOCK:    2.08 KCAL/MOL
REMARK 927      BINDING AFFINITY PREDICTED BY RF-SCORE:    0.00 PKD
ROOT
HETATM    1  C   UNL     1     -11.436  13.978  64.183  1.00  0.00    -0.209 C  
HETATM    2  C   UNL     1     -12.762  14.344  64.867  1.00  0.00    -0.191 C  
HETATM    3  C   UNL     1     -12.538  14.097  66.351  1.00  0.00    -0.235 C  
HETATM    4  C   UNL     1     -11.087  13.609  66.474  1.00  0.00    -0.305 C  
HETATM    5  C   UNL     1     -10.149  14.802  66.665  1.00  0.00    -0.269 C  
HETATM    6  N   UNL     1     -10.808  12.910  65.118  1.00  0.00    -0.289 N  
HETATM    7  C   UNL     1      -9.951  15.699  65.429  1.00  0.00    -0.276 C  
HETATM    8  C   UNL     1     -11.609  11.588  65.022  1.00  0.00     0.038 C  
HETATM    9  C   UNL     1     -10.544  15.216  64.096  1.00  0.00     1.046 C  
ENDROOT
BRANCH   6  10
HETATM   10  C   UNL     1      -9.287  12.599  64.848  1.00  0.00     0.512 C  
HETATM   11  C   UNL     1      -9.087  11.817  63.549  1.00  0.00     0.202 C  
HETATM   12  C   UNL     1      -8.629  11.876  66.029  1.00  0.00     0.129 C  
ENDBRANCH   6  10
BRANCH   7  13
HETATM   13  O   UNL     1     -10.456  17.017  65.716  1.00  0.00    -0.448 OA 
BRANCH  13  14
HETATM   14  C   UNL     1      -9.658  17.748  66.566  1.00  0.00    -0.308 C  
HETATM   15  C   UNL     1      -8.974  16.842  67.573  1.00  0.00    -0.208 C  
HETATM   16  O   UNL     1      -9.557  18.968  66.522  1.00  0.00    -0.325 OA 
HETATM   17  C   UNL     1      -7.572  17.393  67.866  1.00  0.00    -0.194 C  
HETATM   18  C   UNL     1      -9.822  16.688  68.820  1.00  0.00    -0.252 A  
HETATM   19  C   UNL     1     -10.296  15.424  69.198  1.00  0.00    -0.240 A  
HETATM   20  O   UNL     1      -6.773  17.324  66.685  1.00  0.00    -0.186 OA 
HETATM   21  H   UNL     1      -5.904  17.665  66.866  1.00  0.00     0.000 HD 
HETATM   22  C   UNL     1     -11.106  15.277  70.325  1.00  0.00    -0.316 A  
HETATM   23  C   UNL     1     -11.451  16.391  71.087  1.00  0.00    -0.252 A  
HETATM   24  C   UNL     1     -10.985  17.652  70.727  1.00  0.00     1.833 A  
HETATM   25  C   UNL     1     -10.173  17.802  69.602  1.00  0.00     0.287 A  
ENDBRANCH  13  14
ENDBRANCH   7  13
TORSDOF 3
ENDMDL
MODEL      227
REMARK 921   NORMALIZED FREE ENERGY PREDICTED BY IDOCK:    2.78 KCAL/MOL
REMARK 922        TOTAL FREE ENERGY PREDICTED BY IDOCK:    2.20 KCAL/MOL
REMARK 923 INTER-LIGAND FREE ENERGY PREDICTED BY IDOCK:    0.63 KCAL/MOL
REMARK 924 INTRA-LIGAND FREE ENERGY PREDICTED BY IDOCK:    1.56 KCAL/MOL
REMARK 927      BINDING AFFINITY PREDICTED BY RF-SCORE:    0.00 PKD
ROOT
HETATM    1  C   UNL     1      -7.515  14.010  69.080  1.00  0.00    -0.005 C  
HETATM    2  C   UNL     1      -6.344  14.730  68.397  1.00  0.00    -0.103 C  
HETATM    3  C   UNL     1      -6.310  14.195  66.973  1.00  0.00     1.067 C  
HETATM    4  C   UNL     1      -7.472  13.195  66.881  1.00  0.00     0.378 C  
HETATM    5  C   UNL     1      -8.748  13.915  66.441  1.00  0.00     0.197 C  
HETATM    6  N   UNL     1      -7.623  12.657  68.327  1.00  0.00    -0.125 N  
HETATM    7  C   UNL     1      -9.378  14.853  67.488  1.00  0.00    -0.193 C  
HETATM    8  C   UNL     1      -6.418  11.753  68.691  1.00  0.00    -0.060 C  
HETATM    9  C   UNL     1      -8.793  14.830  68.908  1.00  0.00    -0.164 C  
ENDROOT
BRANCH   6  10
HETATM   10  C   UNL     1      -8.953  11.852  68.586  1.00  0.00    -0.041 C  
HETATM   11  C   UNL     1      -9.601  12.237  69.918  1.00  0.00     2.483 C  
HETATM   12  C   UNL     1      -8.736  10.338  68.501  1.00  0.00    -0.130 C  
ENDBRANCH   6  10
BRANCH   7  13
HETATM   13  O   UNL     1      -9.348  16.204  66.990  1.00  0.00    -0.210 OA 
BRANCH  13  14
HETATM   14  C   UNL     1      -9.214  17.158  67.972  1.00  0.00    -0.250 C  
HETATM   15  C   UNL     1      -9.198  18.550  67.369  1.00  0.00    -0.286 C  
HETATM   16  O   UNL     1      -9.087  16.895  69.162  1.00  0.00    -0.213 OA 
HETATM   17  C   UNL     1      -9.904  19.516  68.330  1.00  0.00    -0.428 C  
HETATM   18  C   UNL     1      -7.782  18.976  67.037  1.00  0.00    -0.245 A  
HETATM   19  C   UNL     1      -7.425  19.261  65.712  1.00  0.00    -0.228 A  
HETATM   20  O   UNL     1     -11.283  19.162  68.439  1.00  0.00     0.036 OA 
HETATM   21  H   UNL     1     -11.721  19.760  69.035  1.00  0.00     0.000 HD 
HETATM   22  C   UNL     1      -6.114  19.621  65.391  1.00  0.00    -0.250 A  
HETATM   23  C   UNL     1      -5.147  19.699  66.390  1.00  0.00    -0.162 A  
HETATM   24  C   UNL     1      -5.487  19.423  67.712  1.00  0.00    -0.182 A  
HETATM   25  C   UNL     1      -6.797  19.065  68.035  1.00  0.00    -0.255 A  
ENDBRANCH  13  14
ENDBRANCH   7  13
TORSDOF 3
ENDMDL
MODEL      228
REMARK 921   NORMALIZED FREE ENERGY PREDICTED BY IDOCK:    3.90 KCAL/MOL
REMARK 922        TOTAL FREE ENERGY PREDICTED BY IDOCK:    3.51 KCAL/MOL
REMARK 923 INTER-LIGAND FREE ENERGY PREDICTED BY IDOCK:   -2.26 KCAL/MOL
REMARK 924 INTRA-LIGAND FREE ENERGY PREDICTED BY IDOCK:    5.77 KCAL/MOL
REMARK 927      BINDING AFFINITY PREDICTED BY RF-SCORE:    0.00 PKD
ROOT
HETATM    1  C   UNL     1      -7.700   4.942  68.564  1.00  0.00    -0.078 C  
HETATM    2  C   UNL     1      -8.871   5.927  68.432  1.00  0.00    -0.111 C  
HETATM    3  C   UNL     1      -9.800   5.615  69.595  1.00  0.00    -0.243 C  
HETATM    4  C   UNL     1      -9.127   4.470  70.365  1.00  0.00    -0.111 C  
HETATM    5  C   UNL     1      -8.193   5.038  71.436  1.00  0.00    -0.113 C  
HETATM    6  N   UNL     1      -8.316   3.712  69.283  1.00  0.00    -0.063 N  
HETATM    7  C   UNL     1      -6.907   5.705  70.912  1.00  0.00    -0.057 C  
HETATM    8  C   UNL     1      -9.273   2.965  68.321  1.00  0.00    -0.193 C  
HETATM    9  C   UNL     1      -6.594   5.570  69.413  1.00  0.00    -0.050 C  
ENDROOT
BRANCH   6  10
HETATM   10  C   UNL     1      -7.271   2.681  69.856  1.00  0.00    -0.040 C  
HETATM   11  C   UNL     1      -7.035   2.882  71.355  1.00  0.00    -0.032 C  
HETATM   12  C   UNL     1      -5.947   2.715  69.085  1.00  0.00    -0.024 C  
ENDBRANCH   6  10
BRANCH   7  13
HETATM   13  O   UNL     1      -6.923   7.102  71.263  1.00  0.00    -0.059 OA 
BRANCH  13  14
HETATM   14  C   UNL     1      -7.325   7.930  70.240  1.00  0.00    -0.065 C  
HETATM   15  C   UNL     1      -7.945   9.201  70.790  1.00  0.00    -0.192 C  
HETATM   16  O   UNL     1      -7.221   7.644  69.053  1.00  0.00    -0.076 OA 
HETATM   17  C   UNL     1      -7.585  10.371  69.865  1.00  0.00    -0.100 C  
HETATM   18  C   UNL     1      -9.440   9.031  70.976  1.00  0.00    -0.342 A  
HETATM   19  C   UNL     1     -10.009   9.147  72.252  1.00  0.00     0.297 A  
HETATM   20  O   UNL     1      -6.175  10.590  69.895  1.00  0.00    -0.063 OA 
HETATM   21  H   UNL     1      -5.952  11.315  69.322  1.00  0.00     0.000 HD 
HETATM   22  C   UNL     1     -11.380   8.959  72.439  1.00  0.00    -0.173 A  
HETATM   23  C   UNL     1     -12.197   8.654  71.353  1.00  0.00    -0.348 A  
HETATM   24  C   UNL     1     -11.648   8.540  70.079  1.00  0.00     0.182 A  
HETATM   25  C   UNL     1     -10.278   8.730  69.889  1.00  0.00    -0.206 A  
ENDBRANCH  13  14
ENDBRANCH   7  13
TORSDOF 3
ENDMDL
MODEL      229
REMARK 921   NORMALIZED FREE ENERGY PREDICTED BY IDOCK:    4.79 KCAL/MOL
REMARK 922        TOTAL FREE ENERGY PREDICTED BY IDOCK:    4.56 KCAL/MOL
REMARK 923 INTER-LIGAND FREE ENERGY PREDICTED BY IDOCK:    0.39 KCAL/MOL
REMARK 924 INTRA-LIGAND FREE ENERGY PREDICTED BY IDOCK:    4.17 KCAL/MOL
REMARK 927      BINDING AFFINITY PREDICTED BY RF-SCORE:    0.00 PKD
ROOT
HETATM    1  C   UNL     1      -8.607  17.304  66.471  1.00  0.00    -0.264 C  
HETATM    2  C   UNL     1      -7.991  16.543  67.654  1.00  0.00    -0.178 C  
HETATM    3  C   UNL     1      -8.797  16.963  68.874  1.00  0.00    -0.216 C  
HETATM    4  C   UNL     1      -9.858  17.942  68.351  1.00  0.00    -0.355 C  
HETATM    5  C   UNL     1     -11.119  17.177  67.944  1.00  0.00    -0.087 C  
HETATM    6  N   UNL     1      -9.193  18.592  67.110  1.00  0.00    -0.273 N  
HETATM    7  C   UNL     1     -10.997  16.320  66.671  1.00  0.00    -0.016 C  
HETATM    8  C   UNL     1      -8.044  19.533  67.549  1.00  0.00    -0.290 C  
HETATM    9  C   UNL     1      -9.714  16.461  65.837  1.00  0.00    -0.327 C  
ENDROOT
BRANCH   6  10
HETATM   10  C   UNL     1     -10.185  19.402  66.191  1.00  0.00    -0.484 C  
HETATM   11  C   UNL     1      -9.884  19.192  64.705  1.00  0.00     3.480 C  
HETATM   12  C   UNL     1     -10.205  20.894  66.540  1.00  0.00     0.576 C  
ENDBRANCH   6  10
BRANCH   7  13
HETATM   13  O   UNL     1     -11.182  14.934  67.015  1.00  0.00    -0.332 OA 
BRANCH  13  14
HETATM   14  C   UNL     1     -10.296  14.470  67.960  1.00  0.00    -0.229 C  
HETATM   15  C   UNL     1     -11.018  13.664  69.024  1.00  0.00    -0.271 C  
HETATM   16  O   UNL     1      -9.096  14.718  67.945  1.00  0.00    -0.177 OA 
HETATM   17  C   UNL     1     -10.109  12.516  69.480  1.00  0.00     0.950 C  
HETATM   18  C   UNL     1     -11.461  14.558  70.165  1.00  0.00    -0.297 A  
HETATM   19  C   UNL     1     -12.824  14.688  70.469  1.00  0.00    -0.371 A  
HETATM   20  O   UNL     1      -9.895  11.612  68.395  1.00  0.00    -0.193 OA 
HETATM   21  H   UNL     1      -9.332  10.900  68.678  1.00  0.00     0.000 HD 
HETATM   22  C   UNL     1     -13.245  15.535  71.496  1.00  0.00    -0.589 A  
HETATM   23  C   UNL     1     -12.309  16.260  72.231  1.00  0.00    -0.431 A  
HETATM   24  C   UNL     1     -10.953  16.138  71.944  1.00  0.00     0.611 A  
HETATM   25  C   UNL     1     -10.529  15.290  70.919  1.00  0.00     0.151 A  
ENDBRANCH  13  14
ENDBRANCH   7  13
TORSDOF 3
ENDMDL
MODEL      230
REMARK 921   NORMALIZED FREE ENERGY PREDICTED BY IDOCK:   12.02 KCAL/MOL
REMARK 922        TOTAL FREE ENERGY PREDICTED BY IDOCK:   13.05 KCAL/MOL
REMARK 923 INTER-LIGAND FREE ENERGY PREDICTED BY IDOCK:   10.85 KCAL/MOL
REMARK 924 INTRA-LIGAND FREE ENERGY PREDICTED BY IDOCK:    2.19 KCAL/MOL
REMARK 927      BINDING AFFINITY PREDICTED BY RF-SCORE:    0.00 PKD
ROOT
HETATM    1  C   UNL     1     -10.526  17.799  67.783  1.00  0.00    -0.397 C  
HETATM    2  C   UNL     1     -11.470  17.622  68.981  1.00  0.00     1.551 C  
HETATM    3  C   UNL     1     -11.684  16.122  69.114  1.00  0.00    -0.239 C  
HETATM    4  C   UNL     1     -10.845  15.485  67.997  1.00  0.00    -0.300 C  
HETATM    5  C   UNL     1      -9.431  15.196  68.505  1.00  0.00    -0.203 C  
HETATM    6  N   UNL     1     -10.812  16.566  66.886  1.00  0.00    -0.161 N  
HETATM    7  C   UNL     1      -8.542  16.431  68.739  1.00  0.00    -0.250 C  
HETATM    8  C   UNL     1     -12.210  16.704  66.231  1.00  0.00     3.029 C  
HETATM    9  C   UNL     1      -9.075  17.793  68.267  1.00  0.00    -0.281 C  
ENDROOT
BRANCH   6  10
HETATM   10  C   UNL     1      -9.749  16.303  65.753  1.00  0.00    -0.264 C  
HETATM   11  C   UNL     1      -9.403  14.817  65.630  1.00  0.00     0.025 C  
HETATM   12  C   UNL     1      -8.483  17.145  65.945  1.00  0.00    -0.014 C  
ENDBRANCH   6  10
BRANCH   7  13
HETATM   13  O   UNL     1      -8.211  16.517  70.138  1.00  0.00     1.122 OA 
BRANCH  13  14
HETATM   14  C   UNL     1      -7.830  15.318  70.696  1.00  0.00     1.469 C  
HETATM   15  C   UNL     1      -6.354  15.060  70.460  1.00  0.00    -0.012 C  
HETATM   16  O   UNL     1      -8.604  14.559  71.268  1.00  0.00     3.136 OA 
HETATM   17  C   UNL     1      -5.774  14.336  71.682  1.00  0.00    -0.156 C  
HETATM   18  C   UNL     1      -6.142  14.299  69.166  1.00  0.00    -0.095 A  
HETATM   19  C   UNL     1      -5.394  14.871  68.128  1.00  0.00    -0.122 A  
HETATM   20  O   UNL     1      -5.835  15.194  72.822  1.00  0.00     0.548 OA 
HETATM   21  H   UNL     1      -5.476  14.746  73.579  1.00  0.00     0.000 HD 
HETATM   22  C   UNL     1      -5.221  14.193  66.919  1.00  0.00     1.623 A  
HETATM   23  C   UNL     1      -5.794  12.937  66.736  1.00  0.00     1.060 A  
HETATM   24  C   UNL     1      -6.536  12.354  67.759  1.00  0.00    -0.115 A  
HETATM   25  C   UNL     1      -6.708  13.029  68.969  1.00  0.00    -0.099 A  
ENDBRANCH  13  14
ENDBRANCH   7  13
TORSDOF 3
ENDMDL
MODEL      231
REMARK 921   NORMALIZED FREE ENERGY PREDICTED BY IDOCK:   25.10 KCAL/MOL
REMARK 922        TOTAL FREE ENERGY PREDICTED BY IDOCK:   28.42 KCAL/MOL
REMARK 923 INTER-LIGAND FREE ENERGY PREDICTED BY IDOCK:   25.40 KCAL/MOL
REMARK 924 INTRA-LIGAND FREE ENERGY PREDICTED BY IDOCK:    3.02 KCAL/MOL
REMARK 927      BINDING AFFINITY PREDICTED BY RF-SCORE:    0.00 PKD
ROOT
HETATM    1  C   UNL     1      -9.992  17.986  70.085  1.00  0.00     1.334 C  
HETATM    2  C   UNL     1      -8.499  18.174  70.392  1.00  0.00     3.522 C  
HETATM    3  C   UNL     1      -8.112  16.998  71.274  1.00  0.00     7.757 C  
HETATM    4  C   UNL     1      -9.391  16.164  71.436  1.00  0.00     4.770 C  
HETATM    5  C   UNL     1      -9.483  15.125  70.316  1.00  0.00     0.496 C  
HETATM    6  N   UNL     1     -10.536  17.201  71.309  1.00  0.00     1.684 N  
HETATM    7  C   UNL     1      -9.787  15.683  68.913  1.00  0.00    -0.219 C  
HETATM    8  C   UNL     1     -10.566  18.122  72.554  1.00  0.00     3.951 C  
HETATM    9  C   UNL     1     -10.154  17.171  68.802  1.00  0.00    -0.329 C  
ENDROOT
BRANCH   6  10
HETATM   10  C   UNL     1     -11.967  16.570  71.115  1.00  0.00     0.288 C  
HETATM   11  C   UNL     1     -12.182  15.356  72.021  1.00  0.00    -0.460 C  
HETATM   12  C   UNL     1     -12.246  16.217  69.650  1.00  0.00     0.156 C  
ENDBRANCH   6  10
BRANCH   7  13
HETATM   13  O   UNL     1      -8.671  15.409  68.045  1.00  0.00    -0.158 OA 
BRANCH  13  14
HETATM   14  C   UNL     1      -8.406  14.069  67.881  1.00  0.00    -0.168 C  
HETATM   15  C   UNL     1      -8.591  13.658  66.433  1.00  0.00     0.347 C  
HETATM   16  O   UNL     1      -8.100  13.320  68.801  1.00  0.00    -0.067 OA 
HETATM   17  C   UNL     1      -7.551  12.585  66.083  1.00  0.00     1.376 C  
HETATM   18  C   UNL     1     -10.016  13.205  66.182  1.00  0.00    -0.291 A  
HETATM   19  C   UNL     1     -10.821  13.890  65.260  1.00  0.00    -0.337 A  
HETATM   20  O   UNL     1      -6.240  13.146  66.156  1.00  0.00     1.777 OA 
HETATM   21  H   UNL     1      -5.596  12.482  65.939  1.00  0.00     0.000 HD 
HETATM   22  C   UNL     1     -12.145  13.502  65.047  1.00  0.00    -0.428 A  
HETATM   23  C   UNL     1     -12.679  12.425  65.751  1.00  0.00     0.692 A  
HETATM   24  C   UNL     1     -11.891  11.732  66.666  1.00  0.00    -0.036 A  
HETATM   25  C   UNL     1     -10.566  12.117  66.879  1.00  0.00    -0.257 A  
ENDBRANCH  13  14
ENDBRANCH   7  13
TORSDOF 3
ENDMDL
MODEL      232
REMARK 921   NORMALIZED FREE ENERGY PREDICTED BY IDOCK:   27.66 KCAL/MOL
REMARK 922        TOTAL FREE ENERGY PREDICTED BY IDOCK:   31.43 KCAL/MOL
REMARK 923 INTER-LIGAND FREE ENERGY PREDICTED BY IDOCK:   -2.20 KCAL/MOL
REMARK 924 INTRA-LIGAND FREE ENERGY PREDICTED BY IDOCK:   33.63 KCAL/MOL
REMARK 927      BINDING AFFINITY PREDICTED BY RF-SCORE:    0.00 PKD
ROOT
HETATM    1  C   UNL     1      -7.554   4.885  69.415  1.00  0.00    -0.060 C  
HETATM    2  C   UNL     1      -8.733   5.860  69.294  1.00  0.00    -0.119 C  
HETATM    3  C   UNL     1      -9.631   5.566  70.486  1.00  0.00    -0.225 C  
HETATM    4  C   UNL     1      -8.931   4.439  71.260  1.00  0.00    -0.122 C  
HETATM    5  C   UNL     1      -7.973   5.033  72.295  1.00  0.00    -0.108 C  
HETATM    6  N   UNL     1      -8.144   3.665  70.172  1.00  0.00    -0.046 N  
HETATM    7  C   UNL     1      -6.706   5.697  71.726  1.00  0.00    -0.058 C  
HETATM    8  C   UNL     1      -9.120   2.894  69.250  1.00  0.00    -0.133 C  
HETATM    9  C   UNL     1      -6.430   5.534  70.223  1.00  0.00    -0.034 C  
ENDROOT
BRANCH   6  10
HETATM   10  C   UNL     1      -7.078   2.651  70.738  1.00  0.00    -0.033 C  
HETATM   11  C   UNL     1      -6.629   3.026  72.152  1.00  0.00    -0.015 C  
HETATM   12  C   UNL     1      -5.873   2.502  69.803  1.00  0.00    -0.022 C  
ENDBRANCH   6  10
BRANCH   7  13
HETATM   13  O   UNL     1      -6.721   7.100  72.051  1.00  0.00    -0.055 OA 
BRANCH  13  14
HETATM   14  C   UNL     1      -7.679   7.819  71.374  1.00  0.00    -0.082 C  
HETATM   15  C   UNL     1      -8.018   7.153  70.053  1.00  0.00    -0.118 C  
HETATM   16  O   UNL     1      -8.152   8.873  71.782  1.00  0.00    -0.313 OA 
HETATM   17  C   UNL     1      -9.511   7.354  69.764  1.00  0.00    -0.159 C  
HETATM   18  C   UNL     1      -7.125   7.674  68.945  1.00  0.00    -0.079 A  
HETATM   19  C   UNL     1      -6.273   6.798  68.257  1.00  0.00    -0.030 A  
HETATM   20  O   UNL     1     -10.287   6.669  70.748  1.00  0.00    -0.198 OA 
HETATM   21  H   UNL     1     -11.212   6.793  70.569  1.00  0.00     0.000 HD 
HETATM   22  C   UNL     1      -5.422   7.275  67.257  1.00  0.00    -0.028 A  
HETATM   23  C   UNL     1      -5.414   8.629  66.934  1.00  0.00    -0.037 A  
HETATM   24  C   UNL     1      -6.258   9.510  67.604  1.00  0.00    -0.053 A  
HETATM   25  C   UNL     1      -7.110   9.037  68.603  1.00  0.00    -0.071 A  
ENDBRANCH  13  14
ENDBRANCH   7  13
TORSDOF 3
ENDMDL
MODEL      233
REMARK 921   NORMALIZED FREE ENERGY PREDICTED BY IDOCK:   27.87 KCAL/MOL
REMARK 922        TOTAL FREE ENERGY PREDICTED BY IDOCK:   31.68 KCAL/MOL
REMARK 923 INTER-LIGAND FREE ENERGY PREDICTED BY IDOCK:   29.55 KCAL/MOL
REMARK 924 INTRA-LIGAND FREE ENERGY PREDICTED BY IDOCK:    2.13 KCAL/MOL
REMARK 927      BINDING AFFINITY PREDICTED BY RF-SCORE:    0.00 PKD
ROOT
HETATM    1  C   UNL     1     -10.641  17.440  66.930  1.00  0.00    -0.216 C  
HETATM    2  C   UNL     1     -10.179  15.994  67.157  1.00  0.00    -0.278 C  
HETATM    3  C   UNL     1      -9.059  15.761  66.155  1.00  0.00    -0.377 C  
HETATM    4  C   UNL     1      -8.905  17.086  65.393  1.00  0.00     1.240 C  
HETATM    5  C   UNL     1      -7.898  17.987  66.111  1.00  0.00    -0.245 C  
HETATM    6  N   UNL     1     -10.322  17.713  65.436  1.00  0.00     0.017 N  
HETATM    7  C   UNL     1      -8.373  18.584  67.449  1.00  0.00    -0.256 C  
HETATM    8  C   UNL     1     -11.292  16.908  64.535  1.00  0.00     0.450 C  
HETATM    9  C   UNL     1      -9.847  18.382  67.836  1.00  0.00    -0.348 C  
ENDROOT
BRANCH   6  10
HETATM   10  C   UNL     1     -10.376  19.228  65.007  1.00  0.00     1.453 C  
HETATM   11  C   UNL     1      -9.057  19.948  65.292  1.00  0.00     0.996 C  
HETATM   12  C   UNL     1     -11.553  19.967  65.652  1.00  0.00     1.387 C  
ENDBRANCH   6  10
BRANCH   7  13
HETATM   13  O   UNL     1      -7.537  18.085  68.510  1.00  0.00    -0.273 OA 
BRANCH  13  14
HETATM   14  C   UNL     1      -7.795  18.652  69.737  1.00  0.00     0.773 C  
HETATM   15  C   UNL     1      -7.720  17.611  70.837  1.00  0.00     5.319 C  
HETATM   16  O   UNL     1      -8.083  19.833  69.893  1.00  0.00     0.273 OA 
HETATM   17  C   UNL     1      -7.143  18.262  72.101  1.00  0.00     6.380 C  
HETATM   18  C   UNL     1      -9.077  16.974  71.067  1.00  0.00     5.836 A  
HETATM   19  C   UNL     1      -9.251  15.597  70.867  1.00  0.00     2.252 A  
HETATM   20  O   UNL     1      -5.794  18.662  71.861  1.00  0.00     0.199 OA 
HETATM   21  H   UNL     1      -5.436  19.066  72.643  1.00  0.00     0.000 HD 
HETATM   22  C   UNL     1     -10.504  15.007  71.043  1.00  0.00     0.410 A  
HETATM   23  C   UNL     1     -11.596  15.785  71.420  1.00  0.00    -0.511 A  
HETATM   24  C   UNL     1     -11.438  17.152  71.627  1.00  0.00     1.077 A  
HETATM   25  C   UNL     1     -10.186  17.745  71.454  1.00  0.00     3.994 A  
ENDBRANCH  13  14
ENDBRANCH   7  13
TORSDOF 3
ENDMDL
MODEL      234
REMARK 921   NORMALIZED FREE ENERGY PREDICTED BY IDOCK:   35.72 KCAL/MOL
REMARK 922        TOTAL FREE ENERGY PREDICTED BY IDOCK:   40.91 KCAL/MOL
REMARK 923 INTER-LIGAND FREE ENERGY PREDICTED BY IDOCK:   38.21 KCAL/MOL
REMARK 924 INTRA-LIGAND FREE ENERGY PREDICTED BY IDOCK:    2.70 KCAL/MOL
REMARK 927      BINDING AFFINITY PREDICTED BY RF-SCORE:    0.00 PKD
ROOT
HETATM    1  C   UNL     1     -11.213  18.773  70.067  1.00  0.00     3.764 C  
HETATM    2  C   UNL     1     -10.925  20.244  70.401  1.00  0.00     2.501 C  
HETATM    3  C   UNL     1      -9.595  20.242  71.138  1.00  0.00     1.990 C  
HETATM    4  C   UNL     1      -9.156  18.772  71.193  1.00  0.00     5.389 C  
HETATM    5  C   UNL     1      -8.321  18.430  69.958  1.00  0.00     1.819 C  
HETATM    6  N   UNL     1     -10.488  17.979  71.186  1.00  0.00     2.369 N  
HETATM    7  C   UNL     1      -9.097  18.353  68.630  1.00  0.00    -0.294 C  
HETATM    8  C   UNL     1     -11.231  18.167  72.532  1.00  0.00     2.848 C  
HETATM    9  C   UNL     1     -10.631  18.434  68.695  1.00  0.00     0.006 C  
ENDROOT
BRANCH   6  10
HETATM   10  C   UNL     1     -10.325  16.436  70.912  1.00  0.00     1.218 C  
HETATM   11  C   UNL     1      -8.853  16.025  70.823  1.00  0.00     2.894 C  
HETATM   12  C   UNL     1     -11.094  15.989  69.664  1.00  0.00    -0.331 C  
ENDBRANCH   6  10
BRANCH   7  13
HETATM   13  O   UNL     1      -8.612  19.376  67.740  1.00  0.00    -0.296 OA 
BRANCH  13  14
HETATM   14  C   UNL     1      -8.295  18.918  66.482  1.00  0.00    -0.302 C  
HETATM   15  C   UNL     1      -9.513  18.940  65.578  1.00  0.00     0.885 C  
HETATM   16  O   UNL     1      -7.181  18.515  66.167  1.00  0.00    -0.238 OA 
HETATM   17  C   UNL     1      -9.070  19.296  64.154  1.00  0.00     8.371 C  
HETATM   18  C   UNL     1     -10.262  17.624  65.654  1.00  0.00    -0.057 A  
HETATM   19  C   UNL     1     -11.588  17.594  66.111  1.00  0.00     1.989 A  
HETATM   20  O   UNL     1      -8.551  20.626  64.130  1.00  0.00     1.153 OA 
HETATM   21  H   UNL     1      -8.277  20.847  63.247  1.00  0.00     0.000 HD 
HETATM   22  C   UNL     1     -12.274  16.383  66.216  1.00  0.00     2.509 A  
HETATM   23  C   UNL     1     -11.645  15.190  65.867  1.00  0.00    -0.086 A  
HETATM   24  C   UNL     1     -10.331  15.205  65.408  1.00  0.00    -0.415 A  
HETATM   25  C   UNL     1      -9.643  16.414  65.299  1.00  0.00     0.524 A  
ENDBRANCH  13  14
ENDBRANCH   7  13
TORSDOF 3
ENDMDL
MODEL      235
REMARK 921   NORMALIZED FREE ENERGY PREDICTED BY IDOCK:   65.86 KCAL/MOL
REMARK 922        TOTAL FREE ENERGY PREDICTED BY IDOCK:   76.33 KCAL/MOL
REMARK 923 INTER-LIGAND FREE ENERGY PREDICTED BY IDOCK:   52.07 KCAL/MOL
REMARK 924 INTRA-LIGAND FREE ENERGY PREDICTED BY IDOCK:   24.27 KCAL/MOL
REMARK 927      BINDING AFFINITY PREDICTED BY RF-SCORE:    0.00 PKD
ROOT
HETATM    1  C   UNL     1      -7.912  18.258  71.014  1.00  0.00     5.932 C  
HETATM    2  C   UNL     1      -8.045  16.786  70.598  1.00  0.00     4.000 C  
HETATM    3  C   UNL     1      -9.533  16.553  70.391  1.00  0.00     1.838 C  
HETATM    4  C   UNL     1     -10.206  17.902  70.683  1.00  0.00     2.229 C  
HETATM    5  C   UNL     1     -10.292  18.731  69.400  1.00  0.00     0.335 C  
HETATM    6  N   UNL     1      -9.262  18.582  71.707  1.00  0.00     8.056 N  
HETATM    7  C   UNL     1      -8.955  19.288  68.876  1.00  0.00    -0.301 C  
HETATM    8  C   UNL     1      -9.341  17.856  73.073  1.00  0.00    12.398 C  
HETATM    9  C   UNL     1      -7.717  19.128  69.771  1.00  0.00     0.390 C  
ENDROOT
BRANCH   6  10
HETATM   10  C   UNL     1      -9.545  20.116  71.934  1.00  0.00     2.727 C  
HETATM   11  C   UNL     1      -8.345  20.981  71.541  1.00  0.00     3.533 C  
HETATM   12  C   UNL     1      -9.987  20.413  73.371  1.00  0.00     5.623 C  
ENDBRANCH   6  10
BRANCH   7  13
HETATM   13  O   UNL     1      -8.678  18.712  67.585  1.00  0.00    -0.268 OA 
BRANCH  13  14
HETATM   14  C   UNL     1      -7.400  18.218  67.457  1.00  0.00    -0.210 C  
HETATM   15  C   UNL     1      -7.412  16.701  67.408  1.00  0.00    -0.188 C  
HETATM   16  O   UNL     1      -6.398  18.923  67.428  1.00  0.00    -0.192 OA 
HETATM   17  C   UNL     1      -6.306  16.225  66.458  1.00  0.00     0.540 C  
HETATM   18  C   UNL     1      -7.286  16.118  68.802  1.00  0.00    -0.184 A  
HETATM   19  C   UNL     1      -8.311  15.317  69.325  1.00  0.00    -0.243 A  
HETATM   20  O   UNL     1      -6.599  16.653  65.127  1.00  0.00     2.170 OA 
HETATM   21  H   UNL     1      -5.914  16.358  64.538  1.00  0.00     0.000 HD 
HETATM   22  C   UNL     1      -8.220  14.804  70.620  1.00  0.00     1.803 A  
HETATM   23  C   UNL     1      -7.105  15.084  71.406  1.00  0.00     1.798 A  
HETATM   24  C   UNL     1      -6.077  15.874  70.899  1.00  0.00     0.488 A  
HETATM   25  C   UNL     1      -6.165  16.387  69.604  1.00  0.00    -0.210 A  
ENDBRANCH  13  14
ENDBRANCH   7  13
TORSDOF 3
ENDMDL
