MODEL        1
REMARK 921   NORMALIZED FREE ENERGY PREDICTED BY IDOCK:   -7.35 KCAL/MOL
REMARK 922        TOTAL FREE ENERGY PREDICTED BY IDOCK:  -12.30 KCAL/MOL
REMARK 923 INTER-LIGAND FREE ENERGY PREDICTED BY IDOCK:  -10.36 KCAL/MOL
REMARK 924 INTRA-LIGAND FREE ENERGY PREDICTED BY IDOCK:   -1.95 KCAL/MOL
REMARK 927      BINDING AFFINITY PREDICTED BY RF-SCORE:    0.00 PKD
ROOT
HETATM    1  C   UNL     1      -8.319  12.670  67.147  1.00  0.00    -0.172 C  
HETATM    2  C   UNL     1      -7.918  13.067  68.553  1.00  0.00    -0.090 C  
ENDROOT
BRANCH   2   3
HETATM    3  C   UNL     1      -7.498  14.533  68.616  1.00  0.00    -0.128 C  
BRANCH   3   4
HETATM    4  C   UNL     1      -7.613  15.216  67.258  1.00  0.00    -0.236 C  
BRANCH   4   5
HETATM    5  C   UNL     1      -7.751  16.702  67.432  1.00  0.00    -0.163 C  
HETATM    6  N   UNL     1      -6.772  17.375  67.958  1.00  0.00    -0.175 NA 
HETATM    7  C   UNL     1      -7.216  18.789  67.907  1.00  0.00    -0.239 C  
HETATM    8  C   UNL     1      -8.684  18.675  67.535  1.00  0.00    -0.270 C  
HETATM    9  C   UNL     1      -6.444  19.523  66.805  1.00  0.00    -0.193 C  
HETATM   10  O   UNL     1      -9.538  19.545  67.628  1.00  0.00    -0.312 OA 
HETATM   11  N   UNL     1      -8.847  17.395  67.068  1.00  0.00    -0.228 N  
HETATM   12  C   UNL     1      -6.310  20.937  67.348  1.00  0.00    -0.382 C  
HETATM   13  C   UNL     1      -6.025  20.708  68.823  1.00  0.00    -0.383 C  
HETATM   14  C   UNL     1      -6.912  19.523  69.212  1.00  0.00    -0.385 C  
BRANCH  11  15
HETATM   15  C   UNL     1     -10.094  16.952  66.451  1.00  0.00    -0.322 C  
BRANCH  15  16
HETATM   16  C   UNL     1     -10.847  15.961  67.320  1.00  0.00    -0.279 A  
HETATM   17  C   UNL     1     -10.912  16.120  68.703  1.00  0.00    -0.336 A  
HETATM   18  C   UNL     1     -11.374  15.081  69.525  1.00  0.00    -0.308 A  
HETATM   19  C   UNL     1     -11.855  13.866  68.997  1.00  0.00    -0.397 A  
HETATM   20  C   UNL     1     -11.987  13.819  67.602  1.00  0.00    -0.392 A  
HETATM   21  C   UNL     1     -11.443  14.818  66.774  1.00  0.00    -0.343 A  
BRANCH  19  22
HETATM   22  C   UNL     1     -12.134  12.697  69.900  1.00  0.00    -0.322 A  
HETATM   23  C   UNL     1     -11.831  11.393  69.431  1.00  0.00    -0.419 A  
HETATM   24  C   UNL     1     -12.161  10.232  70.141  1.00  0.00    -0.279 A  
HETATM   25  C   UNL     1     -12.771  10.330  71.377  1.00  0.00    -0.547 A  
HETATM   26  C   UNL     1     -13.051  11.589  71.897  1.00  0.00    -0.492 A  
HETATM   27  C   UNL     1     -12.761  12.778  71.177  1.00  0.00    -0.355 A  
BRANCH  27  28
HETATM   28  C   UNL     1     -13.190  14.016  71.825  1.00  0.00    -0.375 A  
HETATM   29  N   UNL     1     -14.391  14.594  71.606  1.00  0.00    -0.494 NA 
HETATM   30  N   UNL     1     -14.279  15.679  72.384  1.00  0.00    -0.530 NA 
HETATM   31  H   UNL     1     -15.030  16.363  72.467  1.00  0.00     0.000 HD 
HETATM   32  N   UNL     1     -13.127  15.811  73.045  1.00  0.00    -0.498 NA 
HETATM   33  N   UNL     1     -12.404  14.766  72.667  1.00  0.00    -0.312 NA 
ENDBRANCH  27  28
ENDBRANCH  19  22
ENDBRANCH  15  16
ENDBRANCH  11  15
ENDBRANCH   4   5
ENDBRANCH   3   4
ENDBRANCH   2   3
TORSDOF 7
ENDMDL
MODEL        2
REMARK 921   NORMALIZED FREE ENERGY PREDICTED BY IDOCK:   -7.25 KCAL/MOL
REMARK 922        TOTAL FREE ENERGY PREDICTED BY IDOCK:  -12.16 KCAL/MOL
REMARK 923 INTER-LIGAND FREE ENERGY PREDICTED BY IDOCK:  -10.57 KCAL/MOL
REMARK 924 INTRA-LIGAND FREE ENERGY PREDICTED BY IDOCK:   -1.59 KCAL/MOL
REMARK 927      BINDING AFFINITY PREDICTED BY RF-SCORE:    0.00 PKD
ROOT
HETATM    1  C   UNL     1     -13.365  10.171  71.871  1.00  0.00    -0.505 C  
HETATM    2  C   UNL     1     -13.963   8.805  72.141  1.00  0.00    -0.522 C  
ENDROOT
BRANCH   2   3
HETATM    3  C   UNL     1     -13.096   7.694  71.555  1.00  0.00    -0.379 C  
BRANCH   3   4
HETATM    4  C   UNL     1     -11.609   7.998  71.701  1.00  0.00    -0.317 C  
BRANCH   4   5
HETATM    5  C   UNL     1     -10.856   7.509  70.495  1.00  0.00    -0.240 C  
HETATM    6  N   UNL     1     -11.121   6.331  70.015  1.00  0.00    -0.355 NA 
HETATM    7  C   UNL     1     -10.263   6.214  68.810  1.00  0.00    -0.184 C  
HETATM    8  C   UNL     1      -9.329   7.406  68.936  1.00  0.00    -0.145 C  
HETATM    9  C   UNL     1     -11.132   6.351  67.555  1.00  0.00    -0.401 C  
HETATM   10  O   UNL     1      -8.283   7.590  68.331  1.00  0.00    -0.123 OA 
HETATM   11  N   UNL     1      -9.909   8.231  69.866  1.00  0.00    -0.184 N  
HETATM   12  C   UNL     1     -10.442   5.447  66.546  1.00  0.00    -0.352 C  
HETATM   13  C   UNL     1     -10.036   4.249  67.387  1.00  0.00    -0.120 C  
HETATM   14  C   UNL     1      -9.592   4.845  68.725  1.00  0.00    -0.219 C  
BRANCH  11  15
HETATM   15  C   UNL     1      -9.392   9.569  70.139  1.00  0.00    -0.247 C  
BRANCH  15  16
HETATM   16  C   UNL     1      -9.783  10.568  69.064  1.00  0.00    -0.221 A  
HETATM   17  C   UNL     1      -8.934  10.844  67.994  1.00  0.00    -0.145 A  
HETATM   18  C   UNL     1      -9.171  11.943  67.154  1.00  0.00    -0.183 A  
HETATM   19  C   UNL     1     -10.301  12.771  67.305  1.00  0.00    -0.235 A  
HETATM   20  C   UNL     1     -11.251  12.339  68.242  1.00  0.00    -0.315 A  
HETATM   21  C   UNL     1     -10.977  11.296  69.146  1.00  0.00    -0.292 A  
BRANCH  19  22
HETATM   22  C   UNL     1     -10.414  14.059  66.539  1.00  0.00    -0.281 A  
HETATM   23  C   UNL     1      -9.888  15.241  67.121  1.00  0.00    -0.225 A  
HETATM   24  C   UNL     1     -10.046  16.509  66.547  1.00  0.00    -0.307 A  
HETATM   25  C   UNL     1     -10.702  16.642  65.338  1.00  0.00    -0.228 A  
HETATM   26  C   UNL     1     -11.199  15.505  64.708  1.00  0.00    -0.399 A  
HETATM   27  C   UNL     1     -11.085  14.216  65.291  1.00  0.00    -0.331 A  
BRANCH  27  28
HETATM   28  C   UNL     1     -11.730  13.138  64.543  1.00  0.00    -0.371 A  
HETATM   29  N   UNL     1     -11.146  12.498  63.507  1.00  0.00    -0.462 NA 
HETATM   30  N   UNL     1     -12.130  11.656  63.162  1.00  0.00    -0.950 NA 
HETATM   31  H   UNL     1     -12.030  10.996  62.391  1.00  0.00     0.000 HD 
HETATM   32  N   UNL     1     -13.249  11.732  63.887  1.00  0.00    -0.468 NA 
HETATM   33  N   UNL     1     -13.017  12.705  64.756  1.00  0.00    -0.867 NA 
ENDBRANCH  27  28
ENDBRANCH  19  22
ENDBRANCH  15  16
ENDBRANCH  11  15
ENDBRANCH   4   5
ENDBRANCH   3   4
ENDBRANCH   2   3
TORSDOF 7
ENDMDL
MODEL        3
REMARK 921   NORMALIZED FREE ENERGY PREDICTED BY IDOCK:   -7.22 KCAL/MOL
REMARK 922        TOTAL FREE ENERGY PREDICTED BY IDOCK:  -12.13 KCAL/MOL
REMARK 923 INTER-LIGAND FREE ENERGY PREDICTED BY IDOCK:   -9.62 KCAL/MOL
REMARK 924 INTRA-LIGAND FREE ENERGY PREDICTED BY IDOCK:   -2.51 KCAL/MOL
REMARK 927      BINDING AFFINITY PREDICTED BY RF-SCORE:    0.00 PKD
ROOT
HETATM    1  C   UNL     1     -12.461  12.583  64.668  1.00  0.00    -0.539 C  
HETATM    2  C   UNL     1     -10.962  12.563  64.448  1.00  0.00    -0.378 C  
ENDROOT
BRANCH   2   3
HETATM    3  C   UNL     1     -10.330  13.901  64.820  1.00  0.00    -0.419 C  
BRANCH   3   4
HETATM    4  C   UNL     1     -11.379  14.938  65.204  1.00  0.00    -0.379 C  
BRANCH   4   5
HETATM    5  C   UNL     1     -10.753  16.038  66.014  1.00  0.00    -0.267 C  
HETATM    6  N   UNL     1     -10.046  16.948  65.412  1.00  0.00    -0.590 NA 
HETATM    7  C   UNL     1      -9.655  17.893  66.487  1.00  0.00    -0.313 C  
HETATM    8  C   UNL     1     -10.041  17.150  67.755  1.00  0.00    -0.306 C  
HETATM    9  C   UNL     1     -10.477  19.180  66.354  1.00  0.00    -0.548 C  
HETATM   10  O   UNL     1      -9.682  17.402  68.895  1.00  0.00    -0.283 OA 
HETATM   11  N   UNL     1     -10.882  16.144  67.350  1.00  0.00    -0.302 N  
HETATM   12  C   UNL     1      -9.523  20.260  66.836  1.00  0.00    -0.531 C  
HETATM   13  C   UNL     1      -8.192  19.826  66.244  1.00  0.00    -0.372 C  
HETATM   14  C   UNL     1      -8.188  18.302  66.373  1.00  0.00    -0.276 C  
BRANCH  11  15
HETATM   15  C   UNL     1     -11.604  15.310  68.308  1.00  0.00    -0.341 C  
BRANCH  15  16
HETATM   16  C   UNL     1     -11.080  13.885  68.340  1.00  0.00    -0.278 A  
HETATM   17  C   UNL     1      -9.712  13.620  68.381  1.00  0.00    -0.217 A  
HETATM   18  C   UNL     1      -9.223  12.327  68.147  1.00  0.00    -0.197 A  
HETATM   19  C   UNL     1     -10.081  11.230  67.930  1.00  0.00    -0.195 A  
HETATM   20  C   UNL     1     -11.448  11.481  68.117  1.00  0.00    -0.385 A  
HETATM   21  C   UNL     1     -11.947  12.788  68.260  1.00  0.00    -0.276 A  
BRANCH  19  22
HETATM   22  C   UNL     1      -9.532   9.909  67.468  1.00  0.00    -0.173 A  
HETATM   23  C   UNL     1      -9.227   9.748  66.091  1.00  0.00    -0.221 A  
HETATM   24  C   UNL     1      -8.825   8.526  65.537  1.00  0.00    -0.196 A  
HETATM   25  C   UNL     1      -8.668   7.419  66.350  1.00  0.00    -0.154 A  
HETATM   26  C   UNL     1      -8.916   7.539  67.713  1.00  0.00    -0.131 A  
HETATM   27  C   UNL     1      -9.362   8.758  68.289  1.00  0.00    -0.143 A  
BRANCH  27  28
HETATM   28  C   UNL     1      -9.655   8.696  69.720  1.00  0.00    -0.171 A  
HETATM   29  N   UNL     1     -10.785   8.160  70.227  1.00  0.00    -0.233 NA 
HETATM   30  N   UNL     1     -10.587   8.375  71.535  1.00  0.00    -0.225 NA 
HETATM   31  H   UNL     1     -11.265   8.084  72.238  1.00  0.00     0.000 HD 
HETATM   32  N   UNL     1      -9.450   8.993  71.862  1.00  0.00    -0.344 NA 
HETATM   33  N   UNL     1      -8.857   9.237  70.701  1.00  0.00    -0.231 NA 
ENDBRANCH  27  28
ENDBRANCH  19  22
ENDBRANCH  15  16
ENDBRANCH  11  15
ENDBRANCH   4   5
ENDBRANCH   3   4
ENDBRANCH   2   3
TORSDOF 7
ENDMDL
MODEL        4
REMARK 921   NORMALIZED FREE ENERGY PREDICTED BY IDOCK:   -7.18 KCAL/MOL
REMARK 922        TOTAL FREE ENERGY PREDICTED BY IDOCK:  -12.06 KCAL/MOL
REMARK 923 INTER-LIGAND FREE ENERGY PREDICTED BY IDOCK:  -10.22 KCAL/MOL
REMARK 924 INTRA-LIGAND FREE ENERGY PREDICTED BY IDOCK:   -1.84 KCAL/MOL
REMARK 927      BINDING AFFINITY PREDICTED BY RF-SCORE:    0.00 PKD
ROOT
HETATM    1  C   UNL     1     -12.024  12.613  63.658  1.00  0.00    -0.615 C  
HETATM    2  C   UNL     1     -12.751  12.959  64.942  1.00  0.00    -0.474 C  
ENDROOT
BRANCH   2   3
HETATM    3  C   UNL     1     -12.512  14.412  65.341  1.00  0.00    -0.357 C  
BRANCH   3   4
HETATM    4  C   UNL     1     -11.332  15.020  64.590  1.00  0.00    -0.357 C  
BRANCH   4   5
HETATM    5  C   UNL     1     -10.561  15.943  65.491  1.00  0.00    -0.401 C  
HETATM    6  N   UNL     1     -10.876  17.203  65.530  1.00  0.00    -0.386 NA 
HETATM    7  C   UNL     1      -9.977  17.784  66.557  1.00  0.00    -0.346 C  
HETATM    8  C   UNL     1      -8.978  16.668  66.810  1.00  0.00    -0.237 C  
HETATM    9  C   UNL     1     -10.782  18.075  67.829  1.00  0.00    -0.350 C  
HETATM   10  O   UNL     1      -7.898  16.760  67.375  1.00  0.00    -0.161 OA 
HETATM   11  N   UNL     1      -9.545  15.539  66.276  1.00  0.00    -0.283 N  
HETATM   12  C   UNL     1     -10.106  19.311  68.400  1.00  0.00    -0.518 C  
HETATM   13  C   UNL     1      -9.810  20.139  67.161  1.00  0.00    -0.586 C  
HETATM   14  C   UNL     1      -9.388  19.118  66.102  1.00  0.00    -0.266 C  
BRANCH  11  15
HETATM   15  C   UNL     1      -8.959  14.215  66.472  1.00  0.00    -0.112 C  
BRANCH  15  16
HETATM   16  C   UNL     1      -9.854  13.305  67.294  1.00  0.00    -0.233 A  
HETATM   17  C   UNL     1     -10.468  13.759  68.460  1.00  0.00    -0.248 A  
HETATM   18  C   UNL     1     -11.072  12.860  69.351  1.00  0.00    -0.131 A  
HETATM   19  C   UNL     1     -11.150  11.479  69.083  1.00  0.00    -0.316 A  
HETATM   20  C   UNL     1     -10.726  11.082  67.807  1.00  0.00    -0.270 A  
HETATM   21  C   UNL     1     -10.038  11.960  66.950  1.00  0.00    -0.229 A  
BRANCH  19  22
HETATM   22  C   UNL     1     -11.602  10.518  70.147  1.00  0.00    -0.408 A  
HETATM   23  C   UNL     1     -12.898  10.683  70.702  1.00  0.00    -0.404 A  
HETATM   24  C   UNL     1     -13.370   9.920  71.776  1.00  0.00    -0.501 A  
HETATM   25  C   UNL     1     -12.578   8.923  72.315  1.00  0.00    -0.455 A  
HETATM   26  C   UNL     1     -11.316   8.696  71.776  1.00  0.00    -0.393 A  
HETATM   27  C   UNL     1     -10.802   9.484  70.713  1.00  0.00    -0.386 A  
BRANCH  27  28
HETATM   28  C   UNL     1      -9.430   9.172  70.317  1.00  0.00    -0.219 A  
HETATM   29  N   UNL     1      -9.120   8.382  69.267  1.00  0.00    -0.150 NA 
HETATM   30  N   UNL     1      -7.783   8.386  69.351  1.00  0.00    -0.095 NA 
HETATM   31  H   UNL     1      -7.198   7.877  68.688  1.00  0.00     0.000 HD 
HETATM   32  N   UNL     1      -7.260   9.098  70.352  1.00  0.00    -0.071 NA 
HETATM   33  N   UNL     1      -8.310   9.579  71.002  1.00  0.00    -0.265 NA 
ENDBRANCH  27  28
ENDBRANCH  19  22
ENDBRANCH  15  16
ENDBRANCH  11  15
ENDBRANCH   4   5
ENDBRANCH   3   4
ENDBRANCH   2   3
TORSDOF 7
ENDMDL
MODEL        5
REMARK 921   NORMALIZED FREE ENERGY PREDICTED BY IDOCK:   -7.07 KCAL/MOL
REMARK 922        TOTAL FREE ENERGY PREDICTED BY IDOCK:  -11.92 KCAL/MOL
REMARK 923 INTER-LIGAND FREE ENERGY PREDICTED BY IDOCK:   -9.88 KCAL/MOL
REMARK 924 INTRA-LIGAND FREE ENERGY PREDICTED BY IDOCK:   -2.04 KCAL/MOL
REMARK 927      BINDING AFFINITY PREDICTED BY RF-SCORE:    0.00 PKD
ROOT
HETATM    1  C   UNL     1     -13.461  15.330  71.531  1.00  0.00    -0.577 C  
HETATM    2  C   UNL     1     -12.640  14.423  70.637  1.00  0.00    -0.424 C  
ENDROOT
BRANCH   2   3
HETATM    3  C   UNL     1     -11.427  15.154  70.069  1.00  0.00    -0.315 C  
BRANCH   3   4
HETATM    4  C   UNL     1     -11.780  15.956  68.821  1.00  0.00    -0.355 C  
BRANCH   4   5
HETATM    5  C   UNL     1     -10.549  16.607  68.256  1.00  0.00    -0.338 C  
HETATM    6  N   UNL     1      -9.972  17.562  68.921  1.00  0.00    -0.325 NA 
HETATM    7  C   UNL     1      -8.774  17.910  68.118  1.00  0.00    -0.268 C  
HETATM    8  C   UNL     1      -9.009  17.171  66.812  1.00  0.00    -0.241 C  
HETATM    9  C   UNL     1      -7.521  17.368  68.817  1.00  0.00    -0.258 C  
HETATM   10  O   UNL     1      -8.436  17.353  65.748  1.00  0.00    -0.532 OA 
HETATM   11  N   UNL     1      -9.995  16.255  67.080  1.00  0.00    -0.251 N  
HETATM   12  C   UNL     1      -6.453  18.394  68.473  1.00  0.00    -0.229 C  
HETATM   13  C   UNL     1      -7.201  19.712  68.583  1.00  0.00    -0.371 C  
HETATM   14  C   UNL     1      -8.588  19.422  68.007  1.00  0.00    -0.362 C  
BRANCH  11  15
HETATM   15  C   UNL     1     -10.382  15.233  66.111  1.00  0.00    -0.302 C  
BRANCH  15  16
HETATM   16  C   UNL     1     -10.484  13.854  66.738  1.00  0.00    -0.270 A  
HETATM   17  C   UNL     1     -11.656  13.105  66.646  1.00  0.00    -0.403 A  
HETATM   18  C   UNL     1     -11.842  11.962  67.437  1.00  0.00    -0.239 A  
HETATM   19  C   UNL     1     -10.841  11.478  68.302  1.00  0.00    -0.257 A  
HETATM   20  C   UNL     1      -9.596  12.117  68.208  1.00  0.00    -0.210 A  
HETATM   21  C   UNL     1      -9.432  13.315  67.489  1.00  0.00    -0.220 A  
BRANCH  19  22
HETATM   22  C   UNL     1     -11.145  10.389  69.292  1.00  0.00    -0.303 A  
HETATM   23  C   UNL     1     -11.842  10.730  70.480  1.00  0.00    -0.453 A  
HETATM   24  C   UNL     1     -12.070   9.818  71.518  1.00  0.00    -0.493 A  
HETATM   25  C   UNL     1     -11.648   8.508  71.391  1.00  0.00    -0.344 A  
HETATM   26  C   UNL     1     -10.997   8.117  70.226  1.00  0.00    -0.240 A  
HETATM   27  C   UNL     1     -10.720   9.034  69.178  1.00  0.00    -0.176 A  
BRANCH  27  28
HETATM   28  C   UNL     1      -9.958   8.484  68.058  1.00  0.00    -0.183 A  
HETATM   29  N   UNL     1     -10.463   8.339  66.814  1.00  0.00    -0.301 NA 
HETATM   30  N   UNL     1      -9.414   7.781  66.194  1.00  0.00    -0.388 NA 
HETATM   31  H   UNL     1      -9.441   7.531  65.206  1.00  0.00     0.000 HD 
HETATM   32  N   UNL     1      -8.331   7.572  66.946  1.00  0.00    -0.122 NA 
HETATM   33  N   UNL     1      -8.680   7.988  68.156  1.00  0.00    -0.126 NA 
ENDBRANCH  27  28
ENDBRANCH  19  22
ENDBRANCH  15  16
ENDBRANCH  11  15
ENDBRANCH   4   5
ENDBRANCH   3   4
ENDBRANCH   2   3
TORSDOF 7
ENDMDL
MODEL        6
REMARK 921   NORMALIZED FREE ENERGY PREDICTED BY IDOCK:   -6.89 KCAL/MOL
REMARK 922        TOTAL FREE ENERGY PREDICTED BY IDOCK:  -11.65 KCAL/MOL
REMARK 923 INTER-LIGAND FREE ENERGY PREDICTED BY IDOCK:  -10.43 KCAL/MOL
REMARK 924 INTRA-LIGAND FREE ENERGY PREDICTED BY IDOCK:   -1.23 KCAL/MOL
REMARK 927      BINDING AFFINITY PREDICTED BY RF-SCORE:    0.00 PKD
ROOT
HETATM    1  C   UNL     1     -13.298  15.655  72.788  1.00  0.00    -0.640 C  
HETATM    2  C   UNL     1     -11.987  16.074  72.154  1.00  0.00    -0.629 C  
ENDROOT
BRANCH   2   3
HETATM    3  C   UNL     1     -11.534  15.067  71.101  1.00  0.00    -0.355 C  
BRANCH   3   4
HETATM    4  C   UNL     1     -12.285  15.243  69.786  1.00  0.00    -0.326 C  
BRANCH   4   5
HETATM    5  C   UNL     1     -11.316  15.364  68.644  1.00  0.00    -0.330 C  
HETATM    6  N   UNL     1     -10.433  16.317  68.658  1.00  0.00    -0.265 NA 
HETATM    7  C   UNL     1      -9.616  16.091  67.440  1.00  0.00    -0.225 C  
HETATM    8  C   UNL     1     -10.415  15.047  66.679  1.00  0.00    -0.284 C  
HETATM    9  C   UNL     1      -8.250  15.524  67.845  1.00  0.00    -0.149 C  
HETATM   10  O   UNL     1     -10.288  14.733  65.505  1.00  0.00    -0.315 OA 
HETATM   11  N   UNL     1     -11.303  14.529  67.588  1.00  0.00    -0.321 N  
HETATM   12  C   UNL     1      -7.306  16.098  66.801  1.00  0.00    -0.220 C  
HETATM   13  C   UNL     1      -7.816  17.519  66.626  1.00  0.00    -0.285 C  
HETATM   14  C   UNL     1      -9.340  17.396  66.695  1.00  0.00    -0.279 C  
BRANCH  11  15
HETATM   15  C   UNL     1     -12.137  13.371  67.277  1.00  0.00    -0.304 C  
BRANCH  15  16
HETATM   16  C   UNL     1     -11.756  12.150  68.097  1.00  0.00    -0.402 A  
HETATM   17  C   UNL     1     -12.409  11.853  69.292  1.00  0.00    -0.016 A  
HETATM   18  C   UNL     1     -11.892  10.892  70.173  1.00  0.00    -0.438 A  
HETATM   19  C   UNL     1     -10.742  10.138  69.868  1.00  0.00    -0.340 A  
HETATM   20  C   UNL     1     -10.237  10.297  68.569  1.00  0.00    -0.192 A  
HETATM   21  C   UNL     1     -10.694  11.321  67.719  1.00  0.00    -0.265 A  
BRANCH  19  22
HETATM   22  C   UNL     1     -10.089   9.279  70.915  1.00  0.00    -0.373 A  
HETATM   23  C   UNL     1      -8.673   9.180  70.923  1.00  0.00    -0.277 A  
HETATM   24  C   UNL     1      -7.975   8.318  71.777  1.00  0.00    -0.161 A  
HETATM   25  C   UNL     1      -8.664   7.547  72.694  1.00  0.00    -0.165 A  
HETATM   26  C   UNL     1     -10.051   7.642  72.752  1.00  0.00    -0.311 A  
HETATM   27  C   UNL     1     -10.782   8.480  71.869  1.00  0.00    -0.394 A  
BRANCH  27  28
HETATM   28  C   UNL     1     -12.235   8.404  72.005  1.00  0.00    -0.362 A  
HETATM   29  N   UNL     1     -12.938   9.124  72.905  1.00  0.00    -0.209 NA 
HETATM   30  N   UNL     1     -14.177   8.680  72.652  1.00  0.00    -0.849 NA 
HETATM   31  H   UNL     1     -14.988   9.025  73.164  1.00  0.00     0.000 HD 
HETATM   32  N   UNL     1     -14.285   7.759  71.692  1.00  0.00    -0.440 NA 
HETATM   33  N   UNL     1     -13.040   7.547  71.291  1.00  0.00    -0.305 NA 
ENDBRANCH  27  28
ENDBRANCH  19  22
ENDBRANCH  15  16
ENDBRANCH  11  15
ENDBRANCH   4   5
ENDBRANCH   3   4
ENDBRANCH   2   3
TORSDOF 7
ENDMDL
MODEL        7
REMARK 921   NORMALIZED FREE ENERGY PREDICTED BY IDOCK:   -6.86 KCAL/MOL
REMARK 922        TOTAL FREE ENERGY PREDICTED BY IDOCK:  -11.61 KCAL/MOL
REMARK 923 INTER-LIGAND FREE ENERGY PREDICTED BY IDOCK:   -9.95 KCAL/MOL
REMARK 924 INTRA-LIGAND FREE ENERGY PREDICTED BY IDOCK:   -1.66 KCAL/MOL
REMARK 927      BINDING AFFINITY PREDICTED BY RF-SCORE:    0.00 PKD
ROOT
HETATM    1  C   UNL     1     -13.631   9.482  72.385  1.00  0.00    -0.459 C  
HETATM    2  C   UNL     1     -14.301   8.366  71.609  1.00  0.00    -0.536 C  
ENDROOT
BRANCH   2   3
HETATM    3  C   UNL     1     -13.407   7.132  71.528  1.00  0.00    -0.413 C  
BRANCH   3   4
HETATM    4  C   UNL     1     -11.946   7.470  71.806  1.00  0.00    -0.334 C  
BRANCH   4   5
HETATM    5  C   UNL     1     -11.091   7.098  70.628  1.00  0.00    -0.267 C  
HETATM    6  N   UNL     1     -11.262   5.943  70.058  1.00  0.00    -0.346 NA 
HETATM    7  C   UNL     1     -10.322   5.946  68.911  1.00  0.00    -0.228 C  
HETATM    8  C   UNL     1      -9.460   7.169  69.176  1.00  0.00    -0.147 C  
HETATM    9  C   UNL     1     -11.111   6.125  67.609  1.00  0.00    -0.311 C  
HETATM   10  O   UNL     1      -8.387   7.441  68.658  1.00  0.00    -0.127 OA 
HETATM   11  N   UNL     1     -10.142   7.903  70.113  1.00  0.00    -0.192 N  
HETATM   12  C   UNL     1     -10.310   5.322  66.597  1.00  0.00    -0.330 C  
HETATM   13  C   UNL     1      -9.899   4.091  67.388  1.00  0.00    -0.124 C  
HETATM   14  C   UNL     1      -9.577   4.618  68.787  1.00  0.00    -0.229 C  
BRANCH  11  15
HETATM   15  C   UNL     1      -9.714   9.244  70.504  1.00  0.00    -0.260 C  
BRANCH  15  16
HETATM   16  C   UNL     1     -10.142  10.301  69.502  1.00  0.00    -0.260 A  
HETATM   17  C   UNL     1     -11.483  10.649  69.352  1.00  0.00    -0.356 A  
HETATM   18  C   UNL     1     -11.907  11.421  68.260  1.00  0.00    -0.320 A  
HETATM   19  C   UNL     1     -11.002  11.935  67.310  1.00  0.00    -0.319 A  
HETATM   20  C   UNL     1      -9.643  11.759  67.608  1.00  0.00    -0.184 A  
HETATM   21  C   UNL     1      -9.217  10.912  68.647  1.00  0.00    -0.187 A  
BRANCH  19  22
HETATM   22  C   UNL     1     -11.501  12.568  66.041  1.00  0.00    -0.423 A  
HETATM   23  C   UNL     1     -11.799  11.726  64.938  1.00  0.00    -0.135 A  
HETATM   24  C   UNL     1     -12.156  12.221  63.677  1.00  0.00    -0.648 A  
HETATM   25  C   UNL     1     -12.271  13.584  63.478  1.00  0.00    -0.410 A  
HETATM   26  C   UNL     1     -12.029  14.446  64.542  1.00  0.00    -0.487 A  
HETATM   27  C   UNL     1     -11.628  13.969  65.818  1.00  0.00    -0.339 A  
BRANCH  27  28
HETATM   28  C   UNL     1     -11.334  15.007  66.804  1.00  0.00    -0.293 A  
HETATM   29  N   UNL     1     -10.464  16.017  66.585  1.00  0.00    -0.304 NA 
HETATM   30  N   UNL     1     -10.528  16.647  67.766  1.00  0.00    -0.307 NA 
HETATM   31  H   UNL     1      -9.984  17.487  67.959  1.00  0.00     0.000 HD 
HETATM   32  N   UNL     1     -11.348  16.111  68.673  1.00  0.00    -0.370 NA 
HETATM   33  N   UNL     1     -11.845  15.036  68.080  1.00  0.00    -0.305 NA 
ENDBRANCH  27  28
ENDBRANCH  19  22
ENDBRANCH  15  16
ENDBRANCH  11  15
ENDBRANCH   4   5
ENDBRANCH   3   4
ENDBRANCH   2   3
TORSDOF 7
ENDMDL
MODEL        8
REMARK 921   NORMALIZED FREE ENERGY PREDICTED BY IDOCK:   -6.81 KCAL/MOL
REMARK 922        TOTAL FREE ENERGY PREDICTED BY IDOCK:  -11.54 KCAL/MOL
REMARK 923 INTER-LIGAND FREE ENERGY PREDICTED BY IDOCK:  -10.22 KCAL/MOL
REMARK 924 INTRA-LIGAND FREE ENERGY PREDICTED BY IDOCK:   -1.32 KCAL/MOL
REMARK 927      BINDING AFFINITY PREDICTED BY RF-SCORE:    0.00 PKD
ROOT
HETATM    1  C   UNL     1     -10.395  11.331  65.055  1.00  0.00    -0.359 C  
HETATM    2  C   UNL     1      -9.107  10.541  65.175  1.00  0.00    -0.227 C  
ENDROOT
BRANCH   2   3
HETATM    3  C   UNL     1      -9.257   9.381  66.154  1.00  0.00    -0.241 C  
BRANCH   3   4
HETATM    4  C   UNL     1     -10.634   9.364  66.808  1.00  0.00    -0.210 C  
BRANCH   4   5
HETATM    5  C   UNL     1     -10.501   9.245  68.300  1.00  0.00    -0.215 C  
HETATM    6  N   UNL     1      -9.739   8.318  68.799  1.00  0.00    -0.154 NA 
HETATM    7  C   UNL     1      -9.786   8.539  70.265  1.00  0.00    -0.182 C  
HETATM    8  C   UNL     1     -10.916   9.542  70.425  1.00  0.00    -0.278 C  
HETATM    9  C   UNL     1      -8.460   9.155  70.727  1.00  0.00    -0.256 C  
HETATM   10  O   UNL     1     -11.504   9.832  71.456  1.00  0.00    -0.378 OA 
HETATM   11  N   UNL     1     -11.132  10.055  69.171  1.00  0.00    -0.215 N  
HETATM   12  C   UNL     1      -8.274   8.584  72.124  1.00  0.00    -0.175 C  
HETATM   13  C   UNL     1      -8.739   7.146  71.967  1.00  0.00    -0.130 C  
HETATM   14  C   UNL     1      -9.944   7.226  71.029  1.00  0.00    -0.188 C  
BRANCH  11  15
HETATM   15  C   UNL     1     -12.034  11.181  68.943  1.00  0.00    -0.298 C  
BRANCH  15  16
HETATM   16  C   UNL     1     -11.295  12.505  68.862  1.00  0.00    -0.346 A  
HETATM   17  C   UNL     1     -11.921  13.703  69.201  1.00  0.00    -0.394 A  
HETATM   18  C   UNL     1     -11.335  14.936  68.880  1.00  0.00    -0.301 A  
HETATM   19  C   UNL     1     -10.069  15.027  68.269  1.00  0.00    -0.222 A  
HETATM   20  C   UNL     1      -9.366  13.820  68.143  1.00  0.00    -0.211 A  
HETATM   21  C   UNL     1      -9.982  12.577  68.378  1.00  0.00    -0.212 A  
BRANCH  19  22
HETATM   22  C   UNL     1      -9.567  16.341  67.740  1.00  0.00    -0.223 A  
HETATM   23  C   UNL     1      -8.772  17.154  68.590  1.00  0.00    -0.266 A  
HETATM   24  C   UNL     1      -8.354  18.443  68.239  1.00  0.00    -0.321 A  
HETATM   25  C   UNL     1      -8.679  18.960  66.999  1.00  0.00    -0.305 A  
HETATM   26  C   UNL     1      -9.422  18.184  66.116  1.00  0.00    -0.166 A  
HETATM   27  C   UNL     1      -9.889  16.890  66.465  1.00  0.00    -0.307 A  
BRANCH  27  28
HETATM   28  C   UNL     1     -10.724  16.239  65.457  1.00  0.00    -0.313 A  
HETATM   29  N   UNL     1     -11.275  16.892  64.412  1.00  0.00    -1.120 NA 
HETATM   30  N   UNL     1     -11.947  15.889  63.831  1.00  0.00    -1.249 NA 
HETATM   31  H   UNL     1     -12.494  16.027  62.982  1.00  0.00     0.000 HD 
HETATM   32  N   UNL     1     -11.856  14.699  64.428  1.00  0.00    -0.416 NA 
HETATM   33  N   UNL     1     -11.101  14.918  65.495  1.00  0.00    -0.340 NA 
ENDBRANCH  27  28
ENDBRANCH  19  22
ENDBRANCH  15  16
ENDBRANCH  11  15
ENDBRANCH   4   5
ENDBRANCH   3   4
ENDBRANCH   2   3
TORSDOF 7
ENDMDL
MODEL        9
REMARK 921   NORMALIZED FREE ENERGY PREDICTED BY IDOCK:   -6.78 KCAL/MOL
REMARK 922        TOTAL FREE ENERGY PREDICTED BY IDOCK:  -11.50 KCAL/MOL
REMARK 923 INTER-LIGAND FREE ENERGY PREDICTED BY IDOCK:   -9.80 KCAL/MOL
REMARK 924 INTRA-LIGAND FREE ENERGY PREDICTED BY IDOCK:   -1.70 KCAL/MOL
REMARK 927      BINDING AFFINITY PREDICTED BY RF-SCORE:    0.00 PKD
ROOT
HETATM    1  C   UNL     1      -7.696   5.590  66.480  1.00  0.00    -0.100 C  
HETATM    2  C   UNL     1      -8.977   5.943  65.752  1.00  0.00    -0.131 C  
ENDROOT
BRANCH   2   3
HETATM    3  C   UNL     1     -10.204   5.608  66.595  1.00  0.00    -0.276 C  
BRANCH   3   4
HETATM    4  C   UNL     1     -10.808   6.851  67.238  1.00  0.00    -0.426 C  
BRANCH   4   5
HETATM    5  C   UNL     1     -10.561   6.844  68.720  1.00  0.00    -0.220 C  
HETATM    6  N   UNL     1     -11.341   6.149  69.492  1.00  0.00    -0.421 NA 
HETATM    7  C   UNL     1     -10.769   6.311  70.851  1.00  0.00    -0.259 C  
HETATM    8  C   UNL     1      -9.752   7.425  70.665  1.00  0.00    -0.175 C  
HETATM    9  C   UNL     1     -10.065   5.013  71.262  1.00  0.00    -0.276 C  
HETATM   10  O   UNL     1      -9.217   8.087  71.541  1.00  0.00    -0.135 OA 
HETATM   11  N   UNL     1      -9.560   7.524  69.310  1.00  0.00    -0.158 N  
HETATM   12  C   UNL     1     -10.279   4.956  72.766  1.00  0.00    -0.227 C  
HETATM   13  C   UNL     1     -11.710   5.442  72.924  1.00  0.00    -0.232 C  
HETATM   14  C   UNL     1     -11.855   6.565  71.895  1.00  0.00    -0.381 C  
BRANCH  11  15
HETATM   15  C   UNL     1      -8.519   8.376  68.740  1.00  0.00    -0.124 C  
BRANCH  15  16
HETATM   16  C   UNL     1      -9.091   9.604  68.054  1.00  0.00    -0.128 A  
HETATM   17  C   UNL     1      -8.739   9.928  66.745  1.00  0.00    -0.137 A  
HETATM   18  C   UNL     1      -9.052  11.184  66.207  1.00  0.00    -0.207 A  
HETATM   19  C   UNL     1      -9.791  12.144  66.927  1.00  0.00    -0.213 A  
HETATM   20  C   UNL     1     -10.322  11.711  68.149  1.00  0.00    -0.208 A  
HETATM   21  C   UNL     1      -9.936  10.490  68.733  1.00  0.00    -0.200 A  
BRANCH  19  22
HETATM   22  C   UNL     1      -9.922  13.551  66.414  1.00  0.00    -0.296 A  
HETATM   23  C   UNL     1      -9.201  14.581  67.072  1.00  0.00    -0.253 A  
HETATM   24  C   UNL     1      -9.344  15.937  66.751  1.00  0.00    -0.262 A  
HETATM   25  C   UNL     1     -10.186  16.317  65.723  1.00  0.00    -0.390 A  
HETATM   26  C   UNL     1     -10.882  15.338  65.021  1.00  0.00    -0.457 A  
HETATM   27  C   UNL     1     -10.782  13.962  65.356  1.00  0.00    -0.330 A  
BRANCH  27  28
HETATM   28  C   UNL     1     -11.639  13.071  64.576  1.00  0.00    -0.360 A  
HETATM   29  N   UNL     1     -11.259  12.503  63.411  1.00  0.00    -0.458 NA 
HETATM   30  N   UNL     1     -12.376  11.832  63.097  1.00  0.00    -0.959 NA 
HETATM   31  H   UNL     1     -12.446  11.268  62.251  1.00  0.00     0.000 HD 
HETATM   32  N   UNL     1     -13.391  11.947  63.956  1.00  0.00    -0.545 NA 
HETATM   33  N   UNL     1     -12.942  12.769  64.894  1.00  0.00    -0.853 NA 
ENDBRANCH  27  28
ENDBRANCH  19  22
ENDBRANCH  15  16
ENDBRANCH  11  15
ENDBRANCH   4   5
ENDBRANCH   3   4
ENDBRANCH   2   3
TORSDOF 7
ENDMDL
MODEL       10
REMARK 921   NORMALIZED FREE ENERGY PREDICTED BY IDOCK:   -6.74 KCAL/MOL
REMARK 922        TOTAL FREE ENERGY PREDICTED BY IDOCK:  -11.45 KCAL/MOL
REMARK 923 INTER-LIGAND FREE ENERGY PREDICTED BY IDOCK:   -9.30 KCAL/MOL
REMARK 924 INTRA-LIGAND FREE ENERGY PREDICTED BY IDOCK:   -2.15 KCAL/MOL
REMARK 927      BINDING AFFINITY PREDICTED BY RF-SCORE:    0.00 PKD
ROOT
HETATM    1  C   UNL     1      -9.118   8.838  65.923  1.00  0.00    -0.271 C  
HETATM    2  C   UNL     1     -10.394   8.502  66.669  1.00  0.00    -0.303 C  
ENDROOT
BRANCH   2   3
HETATM    3  C   UNL     1     -10.343   7.090  67.246  1.00  0.00    -0.331 C  
BRANCH   3   4
HETATM    4  C   UNL     1     -10.856   7.045  68.681  1.00  0.00    -0.191 C  
BRANCH   4   5
HETATM    5  C   UNL     1      -9.743   7.355  69.643  1.00  0.00    -0.163 C  
HETATM    6  N   UNL     1      -8.718   6.560  69.706  1.00  0.00    -0.141 NA 
HETATM    7  C   UNL     1      -7.804   7.201  70.684  1.00  0.00    -0.096 C  
HETATM    8  C   UNL     1      -8.669   8.287  71.302  1.00  0.00    -0.152 C  
HETATM    9  C   UNL     1      -6.620   7.825  69.937  1.00  0.00    -0.037 C  
HETATM   10  O   UNL     1      -8.450   8.906  72.332  1.00  0.00    -0.396 OA 
HETATM   11  N   UNL     1      -9.741   8.428  70.457  1.00  0.00    -0.171 N  
HETATM   12  C   UNL     1      -5.466   7.673  70.914  1.00  0.00    -0.027 C  
HETATM   13  C   UNL     1      -5.696   6.289  71.499  1.00  0.00    -0.027 C  
HETATM   14  C   UNL     1      -7.214   6.181  71.657  1.00  0.00    -0.087 C  
BRANCH  11  15
HETATM   15  C   UNL     1     -10.716   9.502  70.622  1.00  0.00    -0.309 C  
BRANCH  15  16
HETATM   16  C   UNL     1     -10.666  10.506  69.484  1.00  0.00    -0.291 A  
HETATM   17  C   UNL     1      -9.449  10.955  68.973  1.00  0.00    -0.160 A  
HETATM   18  C   UNL     1      -9.396  12.063  68.115  1.00  0.00    -0.199 A  
HETATM   19  C   UNL     1     -10.558  12.728  67.676  1.00  0.00    -0.230 A  
HETATM   20  C   UNL     1     -11.774  12.121  68.024  1.00  0.00    -0.409 A  
HETATM   21  C   UNL     1     -11.834  11.068  68.956  1.00  0.00    -0.399 A  
BRANCH  19  22
HETATM   22  C   UNL     1     -10.462  14.035  66.941  1.00  0.00    -0.276 A  
HETATM   23  C   UNL     1     -10.013  15.179  67.651  1.00  0.00    -0.229 A  
HETATM   24  C   UNL     1      -9.999  16.464  67.095  1.00  0.00    -0.260 A  
HETATM   25  C   UNL     1     -10.394  16.653  65.784  1.00  0.00    -0.338 A  
HETATM   26  C   UNL     1     -10.802  15.554  65.035  1.00  0.00    -0.468 A  
HETATM   27  C   UNL     1     -10.862  14.249  65.591  1.00  0.00    -0.311 A  
BRANCH  27  28
HETATM   28  C   UNL     1     -11.389  13.218  64.697  1.00  0.00    -0.346 A  
HETATM   29  N   UNL     1     -10.608  12.416  63.943  1.00  0.00    -0.404 NA 
HETATM   30  N   UNL     1     -11.545  11.701  63.306  1.00  0.00    -0.833 NA 
HETATM   31  H   UNL     1     -11.304  10.971  62.636  1.00  0.00     0.000 HD 
HETATM   32  N   UNL     1     -12.812  12.000  63.600  1.00  0.00    -0.746 NA 
HETATM   33  N   UNL     1     -12.727  12.998  64.467  1.00  0.00    -0.701 NA 
ENDBRANCH  27  28
ENDBRANCH  19  22
ENDBRANCH  15  16
ENDBRANCH  11  15
ENDBRANCH   4   5
ENDBRANCH   3   4
ENDBRANCH   2   3
TORSDOF 7
ENDMDL
MODEL       11
REMARK 921   NORMALIZED FREE ENERGY PREDICTED BY IDOCK:   -6.74 KCAL/MOL
REMARK 922        TOTAL FREE ENERGY PREDICTED BY IDOCK:  -11.44 KCAL/MOL
REMARK 923 INTER-LIGAND FREE ENERGY PREDICTED BY IDOCK:   -9.80 KCAL/MOL
REMARK 924 INTRA-LIGAND FREE ENERGY PREDICTED BY IDOCK:   -1.64 KCAL/MOL
REMARK 927      BINDING AFFINITY PREDICTED BY RF-SCORE:    0.00 PKD
ROOT
HETATM    1  C   UNL     1      -6.340  12.852  67.551  1.00  0.00    -0.161 C  
HETATM    2  C   UNL     1      -6.626  13.546  68.867  1.00  0.00    -0.106 C  
ENDROOT
BRANCH   2   3
HETATM    3  C   UNL     1      -7.517  14.769  68.667  1.00  0.00    -0.126 C  
BRANCH   3   4
HETATM    4  C   UNL     1      -7.139  15.548  67.412  1.00  0.00    -0.235 C  
BRANCH   4   5
HETATM    5  C   UNL     1      -7.230  17.026  67.669  1.00  0.00    -0.153 C  
HETATM    6  N   UNL     1      -6.255  17.625  68.286  1.00  0.00    -0.174 NA 
HETATM    7  C   UNL     1      -6.642  19.057  68.298  1.00  0.00    -0.243 C  
HETATM    8  C   UNL     1      -8.091  19.026  67.844  1.00  0.00    -0.278 C  
HETATM    9  C   UNL     1      -5.783  19.823  67.285  1.00  0.00    -0.181 C  
HETATM   10  O   UNL     1      -8.915  19.923  67.945  1.00  0.00    -0.318 OA 
HETATM   11  N   UNL     1      -8.277  17.784  67.292  1.00  0.00    -0.213 N  
HETATM   12  C   UNL     1      -5.626  21.195  67.920  1.00  0.00    -0.386 C  
HETATM   13  C   UNL     1      -5.430  20.867  69.391  1.00  0.00    -0.411 C  
HETATM   14  C   UNL     1      -6.382  19.700  69.660  1.00  0.00    -0.366 C  
BRANCH  11  15
HETATM   15  C   UNL     1      -9.504  17.430  66.584  1.00  0.00    -0.274 C  
BRANCH  15  16
HETATM   16  C   UNL     1     -10.428  16.570  67.428  1.00  0.00    -0.310 A  
HETATM   17  C   UNL     1     -10.625  16.838  68.782  1.00  0.00    -0.348 A  
HETATM   18  C   UNL     1     -11.260  15.904  69.614  1.00  0.00    -0.331 A  
HETATM   19  C   UNL     1     -11.786  14.695  69.117  1.00  0.00    -0.347 A  
HETATM   20  C   UNL     1     -11.774  14.554  67.723  1.00  0.00    -0.403 A  
HETATM   21  C   UNL     1     -11.061  15.440  66.895  1.00  0.00    -0.256 A  
BRANCH  19  22
HETATM   22  C   UNL     1     -12.260  13.623  70.059  1.00  0.00    -0.395 A  
HETATM   23  C   UNL     1     -12.991  14.010  71.212  1.00  0.00    -0.418 A  
HETATM   24  C   UNL     1     -13.375  13.106  72.210  1.00  0.00    -0.621 A  
HETATM   25  C   UNL     1     -13.080  11.763  72.074  1.00  0.00    -0.436 A  
HETATM   26  C   UNL     1     -12.402  11.330  70.940  1.00  0.00    -0.490 A  
HETATM   27  C   UNL     1     -11.968  12.234  69.935  1.00  0.00    -0.377 A  
BRANCH  27  28
HETATM   28  C   UNL     1     -11.198  11.631  68.849  1.00  0.00    -0.246 A  
HETATM   29  N   UNL     1      -9.849  11.635  68.801  1.00  0.00    -0.163 NA 
HETATM   30  N   UNL     1      -9.649  11.011  67.632  1.00  0.00    -0.167 NA 
HETATM   31  H   UNL     1      -8.713  10.831  67.270  1.00  0.00     0.000 HD 
HETATM   32  N   UNL     1     -10.747  10.638  66.971  1.00  0.00    -0.266 NA 
HETATM   33  N   UNL     1     -11.751  11.063  67.725  1.00  0.00    -0.600 NA 
ENDBRANCH  27  28
ENDBRANCH  19  22
ENDBRANCH  15  16
ENDBRANCH  11  15
ENDBRANCH   4   5
ENDBRANCH   3   4
ENDBRANCH   2   3
TORSDOF 7
ENDMDL
MODEL       12
REMARK 921   NORMALIZED FREE ENERGY PREDICTED BY IDOCK:   -6.73 KCAL/MOL
REMARK 922        TOTAL FREE ENERGY PREDICTED BY IDOCK:  -11.44 KCAL/MOL
REMARK 923 INTER-LIGAND FREE ENERGY PREDICTED BY IDOCK:   -9.15 KCAL/MOL
REMARK 924 INTRA-LIGAND FREE ENERGY PREDICTED BY IDOCK:   -2.29 KCAL/MOL
REMARK 927      BINDING AFFINITY PREDICTED BY RF-SCORE:    0.00 PKD
ROOT
HETATM    1  C   UNL     1      -7.705  10.441  69.455  1.00  0.00    -0.159 C  
HETATM    2  C   UNL     1      -7.011   9.696  68.333  1.00  0.00    -0.065 C  
ENDROOT
BRANCH   2   3
HETATM    3  C   UNL     1      -6.605   8.291  68.769  1.00  0.00    -0.054 C  
BRANCH   3   4
HETATM    4  C   UNL     1      -7.553   7.230  68.222  1.00  0.00    -0.118 C  
BRANCH   4   5
HETATM    5  C   UNL     1      -8.763   7.107  69.105  1.00  0.00    -0.133 C  
HETATM    6  N   UNL     1      -8.605   6.843  70.367  1.00  0.00    -0.141 NA 
HETATM    7  C   UNL     1      -9.977   6.868  70.932  1.00  0.00    -0.189 C  
HETATM    8  C   UNL     1     -10.857   6.905  69.694  1.00  0.00    -0.259 C  
HETATM    9  C   UNL     1     -10.162   8.148  71.754  1.00  0.00    -0.275 C  
HETATM   10  O   UNL     1     -12.056   6.672  69.635  1.00  0.00    -0.085 OA 
HETATM   11  N   UNL     1     -10.026   7.258  68.662  1.00  0.00    -0.161 N  
HETATM   12  C   UNL     1     -11.107   7.721  72.866  1.00  0.00    -0.457 C  
HETATM   13  C   UNL     1     -10.601   6.334  73.226  1.00  0.00    -0.284 C  
HETATM   14  C   UNL     1     -10.215   5.701  71.888  1.00  0.00    -0.244 C  
BRANCH  11  15
HETATM   15  C   UNL     1     -10.539   7.565  67.329  1.00  0.00    -0.324 C  
BRANCH  15  16
HETATM   16  C   UNL     1     -10.430   9.042  66.995  1.00  0.00    -0.316 A  
HETATM   17  C   UNL     1      -9.670   9.482  65.912  1.00  0.00    -0.352 A  
HETATM   18  C   UNL     1      -9.355  10.841  65.761  1.00  0.00    -0.235 A  
HETATM   19  C   UNL     1      -9.842  11.825  66.643  1.00  0.00    -0.223 A  
HETATM   20  C   UNL     1     -10.781  11.386  67.587  1.00  0.00    -0.261 A  
HETATM   21  C   UNL     1     -11.029  10.017  67.802  1.00  0.00    -0.310 A  
BRANCH  19  22
HETATM   22  C   UNL     1      -9.314  13.232  66.587  1.00  0.00    -0.247 A  
HETATM   23  C   UNL     1      -8.285  13.605  67.489  1.00  0.00    -0.189 A  
HETATM   24  C   UNL     1      -7.807  14.917  67.600  1.00  0.00    -0.189 A  
HETATM   25  C   UNL     1      -8.312  15.906  66.778  1.00  0.00    -0.306 A  
HETATM   26  C   UNL     1      -9.293  15.579  65.848  1.00  0.00    -0.355 A  
HETATM   27  C   UNL     1      -9.820  14.265  65.746  1.00  0.00    -0.314 A  
BRANCH  27  28
HETATM   28  C   UNL     1     -10.902  14.104  64.776  1.00  0.00    -0.413 A  
HETATM   29  N   UNL     1     -11.864  15.029  64.574  1.00  0.00    -0.416 NA 
HETATM   30  N   UNL     1     -12.602  14.408  63.644  1.00  0.00    -0.997 NA 
HETATM   31  H   UNL     1     -13.437  14.834  63.244  1.00  0.00     0.000 HD 
HETATM   32  N   UNL     1     -12.180  13.197  63.272  1.00  0.00    -0.684 NA 
HETATM   33  N   UNL     1     -11.107  12.975  64.018  1.00  0.00    -0.396 NA 
ENDBRANCH  27  28
ENDBRANCH  19  22
ENDBRANCH  15  16
ENDBRANCH  11  15
ENDBRANCH   4   5
ENDBRANCH   3   4
ENDBRANCH   2   3
TORSDOF 7
ENDMDL
MODEL       13
REMARK 921   NORMALIZED FREE ENERGY PREDICTED BY IDOCK:   -6.72 KCAL/MOL
REMARK 922        TOTAL FREE ENERGY PREDICTED BY IDOCK:  -11.42 KCAL/MOL
REMARK 923 INTER-LIGAND FREE ENERGY PREDICTED BY IDOCK:   -9.35 KCAL/MOL
REMARK 924 INTRA-LIGAND FREE ENERGY PREDICTED BY IDOCK:   -2.06 KCAL/MOL
REMARK 927      BINDING AFFINITY PREDICTED BY RF-SCORE:    0.00 PKD
ROOT
HETATM    1  C   UNL     1     -12.222  12.425  64.075  1.00  0.00    -0.579 C  
HETATM    2  C   UNL     1     -10.872  12.514  64.757  1.00  0.00    -0.332 C  
ENDROOT
BRANCH   2   3
HETATM    3  C   UNL     1     -10.358  13.951  64.784  1.00  0.00    -0.419 C  
BRANCH   3   4
HETATM    4  C   UNL     1     -11.428  14.928  65.257  1.00  0.00    -0.336 C  
BRANCH   4   5
HETATM    5  C   UNL     1     -10.804  16.038  66.056  1.00  0.00    -0.190 C  
HETATM    6  N   UNL     1     -10.123  16.958  65.441  1.00  0.00    -0.590 NA 
HETATM    7  C   UNL     1      -9.727  17.909  66.508  1.00  0.00    -0.329 C  
HETATM    8  C   UNL     1     -10.078  17.161  67.783  1.00  0.00    -0.306 C  
HETATM    9  C   UNL     1     -10.571  19.183  66.390  1.00  0.00    -0.522 C  
HETATM   10  O   UNL     1      -9.702  17.419  68.917  1.00  0.00    -0.283 OA 
HETATM   11  N   UNL     1     -10.910  16.142  67.394  1.00  0.00    -0.302 N  
HETATM   12  C   UNL     1      -9.625  20.279  66.854  1.00  0.00    -0.564 C  
HETATM   13  C   UNL     1      -8.298  19.865  66.239  1.00  0.00    -0.371 C  
HETATM   14  C   UNL     1      -8.268  18.340  66.367  1.00  0.00    -0.276 C  
BRANCH  11  15
HETATM   15  C   UNL     1     -11.602  15.297  68.365  1.00  0.00    -0.349 C  
BRANCH  15  16
HETATM   16  C   UNL     1     -11.111  13.861  68.331  1.00  0.00    -0.278 A  
HETATM   17  C   UNL     1     -12.007  12.793  68.309  1.00  0.00    -0.276 A  
HETATM   18  C   UNL     1     -11.568  11.482  68.542  1.00  0.00    -0.377 A  
HETATM   19  C   UNL     1     -10.207  11.171  68.738  1.00  0.00    -0.219 A  
HETATM   20  C   UNL     1      -9.307  12.226  68.532  1.00  0.00    -0.101 A  
HETATM   21  C   UNL     1      -9.746  13.556  68.390  1.00  0.00    -0.207 A  
BRANCH  19  22
HETATM   22  C   UNL     1      -9.794   9.802  69.200  1.00  0.00    -0.192 A  
HETATM   23  C   UNL     1      -9.915   9.488  70.579  1.00  0.00    -0.335 A  
HETATM   24  C   UNL     1      -9.449   8.289  71.131  1.00  0.00    -0.206 A  
HETATM   25  C   UNL     1      -8.879   7.329  70.316  1.00  0.00    -0.147 A  
HETATM   26  C   UNL     1      -8.776   7.575  68.951  1.00  0.00    -0.132 A  
HETATM   27  C   UNL     1      -9.206   8.800  68.376  1.00  0.00    -0.137 A  
BRANCH  27  28
HETATM   28  C   UNL     1      -8.954   8.934  66.942  1.00  0.00    -0.128 A  
HETATM   29  N   UNL     1      -9.911   8.787  66.001  1.00  0.00    -0.231 NA 
HETATM   30  N   UNL     1      -9.183   8.967  64.890  1.00  0.00    -0.436 NA 
HETATM   31  H   UNL     1      -9.599   8.927  63.960  1.00  0.00     0.000 HD 
HETATM   32  N   UNL     1      -7.882   9.202  65.072  1.00  0.00    -0.108 NA 
HETATM   33  N   UNL     1      -7.715   9.148  66.386  1.00  0.00    -0.096 NA 
ENDBRANCH  27  28
ENDBRANCH  19  22
ENDBRANCH  15  16
ENDBRANCH  11  15
ENDBRANCH   4   5
ENDBRANCH   3   4
ENDBRANCH   2   3
TORSDOF 7
ENDMDL
MODEL       14
REMARK 921   NORMALIZED FREE ENERGY PREDICTED BY IDOCK:   -6.70 KCAL/MOL
REMARK 922        TOTAL FREE ENERGY PREDICTED BY IDOCK:  -11.39 KCAL/MOL
REMARK 923 INTER-LIGAND FREE ENERGY PREDICTED BY IDOCK:  -10.29 KCAL/MOL
REMARK 924 INTRA-LIGAND FREE ENERGY PREDICTED BY IDOCK:   -1.11 KCAL/MOL
REMARK 927      BINDING AFFINITY PREDICTED BY RF-SCORE:    0.00 PKD
ROOT
HETATM    1  C   UNL     1     -10.843  11.425  63.479  1.00  0.00    -0.430 C  
HETATM    2  C   UNL     1     -12.175  12.128  63.652  1.00  0.00    -0.663 C  
ENDROOT
BRANCH   2   3
HETATM    3  C   UNL     1     -11.983  13.602  63.995  1.00  0.00    -0.478 C  
BRANCH   3   4
HETATM    4  C   UNL     1     -12.594  13.955  65.347  1.00  0.00    -0.538 C  
BRANCH   4   5
HETATM    5  C   UNL     1     -11.566  14.603  66.231  1.00  0.00    -0.342 C  
HETATM    6  N   UNL     1     -10.718  15.440  65.712  1.00  0.00    -0.335 NA 
HETATM    7  C   UNL     1      -9.920  15.930  66.863  1.00  0.00    -0.249 C  
HETATM    8  C   UNL     1     -10.321  14.987  67.985  1.00  0.00    -0.236 C  
HETATM    9  C   UNL     1     -10.342  17.365  67.198  1.00  0.00    -0.325 C  
HETATM   10  O   UNL     1      -9.745  14.821  69.050  1.00  0.00    -0.218 OA 
HETATM   11  N   UNL     1     -11.467  14.368  67.553  1.00  0.00    -0.331 N  
HETATM   12  C   UNL     1      -9.056  18.004  67.696  1.00  0.00    -0.255 C  
HETATM   13  C   UNL     1      -8.007  17.435  66.754  1.00  0.00    -0.278 C  
HETATM   14  C   UNL     1      -8.429  15.981  66.534  1.00  0.00    -0.348 C  
BRANCH  11  15
HETATM   15  C   UNL     1     -12.256  13.507  68.431  1.00  0.00    -0.115 C  
BRANCH  15  16
HETATM   16  C   UNL     1     -11.586  12.168  68.679  1.00  0.00    -0.372 A  
HETATM   17  C   UNL     1     -11.296  11.301  67.626  1.00  0.00    -0.352 A  
HETATM   18  C   UNL     1     -10.924   9.971  67.872  1.00  0.00    -0.311 A  
HETATM   19  C   UNL     1     -10.759   9.469  69.178  1.00  0.00    -0.228 A  
HETATM   20  C   UNL     1     -10.838  10.417  70.209  1.00  0.00    -0.308 A  
HETATM   21  C   UNL     1     -11.298  11.726  69.976  1.00  0.00    -0.130 A  
BRANCH  19  22
HETATM   22  C   UNL     1     -10.577   7.996  69.415  1.00  0.00    -0.210 A  
HETATM   23  C   UNL     1      -9.650   7.290  68.605  1.00  0.00    -0.141 A  
HETATM   24  C   UNL     1      -9.492   5.899  68.662  1.00  0.00    -0.137 A  
HETATM   25  C   UNL     1     -10.228   5.159  69.568  1.00  0.00    -0.318 A  
HETATM   26  C   UNL     1     -11.119   5.812  70.412  1.00  0.00    -0.287 A  
HETATM   27  C   UNL     1     -11.324   7.215  70.344  1.00  0.00    -0.325 A  
BRANCH  27  28
HETATM   28  C   UNL     1     -12.353   7.736  71.243  1.00  0.00    -0.293 A  
HETATM   29  N   UNL     1     -12.077   8.367  72.404  1.00  0.00    -0.389 NA 
HETATM   30  N   UNL     1     -13.319   8.604  72.848  1.00  0.00    -0.782 NA 
HETATM   31  H   UNL     1     -13.495   9.086  73.729  1.00  0.00     0.000 HD 
HETATM   32  N   UNL     1     -14.313   8.173  72.068  1.00  0.00    -0.431 NA 
HETATM   33  N   UNL     1     -13.705   7.581  71.049  1.00  0.00    -0.133 NA 
ENDBRANCH  27  28
ENDBRANCH  19  22
ENDBRANCH  15  16
ENDBRANCH  11  15
ENDBRANCH   4   5
ENDBRANCH   3   4
ENDBRANCH   2   3
TORSDOF 7
ENDMDL
MODEL       15
REMARK 921   NORMALIZED FREE ENERGY PREDICTED BY IDOCK:   -6.69 KCAL/MOL
REMARK 922        TOTAL FREE ENERGY PREDICTED BY IDOCK:  -11.37 KCAL/MOL
REMARK 923 INTER-LIGAND FREE ENERGY PREDICTED BY IDOCK:  -10.09 KCAL/MOL
REMARK 924 INTRA-LIGAND FREE ENERGY PREDICTED BY IDOCK:   -1.28 KCAL/MOL
REMARK 927      BINDING AFFINITY PREDICTED BY RF-SCORE:    0.00 PKD
ROOT
HETATM    1  C   UNL     1     -11.664  12.788  63.985  1.00  0.00    -0.494 C  
HETATM    2  C   UNL     1     -12.344  13.450  65.166  1.00  0.00    -0.501 C  
ENDROOT
BRANCH   2   3
HETATM    3  C   UNL     1     -12.129  14.961  65.153  1.00  0.00    -0.163 C  
BRANCH   3   4
HETATM    4  C   UNL     1     -10.726  15.331  64.685  1.00  0.00    -0.226 C  
BRANCH   4   5
HETATM    5  C   UNL     1     -10.111  16.333  65.622  1.00  0.00    -0.312 C  
HETATM    6  N   UNL     1     -10.407  17.591  65.491  1.00  0.00    -0.636 NA 
HETATM    7  C   UNL     1      -9.695  18.263  66.606  1.00  0.00    -0.339 C  
HETATM    8  C   UNL     1      -8.776  17.174  67.133  1.00  0.00    -0.212 C  
HETATM    9  C   UNL     1     -10.709  18.670  67.681  1.00  0.00    -0.428 C  
HETATM   10  O   UNL     1      -7.813  17.317  67.872  1.00  0.00    -0.188 OA 
HETATM   11  N   UNL     1      -9.259  16.001  66.610  1.00  0.00    -0.228 N  
HETATM   12  C   UNL     1     -10.125  19.953  68.250  1.00  0.00    -0.571 C  
HETATM   13  C   UNL     1      -9.598  20.664  67.015  1.00  0.00    -0.484 C  
HETATM   14  C   UNL     1      -9.012  19.550  66.145  1.00  0.00    -0.342 C  
BRANCH  11  15
HETATM   15  C   UNL     1      -8.740  14.701  67.026  1.00  0.00    -0.235 C  
BRANCH  15  16
HETATM   16  C   UNL     1      -9.785  13.867  67.746  1.00  0.00    -0.225 A  
HETATM   17  C   UNL     1     -10.661  14.444  68.663  1.00  0.00    -0.258 A  
HETATM   18  C   UNL     1     -11.440  13.645  69.513  1.00  0.00    -0.324 A  
HETATM   19  C   UNL     1     -11.429  12.238  69.437  1.00  0.00    -0.341 A  
HETATM   20  C   UNL     1     -10.714  11.693  68.361  1.00  0.00    -0.248 A  
HETATM   21  C   UNL     1      -9.861  12.480  67.565  1.00  0.00    -0.198 A  
BRANCH  19  22
HETATM   22  C   UNL     1     -12.100  11.409  70.496  1.00  0.00    -0.487 A  
HETATM   23  C   UNL     1     -11.989   9.996  70.421  1.00  0.00    -0.318 A  
HETATM   24  C   UNL     1     -12.671   9.131  71.285  1.00  0.00    -0.340 A  
HETATM   25  C   UNL     1     -13.462   9.647  72.295  1.00  0.00    -0.488 A  
HETATM   26  C   UNL     1     -13.568  11.027  72.434  1.00  0.00     0.273 A  
HETATM   27  C   UNL     1     -12.917  11.922  71.545  1.00  0.00    -0.427 A  
BRANCH  27  28
HETATM   28  C   UNL     1     -13.195  13.338  71.777  1.00  0.00    -0.405 A  
HETATM   29  N   UNL     1     -14.161  14.023  71.131  1.00  0.00     0.063 NA 
HETATM   30  N   UNL     1     -13.986  15.241  71.661  1.00  0.00    -0.498 NA 
HETATM   31  H   UNL     1     -14.569  16.035  71.394  1.00  0.00     0.000 HD 
HETATM   32  N   UNL     1     -13.005  15.355  72.559  1.00  0.00    -0.367 NA 
HETATM   33  N   UNL     1     -12.465  14.146  72.617  1.00  0.00    -0.142 NA 
ENDBRANCH  27  28
ENDBRANCH  19  22
ENDBRANCH  15  16
ENDBRANCH  11  15
ENDBRANCH   4   5
ENDBRANCH   3   4
ENDBRANCH   2   3
TORSDOF 7
ENDMDL
MODEL       16
REMARK 921   NORMALIZED FREE ENERGY PREDICTED BY IDOCK:   -6.69 KCAL/MOL
REMARK 922        TOTAL FREE ENERGY PREDICTED BY IDOCK:  -11.37 KCAL/MOL
REMARK 923 INTER-LIGAND FREE ENERGY PREDICTED BY IDOCK:  -10.37 KCAL/MOL
REMARK 924 INTRA-LIGAND FREE ENERGY PREDICTED BY IDOCK:   -1.00 KCAL/MOL
REMARK 927      BINDING AFFINITY PREDICTED BY RF-SCORE:    0.00 PKD
ROOT
HETATM    1  C   UNL     1     -10.989  11.555  63.468  1.00  0.00    -0.453 C  
HETATM    2  C   UNL     1     -12.247  12.398  63.522  1.00  0.00    -0.661 C  
ENDROOT
BRANCH   2   3
HETATM    3  C   UNL     1     -11.964  13.779  64.105  1.00  0.00    -0.473 C  
BRANCH   3   4
HETATM    4  C   UNL     1     -10.523  13.908  64.586  1.00  0.00    -0.419 C  
BRANCH   4   5
HETATM    5  C   UNL     1     -10.411  15.002  65.611  1.00  0.00    -0.353 C  
HETATM    6  N   UNL     1      -9.476  15.895  65.487  1.00  0.00    -0.373 NA 
HETATM    7  C   UNL     1      -9.707  16.840  66.607  1.00  0.00    -0.269 C  
HETATM    8  C   UNL     1     -10.728  16.113  67.465  1.00  0.00    -0.304 C  
HETATM    9  C   UNL     1     -10.305  18.141  66.058  1.00  0.00    -0.360 C  
HETATM   10  O   UNL     1     -11.034  16.366  68.621  1.00  0.00    -0.313 OA 
HETATM   11  N   UNL     1     -11.237  15.119  66.668  1.00  0.00    -0.311 N  
HETATM   12  C   UNL     1      -9.740  19.207  66.982  1.00  0.00    -0.389 C  
HETATM   13  C   UNL     1      -8.308  18.746  67.197  1.00  0.00    -0.281 C  
HETATM   14  C   UNL     1      -8.401  17.223  67.302  1.00  0.00    -0.216 C  
BRANCH  11  15
HETATM   15  C   UNL     1     -12.375  14.303  67.083  1.00  0.00    -0.134 C  
BRANCH  15  16
HETATM   16  C   UNL     1     -11.975  13.208  68.056  1.00  0.00    -0.345 A  
HETATM   17  C   UNL     1     -11.509  11.976  67.601  1.00  0.00    -0.392 A  
HETATM   18  C   UNL     1     -11.391  10.885  68.475  1.00  0.00    -0.367 A  
HETATM   19  C   UNL     1     -11.667  10.996  69.852  1.00  0.00    -0.424 A  
HETATM   20  C   UNL     1     -11.915  12.294  70.320  1.00  0.00    -0.373 A  
HETATM   21  C   UNL     1     -12.124  13.370  69.438  1.00  0.00    -0.321 A  
BRANCH  19  22
HETATM   22  C   UNL     1     -11.744   9.770  70.718  1.00  0.00    -0.407 A  
HETATM   23  C   UNL     1     -12.943   9.524  71.437  1.00  0.00    -0.450 A  
HETATM   24  C   UNL     1     -13.077   8.480  72.360  1.00  0.00    -0.338 A  
HETATM   25  C   UNL     1     -12.027   7.606  72.572  1.00  0.00    -0.261 A  
HETATM   26  C   UNL     1     -10.846   7.783  71.858  1.00  0.00    -0.281 A  
HETATM   27  C   UNL     1     -10.674   8.858  70.947  1.00  0.00    -0.292 A  
BRANCH  27  28
HETATM   28  C   UNL     1      -9.347   8.950  70.340  1.00  0.00    -0.193 A  
HETATM   29  N   UNL     1      -9.018   8.353  69.175  1.00  0.00    -0.146 NA 
HETATM   30  N   UNL     1      -7.728   8.705  69.082  1.00  0.00    -0.095 NA 
HETATM   31  H   UNL     1      -7.147   8.420  68.295  1.00  0.00     0.000 HD 
HETATM   32  N   UNL     1      -7.250   9.451  70.081  1.00  0.00    -0.081 NA 
HETATM   33  N   UNL     1      -8.272   9.586  70.914  1.00  0.00    -0.297 NA 
ENDBRANCH  27  28
ENDBRANCH  19  22
ENDBRANCH  15  16
ENDBRANCH  11  15
ENDBRANCH   4   5
ENDBRANCH   3   4
ENDBRANCH   2   3
TORSDOF 7
ENDMDL
MODEL       17
REMARK 921   NORMALIZED FREE ENERGY PREDICTED BY IDOCK:   -6.66 KCAL/MOL
REMARK 922        TOTAL FREE ENERGY PREDICTED BY IDOCK:  -11.33 KCAL/MOL
REMARK 923 INTER-LIGAND FREE ENERGY PREDICTED BY IDOCK:   -9.62 KCAL/MOL
REMARK 924 INTRA-LIGAND FREE ENERGY PREDICTED BY IDOCK:   -1.71 KCAL/MOL
REMARK 927      BINDING AFFINITY PREDICTED BY RF-SCORE:    0.00 PKD
ROOT
HETATM    1  C   UNL     1     -12.927  11.617  71.659  1.00  0.00    -0.483 C  
HETATM    2  C   UNL     1     -13.209  10.131  71.574  1.00  0.00    -0.496 C  
ENDROOT
BRANCH   2   3
HETATM    3  C   UNL     1     -11.925   9.315  71.689  1.00  0.00    -0.448 C  
BRANCH   3   4
HETATM    4  C   UNL     1     -11.976   8.053  70.835  1.00  0.00    -0.201 C  
BRANCH   4   5
HETATM    5  C   UNL     1     -10.585   7.548  70.569  1.00  0.00    -0.225 C  
HETATM    6  N   UNL     1      -9.896   7.037  71.545  1.00  0.00    -0.173 NA 
HETATM    7  C   UNL     1      -8.631   6.586  70.917  1.00  0.00    -0.135 C  
HETATM    8  C   UNL     1      -8.690   7.212  69.535  1.00  0.00    -0.134 C  
HETATM    9  C   UNL     1      -8.637   5.057  70.808  1.00  0.00    -0.132 C  
HETATM   10  O   UNL     1      -7.767   7.346  68.745  1.00  0.00    -0.113 OA 
HETATM   11  N   UNL     1      -9.998   7.590  69.358  1.00  0.00    -0.174 N  
HETATM   12  C   UNL     1      -7.173   4.684  70.981  1.00  0.00    -0.048 C  
HETATM   13  C   UNL     1      -6.708   5.634  72.072  1.00  0.00    -0.063 C  
HETATM   14  C   UNL     1      -7.416   6.955  71.767  1.00  0.00    -0.089 C  
BRANCH  11  15
HETATM   15  C   UNL     1     -10.492   8.081  68.075  1.00  0.00    -0.184 C  
BRANCH  15  16
HETATM   16  C   UNL     1     -10.321   9.582  67.927  1.00  0.00    -0.276 A  
HETATM   17  C   UNL     1     -11.362  10.459  68.226  1.00  0.00    -0.292 A  
HETATM   18  C   UNL     1     -11.297  11.808  67.845  1.00  0.00    -0.362 A  
HETATM   19  C   UNL     1     -10.163  12.353  67.212  1.00  0.00    -0.224 A  
HETATM   20  C   UNL     1      -9.048  11.507  67.127  1.00  0.00    -0.167 A  
HETATM   21  C   UNL     1      -9.137  10.134  67.422  1.00  0.00    -0.149 A  
BRANCH  19  22
HETATM   22  C   UNL     1     -10.206  13.735  66.622  1.00  0.00    -0.276 A  
HETATM   23  C   UNL     1      -9.592  14.796  67.337  1.00  0.00    -0.210 A  
HETATM   24  C   UNL     1      -9.677  16.135  66.936  1.00  0.00    -0.246 A  
HETATM   25  C   UNL     1     -10.347  16.466  65.773  1.00  0.00    -0.388 A  
HETATM   26  C   UNL     1     -10.930  15.454  65.017  1.00  0.00    -0.450 A  
HETATM   27  C   UNL     1     -10.890  14.095  65.425  1.00  0.00    -0.341 A  
BRANCH  27  28
HETATM   28  C   UNL     1     -11.619  13.167  64.562  1.00  0.00    -0.364 A  
HETATM   29  N   UNL     1     -11.038  12.461  63.569  1.00  0.00    -0.461 NA 
HETATM   30  N   UNL     1     -12.105  11.814  63.080  1.00  0.00    -0.932 NA 
HETATM   31  H   UNL     1     -12.031  11.166  62.296  1.00  0.00     0.000 HD 
HETATM   32  N   UNL     1     -13.270  12.067  63.680  1.00  0.00    -0.645 NA 
HETATM   33  N   UNL     1     -12.977  12.962  64.613  1.00  0.00    -0.747 NA 
ENDBRANCH  27  28
ENDBRANCH  19  22
ENDBRANCH  15  16
ENDBRANCH  11  15
ENDBRANCH   4   5
ENDBRANCH   3   4
ENDBRANCH   2   3
TORSDOF 7
ENDMDL
MODEL       18
REMARK 921   NORMALIZED FREE ENERGY PREDICTED BY IDOCK:   -6.64 KCAL/MOL
REMARK 922        TOTAL FREE ENERGY PREDICTED BY IDOCK:  -11.30 KCAL/MOL
REMARK 923 INTER-LIGAND FREE ENERGY PREDICTED BY IDOCK:  -10.19 KCAL/MOL
REMARK 924 INTRA-LIGAND FREE ENERGY PREDICTED BY IDOCK:   -1.11 KCAL/MOL
REMARK 927      BINDING AFFINITY PREDICTED BY RF-SCORE:    0.00 PKD
ROOT
HETATM    1  C   UNL     1     -13.828  13.271  72.282  1.00  0.00    -0.637 C  
HETATM    2  C   UNL     1     -14.218  14.728  72.132  1.00  0.00    -0.608 C  
ENDROOT
BRANCH   2   3
HETATM    3  C   UNL     1     -13.300  15.449  71.150  1.00  0.00    -0.580 C  
BRANCH   3   4
HETATM    4  C   UNL     1     -12.501  14.471  70.296  1.00  0.00    -0.405 C  
BRANCH   4   5
HETATM    5  C   UNL     1     -11.598  15.217  69.355  1.00  0.00    -0.330 C  
HETATM    6  N   UNL     1     -10.932  16.244  69.793  1.00  0.00    -0.343 NA 
HETATM    7  C   UNL     1     -10.107  16.677  68.639  1.00  0.00    -0.270 C  
HETATM    8  C   UNL     1     -10.684  15.878  67.484  1.00  0.00    -0.318 C  
HETATM    9  C   UNL     1      -8.647  16.280  68.883  1.00  0.00    -0.260 C  
HETATM   10  O   UNL     1     -10.515  16.079  66.290  1.00  0.00    -0.307 OA 
HETATM   11  N   UNL     1     -11.429  14.881  68.062  1.00  0.00    -0.326 N  
HETATM   12  C   UNL     1      -7.860  17.391  68.206  1.00  0.00    -0.247 C  
HETATM   13  C   UNL     1      -8.658  18.635  68.559  1.00  0.00    -0.370 C  
HETATM   14  C   UNL     1     -10.121  18.196  68.474  1.00  0.00    -0.413 C  
BRANCH  11  15
HETATM   15  C   UNL     1     -12.009  13.796  67.275  1.00  0.00    -0.401 C  
BRANCH  15  16
HETATM   16  C   UNL     1     -11.428  12.443  67.644  1.00  0.00    -0.399 A  
HETATM   17  C   UNL     1     -10.366  11.895  66.928  1.00  0.00    -0.238 A  
HETATM   18  C   UNL     1     -10.005  10.550  67.094  1.00  0.00    -0.234 A  
HETATM   19  C   UNL     1     -10.643   9.714  68.032  1.00  0.00    -0.292 A  
HETATM   20  C   UNL     1     -11.551  10.347  68.892  1.00  0.00    -0.208 A  
HETATM   21  C   UNL     1     -11.982  11.667  68.670  1.00  0.00    -0.311 A  
BRANCH  19  22
HETATM   22  C   UNL     1     -10.388   8.232  68.034  1.00  0.00    -0.268 A  
HETATM   23  C   UNL     1     -10.609   7.505  66.836  1.00  0.00    -0.367 A  
HETATM   24  C   UNL     1     -10.517   6.110  66.763  1.00  0.00    -0.316 A  
HETATM   25  C   UNL     1     -10.153   5.383  67.881  1.00  0.00    -0.215 A  
HETATM   26  C   UNL     1      -9.885   6.056  69.068  1.00  0.00    -0.182 A  
HETATM   27  C   UNL     1     -10.011   7.466  69.175  1.00  0.00    -0.173 A  
BRANCH  27  28
HETATM   28  C   UNL     1      -9.773   8.011  70.511  1.00  0.00    -0.178 A  
HETATM   29  N   UNL     1      -8.597   8.548  70.897  1.00  0.00    -0.143 NA 
HETATM   30  N   UNL     1      -8.880   8.854  72.171  1.00  0.00    -0.380 NA 
HETATM   31  H   UNL     1      -8.196   9.295  72.785  1.00  0.00     0.000 HD 
HETATM   32  N   UNL     1     -10.110   8.547  72.588  1.00  0.00    -0.252 NA 
HETATM   33  N   UNL     1     -10.684   7.972  71.540  1.00  0.00    -0.222 NA 
ENDBRANCH  27  28
ENDBRANCH  19  22
ENDBRANCH  15  16
ENDBRANCH  11  15
ENDBRANCH   4   5
ENDBRANCH   3   4
ENDBRANCH   2   3
TORSDOF 7
ENDMDL
MODEL       19
REMARK 921   NORMALIZED FREE ENERGY PREDICTED BY IDOCK:   -6.62 KCAL/MOL
REMARK 922        TOTAL FREE ENERGY PREDICTED BY IDOCK:  -11.28 KCAL/MOL
REMARK 923 INTER-LIGAND FREE ENERGY PREDICTED BY IDOCK:   -9.43 KCAL/MOL
REMARK 924 INTRA-LIGAND FREE ENERGY PREDICTED BY IDOCK:   -1.85 KCAL/MOL
REMARK 927      BINDING AFFINITY PREDICTED BY RF-SCORE:    0.00 PKD
ROOT
HETATM    1  C   UNL     1     -10.525   8.087  67.370  1.00  0.00    -0.357 C  
HETATM    2  C   UNL     1     -10.959   6.781  68.004  1.00  0.00    -0.289 C  
ENDROOT
BRANCH   2   3
HETATM    3  C   UNL     1      -9.770   6.027  68.591  1.00  0.00    -0.149 C  
BRANCH   3   4
HETATM    4  C   UNL     1     -10.194   5.075  69.704  1.00  0.00    -0.306 C  
BRANCH   4   5
HETATM    5  C   UNL     1      -9.730   5.590  71.037  1.00  0.00    -0.175 C  
HETATM    6  N   UNL     1      -8.486   5.437  71.379  1.00  0.00    -0.125 NA 
HETATM    7  C   UNL     1      -8.371   6.117  72.693  1.00  0.00    -0.121 C  
HETATM    8  C   UNL     1      -9.818   6.379  73.072  1.00  0.00    -0.165 C  
HETATM    9  C   UNL     1      -7.620   7.441  72.514  1.00  0.00    -0.092 C  
HETATM   10  O   UNL     1     -10.248   6.679  74.176  1.00  0.00    -0.334 OA 
HETATM   11  N   UNL     1     -10.537   6.215  71.915  1.00  0.00    -0.214 N  
HETATM   12  C   UNL     1      -6.862   7.598  73.823  1.00  0.00    -0.099 C  
HETATM   13  C   UNL     1      -6.392   6.182  74.114  1.00  0.00    -0.070 C  
HETATM   14  C   UNL     1      -7.559   5.289  73.688  1.00  0.00    -0.095 C  
BRANCH  11  15
HETATM   15  C   UNL     1     -11.957   6.550  71.835  1.00  0.00    -0.341 C  
BRANCH  15  16
HETATM   16  C   UNL     1     -12.186   7.983  71.388  1.00  0.00    -0.335 A  
HETATM   17  C   UNL     1     -11.128   8.781  70.957  1.00  0.00    -0.328 A  
HETATM   18  C   UNL     1     -11.291  10.165  70.798  1.00  0.00    -0.436 A  
HETATM   19  C   UNL     1     -12.533  10.800  70.996  1.00  0.00    -0.522 A  
HETATM   20  C   UNL     1     -13.625   9.948  71.209  1.00  0.00    -0.265 A  
HETATM   21  C   UNL     1     -13.453   8.574  71.459  1.00  0.00    -0.325 A  
BRANCH  19  22
HETATM   22  C   UNL     1     -12.628  12.300  71.033  1.00  0.00    -0.352 A  
HETATM   23  C   UNL     1     -13.293  12.909  72.129  1.00  0.00    -0.615 A  
HETATM   24  C   UNL     1     -13.540  14.285  72.202  1.00  0.00    -0.546 A  
HETATM   25  C   UNL     1     -13.092  15.121  71.196  1.00  0.00    -0.515 A  
HETATM   26  C   UNL     1     -12.398  14.574  70.121  1.00  0.00    -0.398 A  
HETATM   27  C   UNL     1     -12.171  13.177  70.008  1.00  0.00    -0.323 A  
BRANCH  27  28
HETATM   28  C   UNL     1     -11.499  12.756  68.780  1.00  0.00    -0.304 A  
HETATM   29  N   UNL     1     -10.184  12.952  68.546  1.00  0.00    -0.229 NA 
HETATM   30  N   UNL     1     -10.081  12.435  67.314  1.00  0.00    -0.208 NA 
HETATM   31  H   UNL     1      -9.194  12.411  66.811  1.00  0.00     0.000 HD 
HETATM   32  N   UNL     1     -11.207  11.953  66.784  1.00  0.00    -0.311 NA 
HETATM   33  N   UNL     1     -12.134  12.185  67.702  1.00  0.00    -0.488 NA 
ENDBRANCH  27  28
ENDBRANCH  19  22
ENDBRANCH  15  16
ENDBRANCH  11  15
ENDBRANCH   4   5
ENDBRANCH   3   4
ENDBRANCH   2   3
TORSDOF 7
ENDMDL
MODEL       20
REMARK 921   NORMALIZED FREE ENERGY PREDICTED BY IDOCK:   -6.61 KCAL/MOL
REMARK 922        TOTAL FREE ENERGY PREDICTED BY IDOCK:  -11.26 KCAL/MOL
REMARK 923 INTER-LIGAND FREE ENERGY PREDICTED BY IDOCK:   -9.45 KCAL/MOL
REMARK 924 INTRA-LIGAND FREE ENERGY PREDICTED BY IDOCK:   -1.81 KCAL/MOL
REMARK 927      BINDING AFFINITY PREDICTED BY RF-SCORE:    0.00 PKD
ROOT
HETATM    1  C   UNL     1     -12.076  14.420  64.769  1.00  0.00    -0.462 C  
HETATM    2  C   UNL     1     -10.580  14.188  64.835  1.00  0.00    -0.449 C  
ENDROOT
BRANCH   2   3
HETATM    3  C   UNL     1     -10.259  12.745  65.210  1.00  0.00    -0.296 C  
BRANCH   3   4
HETATM    4  C   UNL     1     -11.479  12.018  65.766  1.00  0.00    -0.377 C  
BRANCH   4   5
HETATM    5  C   UNL     1     -11.189  11.490  67.143  1.00  0.00    -0.301 C  
HETATM    6  N   UNL     1     -10.656  10.313  67.274  1.00  0.00    -0.257 NA 
HETATM    7  C   UNL     1     -10.446  10.154  68.734  1.00  0.00    -0.204 C  
HETATM    8  C   UNL     1     -11.221  11.321  69.321  1.00  0.00    -0.272 C  
HETATM    9  C   UNL     1      -8.953  10.296  69.049  1.00  0.00    -0.175 C  
HETATM   10  O   UNL     1     -11.564  11.467  70.485  1.00  0.00    -0.245 OA 
HETATM   11  N   UNL     1     -11.450  12.176  68.272  1.00  0.00    -0.282 N  
HETATM   12  C   UNL     1      -8.750   9.358  70.228  1.00  0.00    -0.261 C  
HETATM   13  C   UNL     1      -9.612   8.161  69.862  1.00  0.00    -0.175 C  
HETATM   14  C   UNL     1     -10.861   8.765  69.216  1.00  0.00    -0.094 C  
BRANCH  11  15
HETATM   15  C   UNL     1     -12.025  13.504  68.471  1.00  0.00    -0.344 C  
BRANCH  15  16
HETATM   16  C   UNL     1     -10.961  14.569  68.668  1.00  0.00    -0.263 A  
HETATM   17  C   UNL     1     -11.294  15.846  69.116  1.00  0.00    -0.366 A  
HETATM   18  C   UNL     1     -10.366  16.896  69.047  1.00  0.00    -0.333 A  
HETATM   19  C   UNL     1      -9.046  16.700  68.594  1.00  0.00    -0.245 A  
HETATM   20  C   UNL     1      -8.673  15.369  68.363  1.00  0.00    -0.171 A  
HETATM   21  C   UNL     1      -9.620  14.328  68.342  1.00  0.00    -0.221 A  
BRANCH  19  22
HETATM   22  C   UNL     1      -8.148  17.875  68.325  1.00  0.00    -0.294 A  
HETATM   23  C   UNL     1      -7.026  18.077  69.170  1.00  0.00    -0.212 A  
HETATM   24  C   UNL     1      -6.197  19.202  69.081  1.00  0.00    -0.298 A  
HETATM   25  C   UNL     1      -6.430  20.155  68.107  1.00  0.00    -0.309 A  
HETATM   26  C   UNL     1      -7.494  19.979  67.228  1.00  0.00    -0.312 A  
HETATM   27  C   UNL     1      -8.371  18.867  67.326  1.00  0.00    -0.288 A  
BRANCH  27  28
HETATM   28  C   UNL     1      -9.485  18.871  66.381  1.00  0.00    -0.336 A  
HETATM   29  N   UNL     1      -9.883  17.780  65.693  1.00  0.00    -0.473 NA 
HETATM   30  N   UNL     1     -10.880  18.304  64.968  1.00  0.00    -0.490 NA 
HETATM   31  H   UNL     1     -11.427  17.742  64.316  1.00  0.00     0.000 HD 
HETATM   32  N   UNL     1     -11.116  19.606  65.149  1.00  0.00    -0.164 NA 
HETATM   33  N   UNL     1     -10.203  19.991  66.029  1.00  0.00    -0.485 NA 
ENDBRANCH  27  28
ENDBRANCH  19  22
ENDBRANCH  15  16
ENDBRANCH  11  15
ENDBRANCH   4   5
ENDBRANCH   3   4
ENDBRANCH   2   3
TORSDOF 7
ENDMDL
MODEL       21
REMARK 921   NORMALIZED FREE ENERGY PREDICTED BY IDOCK:   -6.57 KCAL/MOL
REMARK 922        TOTAL FREE ENERGY PREDICTED BY IDOCK:  -11.21 KCAL/MOL
REMARK 923 INTER-LIGAND FREE ENERGY PREDICTED BY IDOCK:   -9.57 KCAL/MOL
REMARK 924 INTRA-LIGAND FREE ENERGY PREDICTED BY IDOCK:   -1.64 KCAL/MOL
REMARK 927      BINDING AFFINITY PREDICTED BY RF-SCORE:    0.00 PKD
ROOT
HETATM    1  C   UNL     1     -12.167  12.014  63.460  1.00  0.00    -0.653 C  
HETATM    2  C   UNL     1     -10.711  11.670  63.220  1.00  0.00    -0.404 C  
ENDROOT
BRANCH   2   3
HETATM    3  C   UNL     1     -10.219  10.619  64.211  1.00  0.00    -0.391 C  
BRANCH   3   4
HETATM    4  C   UNL     1      -9.427  11.244  65.354  1.00  0.00    -0.251 C  
BRANCH   4   5
HETATM    5  C   UNL     1      -9.997  10.818  66.678  1.00  0.00    -0.206 C  
HETATM    6  N   UNL     1      -9.534   9.751  67.256  1.00  0.00    -0.151 NA 
HETATM    7  C   UNL     1     -10.259   9.677  68.548  1.00  0.00    -0.193 C  
HETATM    8  C   UNL     1     -11.355  10.717  68.387  1.00  0.00    -0.283 C  
HETATM    9  C   UNL     1      -9.311  10.077  69.685  1.00  0.00    -0.242 C  
HETATM   10  O   UNL     1     -12.359  10.842  69.072  1.00  0.00    -0.422 OA 
HETATM   11  N   UNL     1     -10.976  11.487  67.316  1.00  0.00    -0.255 N  
HETATM   12  C   UNL     1      -9.781   9.225  70.853  1.00  0.00    -0.346 C  
HETATM   13  C   UNL     1     -10.091   7.890  70.196  1.00  0.00    -0.194 C  
HETATM   14  C   UNL     1     -10.727   8.255  68.853  1.00  0.00    -0.089 C  
BRANCH  11  15
HETATM   15  C   UNL     1     -11.694  12.706  66.950  1.00  0.00    -0.383 C  
BRANCH  15  16
HETATM   16  C   UNL     1     -10.916  13.960  67.307  1.00  0.00    -0.299 A  
HETATM   17  C   UNL     1     -10.051  14.556  66.392  1.00  0.00    -0.293 A  
HETATM   18  C   UNL     1      -9.144  15.546  66.799  1.00  0.00    -0.282 A  
HETATM   19  C   UNL     1      -9.110  16.031  68.122  1.00  0.00    -0.187 A  
HETATM   20  C   UNL     1     -10.137  15.578  68.962  1.00  0.00    -0.234 A  
HETATM   21  C   UNL     1     -10.988  14.522  68.588  1.00  0.00    -0.263 A  
BRANCH  19  22
HETATM   22  C   UNL     1      -7.992  16.925  68.581  1.00  0.00    -0.256 A  
HETATM   23  C   UNL     1      -6.994  16.379  69.428  1.00  0.00    -0.210 A  
HETATM   24  C   UNL     1      -5.979  17.152  70.006  1.00  0.00    -0.183 A  
HETATM   25  C   UNL     1      -5.894  18.502  69.724  1.00  0.00    -0.260 A  
HETATM   26  C   UNL     1      -6.826  19.074  68.864  1.00  0.00    -0.347 A  
HETATM   27  C   UNL     1      -7.887  18.318  68.299  1.00  0.00    -0.310 A  
BRANCH  27  28
HETATM   28  C   UNL     1      -8.827  19.084  67.483  1.00  0.00    -0.289 A  
HETATM   29  N   UNL     1      -8.509  19.621  66.286  1.00  0.00    -0.354 NA 
HETATM   30  N   UNL     1      -9.665  20.226  65.981  1.00  0.00    -0.650 NA 
HETATM   31  H   UNL     1      -9.790  20.745  65.112  1.00  0.00     0.000 HD 
HETATM   32  N   UNL     1     -10.645  20.108  66.880  1.00  0.00    -0.318 NA 
HETATM   33  N   UNL     1     -10.108  19.405  67.868  1.00  0.00    -0.371 NA 
ENDBRANCH  27  28
ENDBRANCH  19  22
ENDBRANCH  15  16
ENDBRANCH  11  15
ENDBRANCH   4   5
ENDBRANCH   3   4
ENDBRANCH   2   3
TORSDOF 7
ENDMDL
MODEL       22
REMARK 921   NORMALIZED FREE ENERGY PREDICTED BY IDOCK:   -6.57 KCAL/MOL
REMARK 922        TOTAL FREE ENERGY PREDICTED BY IDOCK:  -11.20 KCAL/MOL
REMARK 923 INTER-LIGAND FREE ENERGY PREDICTED BY IDOCK:  -10.21 KCAL/MOL
REMARK 924 INTRA-LIGAND FREE ENERGY PREDICTED BY IDOCK:   -1.00 KCAL/MOL
REMARK 927      BINDING AFFINITY PREDICTED BY RF-SCORE:    0.00 PKD
ROOT
HETATM    1  C   UNL     1     -13.024  15.742  73.502  1.00  0.00    -0.693 C  
HETATM    2  C   UNL     1     -13.979  15.581  72.336  1.00  0.00    -0.653 C  
ENDROOT
BRANCH   2   3
HETATM    3  C   UNL     1     -13.225  15.386  71.024  1.00  0.00    -0.560 C  
BRANCH   3   4
HETATM    4  C   UNL     1     -11.904  14.654  71.232  1.00  0.00    -0.378 C  
BRANCH   4   5
HETATM    5  C   UNL     1     -11.643  13.713  70.089  1.00  0.00    -0.138 C  
HETATM    6  N   UNL     1     -10.930  14.119  69.082  1.00  0.00    -0.257 NA 
HETATM    7  C   UNL     1     -10.818  12.933  68.198  1.00  0.00    -0.236 C  
HETATM    8  C   UNL     1     -11.827  11.965  68.792  1.00  0.00    -0.313 C  
HETATM    9  C   UNL     1      -9.402  12.355  68.302  1.00  0.00    -0.199 C  
HETATM   10  O   UNL     1     -12.285  10.962  68.265  1.00  0.00    -0.526 OA 
HETATM   11  N   UNL     1     -12.110  12.451  70.043  1.00  0.00    -0.296 N  
HETATM   12  C   UNL     1      -9.141  11.806  66.909  1.00  0.00    -0.192 C  
HETATM   13  C   UNL     1      -9.754  12.864  66.007  1.00  0.00    -0.228 C  
HETATM   14  C   UNL     1     -11.029  13.302  66.730  1.00  0.00    -0.302 C  
BRANCH  11  15
HETATM   15  C   UNL     1     -12.917  11.697  70.999  1.00  0.00    -0.135 C  
BRANCH  15  16
HETATM   16  C   UNL     1     -12.350  10.315  71.269  1.00  0.00    -0.506 A  
HETATM   17  C   UNL     1     -10.980  10.070  71.186  1.00  0.00    -0.183 A  
HETATM   18  C   UNL     1     -10.484   8.758  71.175  1.00  0.00    -0.315 A  
HETATM   19  C   UNL     1     -11.328   7.638  71.315  1.00  0.00    -0.286 A  
HETATM   20  C   UNL     1     -12.667   7.919  71.620  1.00  0.00    -0.352 A  
HETATM   21  C   UNL     1     -13.185   9.225  71.542  1.00  0.00    -0.433 A  
BRANCH  19  22
HETATM   22  C   UNL     1     -10.801   6.250  71.080  1.00  0.00    -0.320 A  
HETATM   23  C   UNL     1     -10.693   5.370  72.189  1.00  0.00    -0.286 A  
HETATM   24  C   UNL     1     -10.107   4.102  72.101  1.00  0.00    -0.248 A  
HETATM   25  C   UNL     1      -9.641   3.640  70.885  1.00  0.00    -0.250 A  
HETATM   26  C   UNL     1      -9.764   4.450  69.761  1.00  0.00    -0.291 A  
HETATM   27  C   UNL     1     -10.319   5.755  69.835  1.00  0.00    -0.330 A  
BRANCH  27  28
HETATM   28  C   UNL     1     -10.301   6.507  68.582  1.00  0.00    -0.191 A  
HETATM   29  N   UNL     1     -11.280   6.434  67.655  1.00  0.00    -0.280 NA 
HETATM   30  N   UNL     1     -10.786   7.257  66.719  1.00  0.00    -0.528 NA 
HETATM   31  H   UNL     1     -11.284   7.447  65.851  1.00  0.00     0.000 HD 
HETATM   32  N   UNL     1      -9.603   7.812  66.992  1.00  0.00    -0.170 NA 
HETATM   33  N   UNL     1      -9.263   7.311  68.171  1.00  0.00    -0.133 NA 
ENDBRANCH  27  28
ENDBRANCH  19  22
ENDBRANCH  15  16
ENDBRANCH  11  15
ENDBRANCH   4   5
ENDBRANCH   3   4
ENDBRANCH   2   3
TORSDOF 7
ENDMDL
MODEL       23
REMARK 921   NORMALIZED FREE ENERGY PREDICTED BY IDOCK:   -6.54 KCAL/MOL
REMARK 922        TOTAL FREE ENERGY PREDICTED BY IDOCK:  -11.16 KCAL/MOL
REMARK 923 INTER-LIGAND FREE ENERGY PREDICTED BY IDOCK:   -9.73 KCAL/MOL
REMARK 924 INTRA-LIGAND FREE ENERGY PREDICTED BY IDOCK:   -1.44 KCAL/MOL
REMARK 927      BINDING AFFINITY PREDICTED BY RF-SCORE:    0.00 PKD
ROOT
HETATM    1  C   UNL     1     -13.602  13.268  72.298  1.00  0.00    -0.703 C  
HETATM    2  C   UNL     1     -13.693  14.760  72.543  1.00  0.00    -0.572 C  
ENDROOT
BRANCH   2   3
HETATM    3  C   UNL     1     -12.950  15.545  71.466  1.00  0.00    -0.545 C  
BRANCH   3   4
HETATM    4  C   UNL     1     -12.653  14.687  70.240  1.00  0.00    -0.370 C  
BRANCH   4   5
HETATM    5  C   UNL     1     -11.703  15.402  69.321  1.00  0.00    -0.349 C  
HETATM    6  N   UNL     1     -10.951  16.349  69.796  1.00  0.00    -0.351 NA 
HETATM    7  C   UNL     1     -10.107  16.769  68.651  1.00  0.00    -0.279 C  
HETATM    8  C   UNL     1     -10.762  16.076  67.468  1.00  0.00    -0.314 C  
HETATM    9  C   UNL     1      -8.681  16.243  68.852  1.00  0.00    -0.253 C  
HETATM   10  O   UNL     1     -10.591  16.320  66.283  1.00  0.00    -0.304 OA 
HETATM   11  N   UNL     1     -11.579  15.116  68.011  1.00  0.00    -0.341 N  
HETATM   12  C   UNL     1      -7.814  17.317  68.215  1.00  0.00    -0.244 C  
HETATM   13  C   UNL     1      -8.503  18.604  68.638  1.00  0.00    -0.337 C  
HETATM   14  C   UNL     1      -9.998  18.290  68.557  1.00  0.00    -0.413 C  
BRANCH  11  15
HETATM   15  C   UNL     1     -12.256  14.121  67.183  1.00  0.00    -0.313 C  
BRANCH  15  16
HETATM   16  C   UNL     1     -11.400  12.889  66.949  1.00  0.00    -0.358 A  
HETATM   17  C   UNL     1     -11.221  12.369  65.668  1.00  0.00    -0.360 A  
HETATM   18  C   UNL     1     -10.658  11.098  65.481  1.00  0.00    -0.289 A  
HETATM   19  C   UNL     1     -10.187  10.322  66.558  1.00  0.00    -0.289 A  
HETATM   20  C   UNL     1     -10.173  10.959  67.807  1.00  0.00    -0.209 A  
HETATM   21  C   UNL     1     -10.818  12.192  68.015  1.00  0.00    -0.258 A  
BRANCH  19  22
HETATM   22  C   UNL     1      -9.794   8.886  66.352  1.00  0.00    -0.353 A  
HETATM   23  C   UNL     1     -10.641   7.871  66.869  1.00  0.00    -0.333 A  
HETATM   24  C   UNL     1     -10.310   6.511  66.836  1.00  0.00    -0.311 A  
HETATM   25  C   UNL     1      -9.130   6.103  66.242  1.00  0.00    -0.165 A  
HETATM   26  C   UNL     1      -8.287   7.058  65.685  1.00  0.00    -0.137 A  
HETATM   27  C   UNL     1      -8.584   8.445  65.742  1.00  0.00    -0.181 A  
BRANCH  27  28
HETATM   28  C   UNL     1      -7.557   9.323  65.183  1.00  0.00    -0.106 A  
HETATM   29  N   UNL     1      -7.621   9.846  63.940  1.00  0.00    -0.137 NA 
HETATM   30  N   UNL     1      -6.465  10.523  63.905  1.00  0.00    -0.351 NA 
HETATM   31  H   UNL     1      -6.178  11.060  63.087  1.00  0.00     0.000 HD 
HETATM   32  N   UNL     1      -5.711  10.452  65.004  1.00  0.00    -0.129 NA 
HETATM   33  N   UNL     1      -6.385   9.654  65.821  1.00  0.00    -0.072 NA 
ENDBRANCH  27  28
ENDBRANCH  19  22
ENDBRANCH  15  16
ENDBRANCH  11  15
ENDBRANCH   4   5
ENDBRANCH   3   4
ENDBRANCH   2   3
TORSDOF 7
ENDMDL
MODEL       24
REMARK 921   NORMALIZED FREE ENERGY PREDICTED BY IDOCK:   -6.54 KCAL/MOL
REMARK 922        TOTAL FREE ENERGY PREDICTED BY IDOCK:  -11.16 KCAL/MOL
REMARK 923 INTER-LIGAND FREE ENERGY PREDICTED BY IDOCK:   -9.57 KCAL/MOL
REMARK 924 INTRA-LIGAND FREE ENERGY PREDICTED BY IDOCK:   -1.59 KCAL/MOL
REMARK 927      BINDING AFFINITY PREDICTED BY RF-SCORE:    0.00 PKD
ROOT
HETATM    1  C   UNL     1     -12.622   9.217  71.350  1.00  0.00    -0.411 C  
HETATM    2  C   UNL     1     -11.888   8.156  72.146  1.00  0.00    -0.417 C  
ENDROOT
BRANCH   2   3
HETATM    3  C   UNL     1     -10.880   7.410  71.277  1.00  0.00    -0.258 C  
BRANCH   3   4
HETATM    4  C   UNL     1     -11.567   6.557  70.216  1.00  0.00    -0.473 C  
BRANCH   4   5
HETATM    5  C   UNL     1     -10.544   5.815  69.401  1.00  0.00    -0.313 C  
HETATM    6  N   UNL     1      -9.763   4.960  69.989  1.00  0.00    -0.193 NA 
HETATM    7  C   UNL     1      -8.952   4.376  68.893  1.00  0.00    -0.109 C  
HETATM    8  C   UNL     1      -9.261   5.284  67.715  1.00  0.00    -0.112 C  
HETATM    9  C   UNL     1      -9.438   2.951  68.606  1.00  0.00    -0.192 C  
HETATM   10  O   UNL     1      -8.639   5.369  66.666  1.00  0.00    -0.114 OA 
HETATM   11  N   UNL     1     -10.386   5.983  68.075  1.00  0.00    -0.179 N  
HETATM   12  C   UNL     1      -8.172   2.222  68.187  1.00  0.00    -0.072 C  
HETATM   13  C   UNL     1      -7.128   2.778  69.142  1.00  0.00    -0.044 C  
HETATM   14  C   UNL     1      -7.478   4.261  69.280  1.00  0.00    -0.055 C  
BRANCH  11  15
HETATM   15  C   UNL     1     -11.096   6.841  67.130  1.00  0.00    -0.333 C  
BRANCH  15  16
HETATM   16  C   UNL     1     -10.543   8.255  67.110  1.00  0.00    -0.340 A  
HETATM   17  C   UNL     1     -11.019   9.228  67.987  1.00  0.00    -0.076 A  
HETATM   18  C   UNL     1     -10.706  10.582  67.797  1.00  0.00    -0.319 A  
HETATM   19  C   UNL     1      -9.848  11.015  66.766  1.00  0.00    -0.229 A  
HETATM   20  C   UNL     1      -9.208  10.000  66.041  1.00  0.00    -0.204 A  
HETATM   21  C   UNL     1      -9.587   8.650  66.166  1.00  0.00    -0.305 A  
BRANCH  19  22
HETATM   22  C   UNL     1      -9.706  12.478  66.453  1.00  0.00    -0.253 A  
HETATM   23  C   UNL     1      -8.854  13.265  67.270  1.00  0.00    -0.216 A  
HETATM   24  C   UNL     1      -8.743  14.655  67.139  1.00  0.00    -0.242 A  
HETATM   25  C   UNL     1      -9.450  15.313  66.150  1.00  0.00    -0.361 A  
HETATM   26  C   UNL     1     -10.267  14.577  65.298  1.00  0.00    -0.431 A  
HETATM   27  C   UNL     1     -10.425  13.174  65.438  1.00  0.00    -0.307 A  
BRANCH  27  28
HETATM   28  C   UNL     1     -11.380  12.562  64.516  1.00  0.00    -0.330 A  
HETATM   29  N   UNL     1     -11.023  11.720  63.523  1.00  0.00    -0.418 NA 
HETATM   30  N   UNL     1     -12.220  11.480  62.971  1.00  0.00    -0.941 NA 
HETATM   31  H   UNL     1     -12.330  10.860  62.169  1.00  0.00     0.000 HD 
HETATM   32  N   UNL     1     -13.260  12.100  63.532  1.00  0.00    -0.614 NA 
HETATM   33  N   UNL     1     -12.730  12.827  64.505  1.00  0.00    -0.710 NA 
ENDBRANCH  27  28
ENDBRANCH  19  22
ENDBRANCH  15  16
ENDBRANCH  11  15
ENDBRANCH   4   5
ENDBRANCH   3   4
ENDBRANCH   2   3
TORSDOF 7
ENDMDL
MODEL       25
REMARK 921   NORMALIZED FREE ENERGY PREDICTED BY IDOCK:   -6.52 KCAL/MOL
REMARK 922        TOTAL FREE ENERGY PREDICTED BY IDOCK:  -11.14 KCAL/MOL
REMARK 923 INTER-LIGAND FREE ENERGY PREDICTED BY IDOCK:   -9.13 KCAL/MOL
REMARK 924 INTRA-LIGAND FREE ENERGY PREDICTED BY IDOCK:   -2.01 KCAL/MOL
REMARK 927      BINDING AFFINITY PREDICTED BY RF-SCORE:    0.00 PKD
ROOT
HETATM    1  C   UNL     1      -7.876  12.563  67.097  1.00  0.00    -0.123 C  
HETATM    2  C   UNL     1      -8.108  12.324  68.575  1.00  0.00    -0.101 C  
ENDROOT
BRANCH   2   3
HETATM    3  C   UNL     1      -7.692  10.913  68.980  1.00  0.00    -0.135 C  
BRANCH   3   4
HETATM    4  C   UNL     1      -7.526  10.000  67.770  1.00  0.00    -0.089 C  
BRANCH   4   5
HETATM    5  C   UNL     1      -8.452   8.821  67.876  1.00  0.00    -0.126 C  
HETATM    6  N   UNL     1      -8.030   7.730  68.441  1.00  0.00    -0.121 NA 
HETATM    7  C   UNL     1      -9.206   6.825  68.436  1.00  0.00    -0.123 C  
HETATM    8  C   UNL     1     -10.188   7.542  67.525  1.00  0.00    -0.223 C  
HETATM    9  C   UNL     1      -9.774   6.726  69.856  1.00  0.00    -0.164 C  
HETATM   10  O   UNL     1     -11.189   7.072  67.004  1.00  0.00    -0.328 OA 
HETATM   11  N   UNL     1      -9.717   8.826  67.415  1.00  0.00    -0.164 N  
HETATM   12  C   UNL     1     -10.307   5.304  69.926  1.00  0.00    -0.374 C  
HETATM   13  C   UNL     1      -9.244   4.507  69.188  1.00  0.00    -0.194 C  
HETATM   14  C   UNL     1      -8.824   5.405  68.022  1.00  0.00    -0.105 C  
BRANCH  11  15
HETATM   15  C   UNL     1     -10.487   9.876  66.752  1.00  0.00    -0.191 C  
BRANCH  15  16
HETATM   16  C   UNL     1     -11.169  10.803  67.742  1.00  0.00    -0.385 A  
HETATM   17  C   UNL     1     -11.559  12.089  67.374  1.00  0.00    -0.388 A  
HETATM   18  C   UNL     1     -11.943  13.029  68.342  1.00  0.00    -0.309 A  
HETATM   19  C   UNL     1     -12.020  12.704  69.711  1.00  0.00    -0.365 A  
HETATM   20  C   UNL     1     -11.840  11.350  70.026  1.00  0.00    -0.440 A  
HETATM   21  C   UNL     1     -11.367  10.426  69.076  1.00  0.00    -0.279 A  
BRANCH  19  22
HETATM   22  C   UNL     1     -12.219  13.779  70.743  1.00  0.00    -0.437 A  
HETATM   23  C   UNL     1     -13.059  13.505  71.853  1.00  0.00    -0.475 A  
HETATM   24  C   UNL     1     -13.404  14.472  72.805  1.00  0.00    -0.600 A  
HETATM   25  C   UNL     1     -12.886  15.750  72.709  1.00  0.00    -0.569 A  
HETATM   26  C   UNL     1     -12.024  16.054  71.661  1.00  0.00    -0.569 A  
HETATM   27  C   UNL     1     -11.692  15.100  70.663  1.00  0.00    -0.356 A  
BRANCH  27  28
HETATM   28  C   UNL     1     -10.840  15.602  69.586  1.00  0.00    -0.287 A  
HETATM   29  N   UNL     1      -9.498  15.458  69.570  1.00  0.00    -0.264 NA 
HETATM   30  N   UNL     1      -9.203  16.097  68.429  1.00  0.00    -0.197 NA 
HETATM   31  H   UNL     1      -8.245  16.182  68.091  1.00  0.00     0.000 HD 
HETATM   32  N   UNL     1     -10.237  16.614  67.762  1.00  0.00    -0.282 NA 
HETATM   33  N   UNL     1     -11.292  16.333  68.513  1.00  0.00    -0.367 NA 
ENDBRANCH  27  28
ENDBRANCH  19  22
ENDBRANCH  15  16
ENDBRANCH  11  15
ENDBRANCH   4   5
ENDBRANCH   3   4
ENDBRANCH   2   3
TORSDOF 7
ENDMDL
MODEL       26
REMARK 921   NORMALIZED FREE ENERGY PREDICTED BY IDOCK:   -6.51 KCAL/MOL
REMARK 922        TOTAL FREE ENERGY PREDICTED BY IDOCK:  -11.13 KCAL/MOL
REMARK 923 INTER-LIGAND FREE ENERGY PREDICTED BY IDOCK:   -9.28 KCAL/MOL
REMARK 924 INTRA-LIGAND FREE ENERGY PREDICTED BY IDOCK:   -1.85 KCAL/MOL
REMARK 927      BINDING AFFINITY PREDICTED BY RF-SCORE:    0.00 PKD
ROOT
HETATM    1  C   UNL     1      -6.160   8.445  67.453  1.00  0.00    -0.052 C  
HETATM    2  C   UNL     1      -6.246   8.006  68.901  1.00  0.00    -0.040 C  
ENDROOT
BRANCH   2   3
HETATM    3  C   UNL     1      -6.645   6.537  69.012  1.00  0.00    -0.047 C  
BRANCH   3   4
HETATM    4  C   UNL     1      -8.015   6.273  68.398  1.00  0.00    -0.105 C  
BRANCH   4   5
HETATM    5  C   UNL     1      -9.088   6.397  69.444  1.00  0.00    -0.140 C  
HETATM    6  N   UNL     1      -8.854   5.967  70.648  1.00  0.00    -0.141 NA 
HETATM    7  C   UNL     1     -10.077   6.311  71.414  1.00  0.00    -0.191 C  
HETATM    8  C   UNL     1     -11.059   6.720  70.329  1.00  0.00    -0.310 C  
HETATM    9  C   UNL     1      -9.779   7.498  72.337  1.00  0.00    -0.208 C  
HETATM   10  O   UNL     1     -12.270   6.836  70.438  1.00  0.00    -0.324 OA 
HETATM   11  N   UNL     1     -10.298   6.937  69.208  1.00  0.00    -0.190 N  
HETATM   12  C   UNL     1     -10.658   7.234  73.549  1.00  0.00    -0.408 C  
HETATM   13  C   UNL     1     -10.533   5.731  73.737  1.00  0.00    -0.291 C  
HETATM   14  C   UNL     1     -10.519   5.161  72.317  1.00  0.00    -0.277 C  
BRANCH  11  15
HETATM   15  C   UNL     1     -10.865   7.513  67.991  1.00  0.00    -0.030 C  
BRANCH  15  16
HETATM   16  C   UNL     1     -10.343   8.912  67.719  1.00  0.00    -0.301 A  
HETATM   17  C   UNL     1     -10.695   9.985  68.536  1.00  0.00    -0.264 A  
HETATM   18  C   UNL     1     -10.434  11.305  68.141  1.00  0.00    -0.215 A  
HETATM   19  C   UNL     1      -9.749  11.608  66.947  1.00  0.00    -0.211 A  
HETATM   20  C   UNL     1      -9.211  10.511  66.259  1.00  0.00    -0.192 A  
HETATM   21  C   UNL     1      -9.547   9.188  66.600  1.00  0.00    -0.263 A  
BRANCH  19  22
HETATM   22  C   UNL     1      -9.677  13.022  66.444  1.00  0.00    -0.268 A  
HETATM   23  C   UNL     1      -8.804  13.930  67.097  1.00  0.00    -0.236 A  
HETATM   24  C   UNL     1      -8.750  15.294  66.786  1.00  0.00    -0.304 A  
HETATM   25  C   UNL     1      -9.539  15.802  65.771  1.00  0.00    -0.355 A  
HETATM   26  C   UNL     1     -10.381  14.942  65.073  1.00  0.00    -0.401 A  
HETATM   27  C   UNL     1     -10.481  13.563  65.399  1.00  0.00    -0.322 A  
BRANCH  27  28
HETATM   28  C   UNL     1     -11.469  12.814  64.626  1.00  0.00    -0.324 A  
HETATM   29  N   UNL     1     -11.176  12.144  63.491  1.00  0.00    -0.448 NA 
HETATM   30  N   UNL     1     -12.389  11.676  63.169  1.00  0.00    -0.966 NA 
HETATM   31  H   UNL     1     -12.543  11.102  62.340  1.00  0.00     0.000 HD 
HETATM   32  N   UNL     1     -13.383  12.003  63.997  1.00  0.00    -0.625 NA 
HETATM   33  N   UNL     1     -12.812  12.765  64.919  1.00  0.00    -0.825 NA 
ENDBRANCH  27  28
ENDBRANCH  19  22
ENDBRANCH  15  16
ENDBRANCH  11  15
ENDBRANCH   4   5
ENDBRANCH   3   4
ENDBRANCH   2   3
TORSDOF 7
ENDMDL
MODEL       27
REMARK 921   NORMALIZED FREE ENERGY PREDICTED BY IDOCK:   -6.51 KCAL/MOL
REMARK 922        TOTAL FREE ENERGY PREDICTED BY IDOCK:  -11.12 KCAL/MOL
REMARK 923 INTER-LIGAND FREE ENERGY PREDICTED BY IDOCK:   -9.67 KCAL/MOL
REMARK 924 INTRA-LIGAND FREE ENERGY PREDICTED BY IDOCK:   -1.46 KCAL/MOL
REMARK 927      BINDING AFFINITY PREDICTED BY RF-SCORE:    0.00 PKD
ROOT
HETATM    1  C   UNL     1     -10.369  10.932  63.443  1.00  0.00    -0.299 C  
HETATM    2  C   UNL     1     -10.529  12.438  63.490  1.00  0.00    -0.430 C  
ENDROOT
BRANCH   2   3
HETATM    3  C   UNL     1     -11.903  12.833  64.022  1.00  0.00    -0.506 C  
BRANCH   3   4
HETATM    4  C   UNL     1     -12.178  12.224  65.393  1.00  0.00    -0.279 C  
BRANCH   4   5
HETATM    5  C   UNL     1     -11.451  12.994  66.460  1.00  0.00    -0.340 C  
HETATM    6  N   UNL     1     -11.931  14.134  66.860  1.00  0.00    -0.433 NA 
HETATM    7  C   UNL     1     -11.018  14.565  67.947  1.00  0.00    -0.269 C  
HETATM    8  C   UNL     1      -9.854  13.596  67.824  1.00  0.00    -0.232 C  
HETATM    9  C   UNL     1     -11.719  14.384  69.298  1.00  0.00    -0.358 C  
HETATM   10  O   UNL     1      -8.745  13.710  68.323  1.00  0.00    -0.167 OA 
HETATM   11  N   UNL     1     -10.313  12.568  67.040  1.00  0.00    -0.224 N  
HETATM   12  C   UNL     1     -11.164  15.522  70.140  1.00  0.00    -0.331 C  
HETATM   13  C   UNL     1     -11.115  16.679  69.155  1.00  0.00    -0.219 C  
HETATM   14  C   UNL     1     -10.668  16.048  67.835  1.00  0.00    -0.316 C  
BRANCH  11  15
HETATM   15  C   UNL     1      -9.534  11.350  66.832  1.00  0.00    -0.179 C  
BRANCH  15  16
HETATM   16  C   UNL     1      -9.969  10.223  67.752  1.00  0.00    -0.203 A  
HETATM   17  C   UNL     1     -10.103  10.425  69.125  1.00  0.00    -0.236 A  
HETATM   18  C   UNL     1     -10.245   9.339  70.000  1.00  0.00    -0.244 A  
HETATM   19  C   UNL     1     -10.328   8.010  69.538  1.00  0.00    -0.221 A  
HETATM   20  C   UNL     1     -10.416   7.855  68.147  1.00  0.00    -0.227 A  
HETATM   21  C   UNL     1     -10.183   8.928  67.267  1.00  0.00    -0.326 A  
BRANCH  19  22
HETATM   22  C   UNL     1     -10.259   6.859  70.502  1.00  0.00    -0.209 A  
HETATM   23  C   UNL     1      -9.249   5.879  70.314  1.00  0.00    -0.170 A  
HETATM   24  C   UNL     1      -9.170   4.709  71.079  1.00  0.00    -0.195 A  
HETATM   25  C   UNL     1     -10.077   4.491  72.100  1.00  0.00    -0.260 A  
HETATM   26  C   UNL     1     -11.059   5.444  72.349  1.00  0.00    -0.289 A  
HETATM   27  C   UNL     1     -11.181   6.617  71.560  1.00  0.00    -0.313 A  
BRANCH  27  28
HETATM   28  C   UNL     1     -12.315   7.477  71.898  1.00  0.00    -0.310 A  
HETATM   29  N   UNL     1     -12.307   8.346  72.931  1.00  0.00    -0.191 NA 
HETATM   30  N   UNL     1     -13.548   8.843  72.834  1.00  0.00    -0.908 NA 
HETATM   31  H   UNL     1     -13.896   9.554  73.476  1.00  0.00     0.000 HD 
HETATM   32  N   UNL     1     -14.301   8.353  71.847  1.00  0.00    -0.458 NA 
HETATM   33  N   UNL     1     -13.532   7.447  71.259  1.00  0.00    -0.323 NA 
ENDBRANCH  27  28
ENDBRANCH  19  22
ENDBRANCH  15  16
ENDBRANCH  11  15
ENDBRANCH   4   5
ENDBRANCH   3   4
ENDBRANCH   2   3
TORSDOF 7
ENDMDL
MODEL       28
REMARK 921   NORMALIZED FREE ENERGY PREDICTED BY IDOCK:   -6.49 KCAL/MOL
REMARK 922        TOTAL FREE ENERGY PREDICTED BY IDOCK:  -11.09 KCAL/MOL
REMARK 923 INTER-LIGAND FREE ENERGY PREDICTED BY IDOCK:   -9.31 KCAL/MOL
REMARK 924 INTRA-LIGAND FREE ENERGY PREDICTED BY IDOCK:   -1.78 KCAL/MOL
REMARK 927      BINDING AFFINITY PREDICTED BY RF-SCORE:    0.00 PKD
ROOT
HETATM    1  C   UNL     1     -12.041  12.020  63.472  1.00  0.00    -0.628 C  
HETATM    2  C   UNL     1     -10.565  11.704  63.335  1.00  0.00    -0.472 C  
ENDROOT
BRANCH   2   3
HETATM    3  C   UNL     1     -10.148  10.583  64.283  1.00  0.00    -0.380 C  
BRANCH   3   4
HETATM    4  C   UNL     1      -9.308  11.103  65.444  1.00  0.00    -0.243 C  
BRANCH   4   5
HETATM    5  C   UNL     1      -9.918  10.692  66.754  1.00  0.00    -0.209 C  
HETATM    6  N   UNL     1      -9.434   9.665  67.386  1.00  0.00    -0.140 NA 
HETATM    7  C   UNL     1     -10.213   9.598  68.647  1.00  0.00    -0.189 C  
HETATM    8  C   UNL     1     -11.345  10.581  68.404  1.00  0.00    -0.262 C  
HETATM    9  C   UNL     1      -9.335  10.074  69.810  1.00  0.00    -0.233 C  
HETATM   10  O   UNL     1     -12.384  10.680  69.041  1.00  0.00    -0.355 OA 
HETATM   11  N   UNL     1     -10.954  11.334  67.327  1.00  0.00    -0.270 N  
HETATM   12  C   UNL     1      -9.819   9.237  70.984  1.00  0.00    -0.355 C  
HETATM   13  C   UNL     1     -10.040   7.870  70.358  1.00  0.00    -0.194 C  
HETATM   14  C   UNL     1     -10.630   8.165  68.977  1.00  0.00    -0.167 C  
BRANCH  11  15
HETATM   15  C   UNL     1     -11.707  12.508  66.892  1.00  0.00    -0.377 C  
BRANCH  15  16
HETATM   16  C   UNL     1     -10.893  13.785  66.994  1.00  0.00    -0.288 A  
HETATM   17  C   UNL     1     -10.463  14.269  68.229  1.00  0.00    -0.247 A  
HETATM   18  C   UNL     1      -9.947  15.567  68.352  1.00  0.00    -0.214 A  
HETATM   19  C   UNL     1      -9.773  16.412  67.237  1.00  0.00    -0.239 A  
HETATM   20  C   UNL     1     -10.001  15.823  65.986  1.00  0.00    -0.358 A  
HETATM   21  C   UNL     1     -10.604  14.558  65.863  1.00  0.00    -0.315 A  
BRANCH  19  22
HETATM   22  C   UNL     1      -9.428  17.863  67.424  1.00  0.00    -0.258 A  
HETATM   23  C   UNL     1     -10.481  18.814  67.437  1.00  0.00    -0.490 A  
HETATM   24  C   UNL     1     -10.261  20.196  67.486  1.00  0.00    -0.520 A  
HETATM   25  C   UNL     1      -8.971  20.686  67.567  1.00  0.00    -0.321 A  
HETATM   26  C   UNL     1      -7.907  19.790  67.599  1.00  0.00    -0.326 A  
HETATM   27  C   UNL     1      -8.106  18.387  67.512  1.00  0.00    -0.253 A  
BRANCH  27  28
HETATM   28  C   UNL     1      -6.881  17.589  67.477  1.00  0.00    -0.159 A  
HETATM   29  N   UNL     1      -6.352  17.087  66.341  1.00  0.00    -0.242 NA 
HETATM   30  N   UNL     1      -5.295  16.431  66.839  1.00  0.00    -0.349 NA 
HETATM   31  H   UNL     1      -4.646  15.920  66.242  1.00  0.00     0.000 HD 
HETATM   32  N   UNL     1      -5.142  16.486  68.164  1.00  0.00    -0.104 NA 
HETATM   33  N   UNL     1      -6.175  17.199  68.590  1.00  0.00    -0.154 NA 
ENDBRANCH  27  28
ENDBRANCH  19  22
ENDBRANCH  15  16
ENDBRANCH  11  15
ENDBRANCH   4   5
ENDBRANCH   3   4
ENDBRANCH   2   3
TORSDOF 7
ENDMDL
MODEL       29
REMARK 921   NORMALIZED FREE ENERGY PREDICTED BY IDOCK:   -6.47 KCAL/MOL
REMARK 922        TOTAL FREE ENERGY PREDICTED BY IDOCK:  -11.06 KCAL/MOL
REMARK 923 INTER-LIGAND FREE ENERGY PREDICTED BY IDOCK:   -9.18 KCAL/MOL
REMARK 924 INTRA-LIGAND FREE ENERGY PREDICTED BY IDOCK:   -1.88 KCAL/MOL
REMARK 927      BINDING AFFINITY PREDICTED BY RF-SCORE:    0.00 PKD
ROOT
HETATM    1  C   UNL     1     -11.119  11.371  63.593  1.00  0.00    -0.411 C  
HETATM    2  C   UNL     1     -12.468  11.991  63.899  1.00  0.00    -0.543 C  
ENDROOT
BRANCH   2   3
HETATM    3  C   UNL     1     -12.318  13.256  64.738  1.00  0.00    -0.454 C  
BRANCH   3   4
HETATM    4  C   UNL     1     -11.059  14.035  64.372  1.00  0.00    -0.300 C  
BRANCH   4   5
HETATM    5  C   UNL     1     -10.462  14.667  65.598  1.00  0.00    -0.342 C  
HETATM    6  N   UNL     1     -10.772  15.892  65.897  1.00  0.00    -0.317 NA 
HETATM    7  C   UNL     1     -10.075  16.155  67.180  1.00  0.00    -0.269 C  
HETATM    8  C   UNL     1      -9.146  14.961  67.317  1.00  0.00    -0.201 C  
HETATM    9  C   UNL     1     -11.099  16.165  68.320  1.00  0.00    -0.348 C  
HETATM   10  O   UNL     1      -8.189  14.854  68.069  1.00  0.00    -0.130 OA 
HETATM   11  N   UNL     1      -9.611  14.029  66.424  1.00  0.00    -0.288 N  
HETATM   12  C   UNL     1     -10.534  17.186  69.295  1.00  0.00    -0.267 C  
HETATM   13  C   UNL     1     -10.010  18.277  68.377  1.00  0.00    -0.401 C  
HETATM   14  C   UNL     1      -9.405  17.528  67.187  1.00  0.00    -0.250 C  
BRANCH  11  15
HETATM   15  C   UNL     1      -9.079  12.669  66.381  1.00  0.00    -0.110 C  
BRANCH  15  16
HETATM   16  C   UNL     1      -9.548  11.829  67.556  1.00  0.00    -0.179 A  
HETATM   17  C   UNL     1      -8.637  11.198  68.400  1.00  0.00    -0.152 A  
HETATM   18  C   UNL     1      -9.060  10.221  69.313  1.00  0.00    -0.206 A  
HETATM   19  C   UNL     1     -10.419   9.882  69.471  1.00  0.00    -0.261 A  
HETATM   20  C   UNL     1     -11.331  10.688  68.774  1.00  0.00    -0.339 A  
HETATM   21  C   UNL     1     -10.910  11.603  67.792  1.00  0.00    -0.264 A  
BRANCH  19  22
HETATM   22  C   UNL     1     -10.820   8.688  70.290  1.00  0.00    -0.250 A  
HETATM   23  C   UNL     1     -11.134   8.882  71.660  1.00  0.00    -0.420 A  
HETATM   24  C   UNL     1     -11.403   7.824  72.538  1.00  0.00    -0.429 A  
HETATM   25  C   UNL     1     -11.412   6.524  72.068  1.00  0.00    -0.342 A  
HETATM   26  C   UNL     1     -11.151   6.288  70.723  1.00  0.00    -0.377 A  
HETATM   27  C   UNL     1     -10.837   7.342  69.824  1.00  0.00    -0.251 A  
BRANCH  27  28
HETATM   28  C   UNL     1     -10.508   6.919  68.464  1.00  0.00    -0.203 A  
HETATM   29  N   UNL     1     -11.394   6.932  67.445  1.00  0.00    -0.132 NA 
HETATM   30  N   UNL     1     -10.633   6.438  66.460  1.00  0.00    -0.493 NA 
HETATM   31  H   UNL     1     -10.991   6.309  65.514  1.00  0.00     0.000 HD 
HETATM   32  N   UNL     1      -9.378   6.123  66.789  1.00  0.00    -0.136 NA 
HETATM   33  N   UNL     1      -9.295   6.395  68.084  1.00  0.00    -0.110 NA 
ENDBRANCH  27  28
ENDBRANCH  19  22
ENDBRANCH  15  16
ENDBRANCH  11  15
ENDBRANCH   4   5
ENDBRANCH   3   4
ENDBRANCH   2   3
TORSDOF 7
ENDMDL
MODEL       30
REMARK 921   NORMALIZED FREE ENERGY PREDICTED BY IDOCK:   -6.47 KCAL/MOL
REMARK 922        TOTAL FREE ENERGY PREDICTED BY IDOCK:  -11.06 KCAL/MOL
REMARK 923 INTER-LIGAND FREE ENERGY PREDICTED BY IDOCK:   -9.44 KCAL/MOL
REMARK 924 INTRA-LIGAND FREE ENERGY PREDICTED BY IDOCK:   -1.62 KCAL/MOL
REMARK 927      BINDING AFFINITY PREDICTED BY RF-SCORE:    0.00 PKD
ROOT
HETATM    1  C   UNL     1     -13.128  12.183  71.849  1.00  0.00    -0.475 C  
HETATM    2  C   UNL     1     -12.940  10.715  71.526  1.00  0.00    -0.566 C  
ENDROOT
BRANCH   2   3
HETATM    3  C   UNL     1     -11.885  10.516  70.442  1.00  0.00    -0.431 C  
BRANCH   3   4
HETATM    4  C   UNL     1     -12.072  11.489  69.283  1.00  0.00    -0.344 C  
BRANCH   4   5
HETATM    5  C   UNL     1     -11.124  11.157  68.165  1.00  0.00    -0.264 C  
HETATM    6  N   UNL     1     -10.165  10.307  68.377  1.00  0.00    -0.160 NA 
HETATM    7  C   UNL     1      -9.489  10.168  67.064  1.00  0.00    -0.167 C  
HETATM    8  C   UNL     1     -10.090  11.298  66.246  1.00  0.00    -0.230 C  
HETATM    9  C   UNL     1      -9.855   8.813  66.447  1.00  0.00    -0.352 C  
HETATM   10  O   UNL     1      -9.665  11.754  65.194  1.00  0.00    -0.243 OA 
HETATM   11  N   UNL     1     -11.209  11.694  66.933  1.00  0.00    -0.308 N  
HETATM   12  C   UNL     1      -8.603   8.426  65.676  1.00  0.00    -0.197 C  
HETATM   13  C   UNL     1      -7.483   8.861  66.606  1.00  0.00    -0.086 C  
HETATM   14  C   UNL     1      -7.968  10.182  67.208  1.00  0.00    -0.110 C  
BRANCH  11  15
HETATM   15  C   UNL     1     -12.158  12.654  66.374  1.00  0.00    -0.260 C  
BRANCH  15  16
HETATM   16  C   UNL     1     -11.713  14.091  66.579  1.00  0.00    -0.412 A  
HETATM   17  C   UNL     1     -11.173  14.834  65.531  1.00  0.00    -0.346 A  
HETATM   18  C   UNL     1     -10.525  16.054  65.775  1.00  0.00    -0.391 A  
HETATM   19  C   UNL     1     -10.449  16.617  67.064  1.00  0.00    -0.283 A  
HETATM   20  C   UNL     1     -11.191  15.963  68.058  1.00  0.00    -0.319 A  
HETATM   21  C   UNL     1     -11.764  14.696  67.840  1.00  0.00    -0.379 A  
BRANCH  19  22
HETATM   22  C   UNL     1      -9.567  17.805  67.330  1.00  0.00    -0.264 A  
HETATM   23  C   UNL     1     -10.090  19.103  67.094  1.00  0.00    -0.457 A  
HETATM   24  C   UNL     1      -9.317  20.266  67.196  1.00  0.00    -0.536 A  
HETATM   25  C   UNL     1      -7.992  20.182  67.583  1.00  0.00    -0.327 A  
HETATM   26  C   UNL     1      -7.447  18.934  67.865  1.00  0.00    -0.269 A  
HETATM   27  C   UNL     1      -8.201  17.739  67.731  1.00  0.00    -0.227 A  
BRANCH  27  28
HETATM   28  C   UNL     1      -7.459  16.506  67.986  1.00  0.00    -0.156 A  
HETATM   29  N   UNL     1      -7.298  15.975  69.217  1.00  0.00    -0.225 NA 
HETATM   30  N   UNL     1      -6.543  14.909  68.921  1.00  0.00    -0.087 NA 
HETATM   31  H   UNL     1      -6.226  14.256  69.638  1.00  0.00     0.000 HD 
HETATM   32  N   UNL     1      -6.230  14.750  67.633  1.00  0.00    -0.292 NA 
HETATM   33  N   UNL     1      -6.784  15.790  67.026  1.00  0.00    -0.281 NA 
ENDBRANCH  27  28
ENDBRANCH  19  22
ENDBRANCH  15  16
ENDBRANCH  11  15
ENDBRANCH   4   5
ENDBRANCH   3   4
ENDBRANCH   2   3
TORSDOF 7
ENDMDL
MODEL       31
REMARK 921   NORMALIZED FREE ENERGY PREDICTED BY IDOCK:   -6.44 KCAL/MOL
REMARK 922        TOTAL FREE ENERGY PREDICTED BY IDOCK:  -11.03 KCAL/MOL
REMARK 923 INTER-LIGAND FREE ENERGY PREDICTED BY IDOCK:   -9.61 KCAL/MOL
REMARK 924 INTRA-LIGAND FREE ENERGY PREDICTED BY IDOCK:   -1.41 KCAL/MOL
REMARK 927      BINDING AFFINITY PREDICTED BY RF-SCORE:    0.00 PKD
ROOT
HETATM    1  C   UNL     1     -13.964  15.191  71.604  1.00  0.00    -0.618 C  
HETATM    2  C   UNL     1     -12.561  15.713  71.369  1.00  0.00    -0.519 C  
ENDROOT
BRANCH   2   3
HETATM    3  C   UNL     1     -11.850  14.920  70.277  1.00  0.00    -0.358 C  
BRANCH   3   4
HETATM    4  C   UNL     1     -12.259  15.381  68.883  1.00  0.00    -0.118 C  
BRANCH   4   5
HETATM    5  C   UNL     1     -11.118  16.097  68.215  1.00  0.00    -0.348 C  
HETATM    6  N   UNL     1     -10.671  17.202  68.732  1.00  0.00    -0.323 NA 
HETATM    7  C   UNL     1      -9.522  17.581  67.874  1.00  0.00    -0.277 C  
HETATM    8  C   UNL     1      -9.654  16.641  66.687  1.00  0.00    -0.263 C  
HETATM    9  C   UNL     1      -8.215  17.307  68.626  1.00  0.00    -0.262 C  
HETATM   10  O   UNL     1      -9.103  16.743  65.602  1.00  0.00    -0.489 OA 
HETATM   11  N   UNL     1     -10.517  15.655  67.094  1.00  0.00    -0.297 N  
HETATM   12  C   UNL     1      -7.284  18.400  68.127  1.00  0.00    -0.270 C  
HETATM   13  C   UNL     1      -8.194  19.616  68.060  1.00  0.00    -0.347 C  
HETATM   14  C   UNL     1      -9.530  19.074  67.548  1.00  0.00    -0.351 C  
BRANCH  11  15
HETATM   15  C   UNL     1     -10.765  14.465  66.284  1.00  0.00    -0.307 C  
BRANCH  15  16
HETATM   16  C   UNL     1     -10.647  13.184  67.090  1.00  0.00    -0.259 A  
HETATM   17  C   UNL     1     -11.672  12.240  67.098  1.00  0.00    -0.396 A  
HETATM   18  C   UNL     1     -11.680  11.196  68.035  1.00  0.00    -0.288 A  
HETATM   19  C   UNL     1     -10.632  11.010  68.958  1.00  0.00    -0.258 A  
HETATM   20  C   UNL     1      -9.512  11.834  68.781  1.00  0.00    -0.037 A  
HETATM   21  C   UNL     1      -9.536  12.937  67.907  1.00  0.00    -0.215 A  
BRANCH  19  22
HETATM   22  C   UNL     1     -10.771  10.025  70.085  1.00  0.00    -0.361 A  
HETATM   23  C   UNL     1     -12.025   9.918  70.740  1.00  0.00    -0.410 A  
HETATM   24  C   UNL     1     -12.227   9.121  71.874  1.00  0.00    -0.449 A  
HETATM   25  C   UNL     1     -11.189   8.360  72.376  1.00  0.00    -0.438 A  
HETATM   26  C   UNL     1      -9.952   8.399  71.741  1.00  0.00    -0.312 A  
HETATM   27  C   UNL     1      -9.714   9.230  70.615  1.00  0.00    -0.334 A  
BRANCH  27  28
HETATM   28  C   UNL     1      -8.340   9.219  70.116  1.00  0.00    -0.178 A  
HETATM   29  N   UNL     1      -7.948   8.521  69.028  1.00  0.00    -0.111 NA 
HETATM   30  N   UNL     1      -6.639   8.809  69.018  1.00  0.00    -0.047 NA 
HETATM   31  H   UNL     1      -6.011   8.440  68.305  1.00  0.00     0.000 HD 
HETATM   32  N   UNL     1      -6.207   9.607  69.996  1.00  0.00    -0.049 NA 
HETATM   33  N   UNL     1      -7.284   9.850  70.730  1.00  0.00    -0.325 NA 
ENDBRANCH  27  28
ENDBRANCH  19  22
ENDBRANCH  15  16
ENDBRANCH  11  15
ENDBRANCH   4   5
ENDBRANCH   3   4
ENDBRANCH   2   3
TORSDOF 7
ENDMDL
MODEL       32
REMARK 921   NORMALIZED FREE ENERGY PREDICTED BY IDOCK:   -6.43 KCAL/MOL
REMARK 922        TOTAL FREE ENERGY PREDICTED BY IDOCK:  -11.01 KCAL/MOL
REMARK 923 INTER-LIGAND FREE ENERGY PREDICTED BY IDOCK:  -10.35 KCAL/MOL
REMARK 924 INTRA-LIGAND FREE ENERGY PREDICTED BY IDOCK:   -0.66 KCAL/MOL
REMARK 927      BINDING AFFINITY PREDICTED BY RF-SCORE:    0.00 PKD
ROOT
HETATM    1  C   UNL     1     -14.042   7.840  71.279  1.00  0.00    -0.365 C  
HETATM    2  C   UNL     1     -14.035   8.976  72.282  1.00  0.00    -0.522 C  
ENDROOT
BRANCH   2   3
HETATM    3  C   UNL     1     -12.682   9.681  72.310  1.00  0.00    -0.362 C  
BRANCH   3   4
HETATM    4  C   UNL     1     -12.315  10.260  70.948  1.00  0.00    -0.471 C  
BRANCH   4   5
HETATM    5  C   UNL     1     -10.929   9.828  70.556  1.00  0.00    -0.321 C  
HETATM    6  N   UNL     1     -10.236   9.095  71.374  1.00  0.00    -0.327 NA 
HETATM    7  C   UNL     1      -8.978   8.803  70.645  1.00  0.00    -0.186 C  
HETATM    8  C   UNL     1      -9.045   9.745  69.454  1.00  0.00    -0.201 C  
HETATM    9  C   UNL     1      -8.993   7.346  70.171  1.00  0.00    -0.148 C  
HETATM   10  O   UNL     1      -8.127  10.061  68.712  1.00  0.00    -0.096 OA 
HETATM   11  N   UNL     1     -10.351  10.159  69.386  1.00  0.00    -0.216 N  
HETATM   12  C   UNL     1      -7.531   6.937  70.236  1.00  0.00    -0.086 C  
HETATM   13  C   UNL     1      -7.052   7.594  71.519  1.00  0.00    -0.062 C  
HETATM   14  C   UNL     1      -7.754   8.952  71.547  1.00  0.00    -0.097 C  
BRANCH  11  15
HETATM   15  C   UNL     1     -10.852  10.947  68.263  1.00  0.00    -0.225 C  
BRANCH  15  16
HETATM   16  C   UNL     1     -10.640  12.437  68.463  1.00  0.00    -0.251 A  
HETATM   17  C   UNL     1     -11.695  13.274  68.819  1.00  0.00    -0.366 A  
HETATM   18  C   UNL     1     -11.562  14.668  68.748  1.00  0.00    -0.346 A  
HETATM   19  C   UNL     1     -10.349  15.287  68.386  1.00  0.00    -0.227 A  
HETATM   20  C   UNL     1      -9.246  14.431  68.252  1.00  0.00    -0.201 A  
HETATM   21  C   UNL     1      -9.394  13.032  68.232  1.00  0.00    -0.199 A  
BRANCH  19  22
HETATM   22  C   UNL     1     -10.296  16.763  68.106  1.00  0.00    -0.318 A  
HETATM   23  C   UNL     1      -9.979  17.643  69.173  1.00  0.00    -0.192 A  
HETATM   24  C   UNL     1     -10.019  19.037  69.049  1.00  0.00    -0.390 A  
HETATM   25  C   UNL     1     -10.338  19.612  67.833  1.00  0.00    -0.583 A  
HETATM   26  C   UNL     1     -10.615  18.789  66.747  1.00  0.00    -0.458 A  
HETATM   27  C   UNL     1     -10.619  17.374  66.860  1.00  0.00    -0.216 A  
BRANCH  27  28
HETATM   28  C   UNL     1     -11.010  16.656  65.649  1.00  0.00    -0.027 A  
HETATM   29  N   UNL     1     -11.211  17.259  64.457  1.00  0.00    -0.924 NA 
HETATM   30  N   UNL     1     -11.572  16.205  63.713  1.00  0.00    -1.387 NA 
HETATM   31  H   UNL     1     -11.802  16.296  62.724  1.00  0.00     0.000 HD 
HETATM   32  N   UNL     1     -11.613  15.029  64.343  1.00  0.00    -0.322 NA 
HETATM   33  N   UNL     1     -11.288  15.310  65.597  1.00  0.00    -0.257 NA 
ENDBRANCH  27  28
ENDBRANCH  19  22
ENDBRANCH  15  16
ENDBRANCH  11  15
ENDBRANCH   4   5
ENDBRANCH   3   4
ENDBRANCH   2   3
TORSDOF 7
ENDMDL
MODEL       33
REMARK 921   NORMALIZED FREE ENERGY PREDICTED BY IDOCK:   -6.42 KCAL/MOL
REMARK 922        TOTAL FREE ENERGY PREDICTED BY IDOCK:  -11.00 KCAL/MOL
REMARK 923 INTER-LIGAND FREE ENERGY PREDICTED BY IDOCK:   -9.55 KCAL/MOL
REMARK 924 INTRA-LIGAND FREE ENERGY PREDICTED BY IDOCK:   -1.44 KCAL/MOL
REMARK 927      BINDING AFFINITY PREDICTED BY RF-SCORE:    0.00 PKD
ROOT
HETATM    1  C   UNL     1     -14.302  14.040  72.134  1.00  0.00    -0.577 C  
HETATM    2  C   UNL     1     -13.164  14.833  72.744  1.00  0.00    -0.581 C  
ENDROOT
BRANCH   2   3
HETATM    3  C   UNL     1     -12.393  15.605  71.677  1.00  0.00    -0.494 C  
BRANCH   3   4
HETATM    4  C   UNL     1     -12.578  14.998  70.291  1.00  0.00    -0.363 C  
BRANCH   4   5
HETATM    5  C   UNL     1     -11.549  15.544  69.341  1.00  0.00    -0.355 C  
HETATM    6  N   UNL     1     -10.809  16.546  69.712  1.00  0.00    -0.336 NA 
HETATM    7  C   UNL     1      -9.878  16.766  68.579  1.00  0.00    -0.257 C  
HETATM    8  C   UNL     1     -10.465  15.900  67.478  1.00  0.00    -0.298 C  
HETATM    9  C   UNL     1      -8.483  16.262  68.964  1.00  0.00    -0.244 C  
HETATM   10  O   UNL     1     -10.207  15.948  66.284  1.00  0.00    -0.280 OA 
HETATM   11  N   UNL     1     -11.341  15.050  68.106  1.00  0.00    -0.317 N  
HETATM   12  C   UNL     1      -7.548  17.209  68.229  1.00  0.00    -0.224 C  
HETATM   13  C   UNL     1      -8.234  18.555  68.391  1.00  0.00    -0.351 C  
HETATM   14  C   UNL     1      -9.727  18.251  68.252  1.00  0.00    -0.350 C  
BRANCH  11  15
HETATM   15  C   UNL     1     -11.982  13.943  67.400  1.00  0.00    -0.401 C  
BRANCH  15  16
HETATM   16  C   UNL     1     -11.340  12.606  67.723  1.00  0.00    -0.349 A  
HETATM   17  C   UNL     1     -10.445  12.004  66.840  1.00  0.00    -0.251 A  
HETATM   18  C   UNL     1     -10.060  10.666  67.008  1.00  0.00    -0.255 A  
HETATM   19  C   UNL     1     -10.495   9.893  68.103  1.00  0.00    -0.256 A  
HETATM   20  C   UNL     1     -11.209  10.587  69.091  1.00  0.00    -0.314 A  
HETATM   21  C   UNL     1     -11.675  11.898  68.884  1.00  0.00    -0.381 A  
BRANCH  19  22
HETATM   22  C   UNL     1     -10.247   8.411  68.141  1.00  0.00    -0.253 A  
HETATM   23  C   UNL     1     -10.920   7.588  67.201  1.00  0.00    -0.164 A  
HETATM   24  C   UNL     1     -10.851   6.189  67.227  1.00  0.00    -0.438 A  
HETATM   25  C   UNL     1     -10.067   5.554  68.171  1.00  0.00    -0.221 A  
HETATM   26  C   UNL     1      -9.355   6.322  69.087  1.00  0.00    -0.133 A  
HETATM   27  C   UNL     1      -9.441   7.739  69.105  1.00  0.00    -0.151 A  
BRANCH  27  28
HETATM   28  C   UNL     1      -8.697   8.392  70.181  1.00  0.00    -0.136 A  
HETATM   29  N   UNL     1      -9.182   8.553  71.430  1.00  0.00    -0.189 NA 
HETATM   30  N   UNL     1      -8.164   9.213  71.999  1.00  0.00    -0.252 NA 
HETATM   31  H   UNL     1      -8.187   9.503  72.976  1.00  0.00     0.000 HD 
HETATM   32  N   UNL     1      -7.117   9.468  71.210  1.00  0.00    -0.329 NA 
HETATM   33  N   UNL     1      -7.462   8.976  70.029  1.00  0.00    -0.056 NA 
ENDBRANCH  27  28
ENDBRANCH  19  22
ENDBRANCH  15  16
ENDBRANCH  11  15
ENDBRANCH   4   5
ENDBRANCH   3   4
ENDBRANCH   2   3
TORSDOF 7
ENDMDL
MODEL       34
REMARK 921   NORMALIZED FREE ENERGY PREDICTED BY IDOCK:   -6.40 KCAL/MOL
REMARK 922        TOTAL FREE ENERGY PREDICTED BY IDOCK:  -10.97 KCAL/MOL
REMARK 923 INTER-LIGAND FREE ENERGY PREDICTED BY IDOCK:   -9.51 KCAL/MOL
REMARK 924 INTRA-LIGAND FREE ENERGY PREDICTED BY IDOCK:   -1.46 KCAL/MOL
REMARK 927      BINDING AFFINITY PREDICTED BY RF-SCORE:    0.00 PKD
ROOT
HETATM    1  C   UNL     1      -9.933  20.487  67.502  1.00  0.00    -0.497 C  
HETATM    2  C   UNL     1      -9.914  19.884  66.112  1.00  0.00    -0.593 C  
ENDROOT
BRANCH   2   3
HETATM    3  C   UNL     1     -10.536  18.490  66.103  1.00  0.00    -0.447 C  
BRANCH   3   4
HETATM    4  C   UNL     1     -10.578  17.879  67.499  1.00  0.00    -0.386 C  
BRANCH   4   5
HETATM    5  C   UNL     1      -9.537  16.802  67.629  1.00  0.00    -0.244 C  
HETATM    6  N   UNL     1      -8.363  17.106  68.095  1.00  0.00    -0.219 NA 
HETATM    7  C   UNL     1      -7.636  15.814  68.152  1.00  0.00    -0.124 C  
HETATM    8  C   UNL     1      -8.540  14.875  67.373  1.00  0.00    -0.193 C  
HETATM    9  C   UNL     1      -7.527  15.358  69.612  1.00  0.00    -0.170 C  
HETATM   10  O   UNL     1      -8.250  13.777  66.923  1.00  0.00    -0.097 OA 
HETATM   11  N   UNL     1      -9.750  15.517  67.287  1.00  0.00    -0.218 N  
HETATM   12  C   UNL     1      -6.192  14.631  69.656  1.00  0.00    -0.133 C  
HETATM   13  C   UNL     1      -5.303  15.501  68.784  1.00  0.00    -0.100 C  
HETATM   14  C   UNL     1      -6.205  15.949  67.632  1.00  0.00    -0.182 C  
BRANCH  11  15
HETATM   15  C   UNL     1     -10.937  14.856  66.752  1.00  0.00    -0.326 C  
BRANCH  15  16
HETATM   16  C   UNL     1     -11.427  13.735  67.652  1.00  0.00    -0.354 A  
HETATM   17  C   UNL     1     -11.646  13.947  69.012  1.00  0.00    -0.351 A  
HETATM   18  C   UNL     1     -11.841  12.866  69.884  1.00  0.00    -0.373 A  
HETATM   19  C   UNL     1     -11.894  11.534  69.427  1.00  0.00    -0.417 A  
HETATM   20  C   UNL     1     -11.895  11.369  68.035  1.00  0.00    -0.273 A  
HETATM   21  C   UNL     1     -11.610  12.436  67.163  1.00  0.00    -0.435 A  
BRANCH  19  22
HETATM   22  C   UNL     1     -11.883  10.390  70.401  1.00  0.00    -0.418 A  
HETATM   23  C   UNL     1     -13.015  10.200  71.236  1.00  0.00    -0.510 A  
HETATM   24  C   UNL     1     -13.059   9.241  72.255  1.00  0.00    -0.517 A  
HETATM   25  C   UNL     1     -11.982   8.397  72.454  1.00  0.00    -0.451 A  
HETATM   26  C   UNL     1     -10.866   8.518  71.633  1.00  0.00    -0.356 A  
HETATM   27  C   UNL     1     -10.785   9.509  70.620  1.00  0.00    -0.375 A  
BRANCH  27  28
HETATM   28  C   UNL     1      -9.514   9.556  69.899  1.00  0.00    -0.222 A  
HETATM   29  N   UNL     1      -9.388   9.251  68.590  1.00  0.00    -0.138 NA 
HETATM   30  N   UNL     1      -8.067   9.412  68.433  1.00  0.00    -0.108 NA 
HETATM   31  H   UNL     1      -7.608   9.264  67.534  1.00  0.00     0.000 HD 
HETATM   32  N   UNL     1      -7.387   9.778  69.522  1.00  0.00    -0.081 NA 
HETATM   33  N   UNL     1      -8.300   9.840  70.480  1.00  0.00    -0.204 NA 
ENDBRANCH  27  28
ENDBRANCH  19  22
ENDBRANCH  15  16
ENDBRANCH  11  15
ENDBRANCH   4   5
ENDBRANCH   3   4
ENDBRANCH   2   3
TORSDOF 7
ENDMDL
MODEL       35
REMARK 921   NORMALIZED FREE ENERGY PREDICTED BY IDOCK:   -6.39 KCAL/MOL
REMARK 922        TOTAL FREE ENERGY PREDICTED BY IDOCK:  -10.95 KCAL/MOL
REMARK 923 INTER-LIGAND FREE ENERGY PREDICTED BY IDOCK:   -9.70 KCAL/MOL
REMARK 924 INTRA-LIGAND FREE ENERGY PREDICTED BY IDOCK:   -1.25 KCAL/MOL
REMARK 927      BINDING AFFINITY PREDICTED BY RF-SCORE:    0.00 PKD
ROOT
HETATM    1  C   UNL     1     -14.076  14.348  71.849  1.00  0.00    -0.596 C  
HETATM    2  C   UNL     1     -12.660  14.446  71.318  1.00  0.00    -0.421 C  
ENDROOT
BRANCH   2   3
HETATM    3  C   UNL     1     -12.487  15.666  70.419  1.00  0.00    -0.409 C  
BRANCH   3   4
HETATM    4  C   UNL     1     -12.124  15.273  68.991  1.00  0.00    -0.244 C  
BRANCH   4   5
HETATM    5  C   UNL     1     -11.113  16.231  68.428  1.00  0.00    -0.362 C  
HETATM    6  N   UNL     1     -10.488  17.040  69.230  1.00  0.00    -0.326 NA 
HETATM    7  C   UNL     1      -9.534  17.771  68.360  1.00  0.00    -0.297 C  
HETATM    8  C   UNL     1      -9.989  17.396  66.960  1.00  0.00    -0.295 C  
HETATM    9  C   UNL     1      -8.115  17.251  68.615  1.00  0.00    -0.261 C  
HETATM   10  O   UNL     1      -9.686  17.949  65.913  1.00  0.00    -0.530 OA 
HETATM   11  N   UNL     1     -10.806  16.305  67.119  1.00  0.00    -0.248 N  
HETATM   12  C   UNL     1      -7.245  18.479  68.403  1.00  0.00    -0.292 C  
HETATM   13  C   UNL     1      -8.062  19.589  69.043  1.00  0.00    -0.255 C  
HETATM   14  C   UNL     1      -9.512  19.266  68.678  1.00  0.00    -0.463 C  
BRANCH  11  15
HETATM   15  C   UNL     1     -11.308  15.544  65.978  1.00  0.00    -0.018 C  
BRANCH  15  16
HETATM   16  C   UNL     1     -10.811  14.109  65.978  1.00  0.00    -0.297 A  
HETATM   17  C   UNL     1     -11.542  13.094  65.363  1.00  0.00    -0.362 A  
HETATM   18  C   UNL     1     -11.226  11.746  65.586  1.00  0.00    -0.324 A  
HETATM   19  C   UNL     1     -10.126  11.355  66.375  1.00  0.00    -0.255 A  
HETATM   20  C   UNL     1      -9.280  12.391  66.795  1.00  0.00    -0.212 A  
HETATM   21  C   UNL     1      -9.641  13.744  66.653  1.00  0.00    -0.295 A  
BRANCH  19  22
HETATM   22  C   UNL     1      -9.943   9.917  66.774  1.00  0.00    -0.272 A  
HETATM   23  C   UNL     1      -9.304   9.038  65.861  1.00  0.00    -0.306 A  
HETATM   24  C   UNL     1      -9.190   7.660  66.083  1.00  0.00    -0.168 A  
HETATM   25  C   UNL     1      -9.674   7.108  67.255  1.00  0.00    -0.198 A  
HETATM   26  C   UNL     1     -10.271   7.937  68.198  1.00  0.00    -0.248 A  
HETATM   27  C   UNL     1     -10.432   9.330  67.976  1.00  0.00    -0.275 A  
BRANCH  27  28
HETATM   28  C   UNL     1     -11.152  10.046  69.028  1.00  0.00    -0.180 A  
HETATM   29  N   UNL     1     -10.962   9.822  70.346  1.00  0.00    -0.287 NA 
HETATM   30  N   UNL     1     -11.853  10.677  70.865  1.00  0.00    -0.341 NA 
HETATM   31  H   UNL     1     -11.981  10.778  71.872  1.00  0.00     0.000 HD 
HETATM   32  N   UNL     1     -12.564  11.389  69.987  1.00  0.00    -0.123 NA 
HETATM   33  N   UNL     1     -12.147  10.967  68.801  1.00  0.00    -0.535 NA 
ENDBRANCH  27  28
ENDBRANCH  19  22
ENDBRANCH  15  16
ENDBRANCH  11  15
ENDBRANCH   4   5
ENDBRANCH   3   4
ENDBRANCH   2   3
TORSDOF 7
ENDMDL
MODEL       36
REMARK 921   NORMALIZED FREE ENERGY PREDICTED BY IDOCK:   -6.39 KCAL/MOL
REMARK 922        TOTAL FREE ENERGY PREDICTED BY IDOCK:  -10.95 KCAL/MOL
REMARK 923 INTER-LIGAND FREE ENERGY PREDICTED BY IDOCK:   -9.65 KCAL/MOL
REMARK 924 INTRA-LIGAND FREE ENERGY PREDICTED BY IDOCK:   -1.30 KCAL/MOL
REMARK 927      BINDING AFFINITY PREDICTED BY RF-SCORE:    0.00 PKD
ROOT
HETATM    1  C   UNL     1     -10.662  11.272  63.895  1.00  0.00    -0.451 C  
HETATM    2  C   UNL     1     -12.046  11.890  63.868  1.00  0.00    -0.505 C  
ENDROOT
BRANCH   2   3
HETATM    3  C   UNL     1     -11.974  13.412  63.941  1.00  0.00    -0.520 C  
BRANCH   3   4
HETATM    4  C   UNL     1     -12.582  13.948  65.232  1.00  0.00    -0.508 C  
BRANCH   4   5
HETATM    5  C   UNL     1     -11.546  14.691  66.027  1.00  0.00    -0.328 C  
HETATM    6  N   UNL     1     -10.733  15.499  65.414  1.00  0.00    -0.380 NA 
HETATM    7  C   UNL     1      -9.915  16.102  66.495  1.00  0.00    -0.280 C  
HETATM    8  C   UNL     1     -10.263  15.250  67.705  1.00  0.00    -0.242 C  
HETATM    9  C   UNL     1     -10.362  17.551  66.720  1.00  0.00    -0.314 C  
HETATM   10  O   UNL     1      -9.653  15.189  68.762  1.00  0.00    -0.202 OA 
HETATM   11  N   UNL     1     -11.405  14.572  67.361  1.00  0.00    -0.340 N  
HETATM   12  C   UNL     1      -9.078  18.258  67.124  1.00  0.00    -0.264 C  
HETATM   13  C   UNL     1      -8.043  17.634  66.203  1.00  0.00    -0.228 C  
HETATM   14  C   UNL     1      -8.436  16.157  66.120  1.00  0.00    -0.288 C  
BRANCH  11  15
HETATM   15  C   UNL     1     -12.149  13.773  68.331  1.00  0.00    -0.289 C  
BRANCH  15  16
HETATM   16  C   UNL     1     -11.526  12.405  68.549  1.00  0.00    -0.350 A  
HETATM   17  C   UNL     1     -10.577  11.896  67.665  1.00  0.00    -0.241 A  
HETATM   18  C   UNL     1     -10.200  10.546  67.714  1.00  0.00    -0.223 A  
HETATM   19  C   UNL     1     -10.702   9.664  68.691  1.00  0.00    -0.233 A  
HETATM   20  C   UNL     1     -11.478  10.251  69.700  1.00  0.00    -0.297 A  
HETATM   21  C   UNL     1     -11.932  11.580  69.605  1.00  0.00    -0.407 A  
BRANCH  19  22
HETATM   22  C   UNL     1     -10.454   8.185  68.587  1.00  0.00    -0.195 A  
HETATM   23  C   UNL     1     -10.760   7.532  67.364  1.00  0.00    -0.331 A  
HETATM   24  C   UNL     1     -10.679   6.143  67.201  1.00  0.00    -0.422 A  
HETATM   25  C   UNL     1     -10.243   5.350  68.246  1.00  0.00    -0.224 A  
HETATM   26  C   UNL     1      -9.892   5.950  69.450  1.00  0.00    -0.207 A  
HETATM   27  C   UNL     1     -10.004   7.351  69.651  1.00  0.00    -0.182 A  
BRANCH  27  28
HETATM   28  C   UNL     1      -9.673   7.813  70.997  1.00  0.00    -0.163 A  
HETATM   29  N   UNL     1      -8.547   8.496  71.295  1.00  0.00    -0.159 NA 
HETATM   30  N   UNL     1      -8.700   8.646  72.617  1.00  0.00    -0.408 NA 
HETATM   31  H   UNL     1      -8.013   9.137  73.188  1.00  0.00     0.000 HD 
HETATM   32  N   UNL     1      -9.807   8.116  73.144  1.00  0.00    -0.260 NA 
HETATM   33  N   UNL     1     -10.424   7.546  72.118  1.00  0.00    -0.207 NA 
ENDBRANCH  27  28
ENDBRANCH  19  22
ENDBRANCH  15  16
ENDBRANCH  11  15
ENDBRANCH   4   5
ENDBRANCH   3   4
ENDBRANCH   2   3
TORSDOF 7
ENDMDL
MODEL       37
REMARK 921   NORMALIZED FREE ENERGY PREDICTED BY IDOCK:   -6.38 KCAL/MOL
REMARK 922        TOTAL FREE ENERGY PREDICTED BY IDOCK:  -10.94 KCAL/MOL
REMARK 923 INTER-LIGAND FREE ENERGY PREDICTED BY IDOCK:   -9.68 KCAL/MOL
REMARK 924 INTRA-LIGAND FREE ENERGY PREDICTED BY IDOCK:   -1.27 KCAL/MOL
REMARK 927      BINDING AFFINITY PREDICTED BY RF-SCORE:    0.00 PKD
ROOT
HETATM    1  C   UNL     1     -10.306   8.019  66.867  1.00  0.00    -0.408 C  
HETATM    2  C   UNL     1      -9.509   6.767  66.564  1.00  0.00    -0.193 C  
ENDROOT
BRANCH   2   3
HETATM    3  C   UNL     1      -9.655   5.733  67.677  1.00  0.00    -0.119 C  
BRANCH   3   4
HETATM    4  C   UNL     1     -10.839   6.042  68.586  1.00  0.00    -0.379 C  
BRANCH   4   5
HETATM    5  C   UNL     1     -10.502   5.709  70.013  1.00  0.00    -0.297 C  
HETATM    6  N   UNL     1      -9.369   5.133  70.280  1.00  0.00    -0.148 NA 
HETATM    7  C   UNL     1      -9.341   5.026  71.759  1.00  0.00    -0.147 C  
HETATM    8  C   UNL     1     -10.763   5.382  72.157  1.00  0.00    -0.227 C  
HETATM    9  C   UNL     1      -8.357   6.058  72.323  1.00  0.00    -0.113 C  
HETATM   10  O   UNL     1     -11.299   5.182  73.237  1.00  0.00    -0.321 OA 
HETATM   11  N   UNL     1     -11.315   5.978  71.051  1.00  0.00    -0.273 N  
HETATM   12  C   UNL     1      -7.792   5.370  73.556  1.00  0.00    -0.103 C  
HETATM   13  C   UNL     1      -7.619   3.933  73.093  1.00  0.00    -0.074 C  
HETATM   14  C   UNL     1      -8.842   3.656  72.217  1.00  0.00    -0.117 C  
BRANCH  11  15
HETATM   15  C   UNL     1     -12.628   6.617  71.094  1.00  0.00    -0.135 C  
BRANCH  15  16
HETATM   16  C   UNL     1     -12.534   8.110  71.352  1.00  0.00    -0.313 A  
HETATM   17  C   UNL     1     -13.586   8.807  71.944  1.00  0.00    -0.467 A  
HETATM   18  C   UNL     1     -13.610  10.209  71.943  1.00  0.00    -0.333 A  
HETATM   19  C   UNL     1     -12.554  10.976  71.413  1.00  0.00    -0.498 A  
HETATM   20  C   UNL     1     -11.413  10.256  71.029  1.00  0.00    -0.386 A  
HETATM   21  C   UNL     1     -11.419   8.852  70.943  1.00  0.00    -0.339 A  
BRANCH  19  22
HETATM   22  C   UNL     1     -12.703  12.460  71.226  1.00  0.00    -0.347 A  
HETATM   23  C   UNL     1     -13.401  13.199  72.216  1.00  0.00    -0.621 A  
HETATM   24  C   UNL     1     -13.698  14.561  72.082  1.00  0.00    -0.547 A  
HETATM   25  C   UNL     1     -13.269  15.254  70.965  1.00  0.00    -0.546 A  
HETATM   26  C   UNL     1     -12.545  14.580  69.987  1.00  0.00    -0.281 A  
HETATM   27  C   UNL     1     -12.267  13.191  70.084  1.00  0.00    -0.360 A  
BRANCH  27  28
HETATM   28  C   UNL     1     -11.567  12.618  68.936  1.00  0.00    -0.317 A  
HETATM   29  N   UNL     1     -10.287  12.910  68.622  1.00  0.00    -0.223 NA 
HETATM   30  N   UNL     1     -10.141  12.179  67.508  1.00  0.00    -0.195 NA 
HETATM   31  H   UNL     1      -9.265  12.157  66.988  1.00  0.00     0.000 HD 
HETATM   32  N   UNL     1     -11.211  11.481  67.121  1.00  0.00    -0.307 NA 
HETATM   33  N   UNL     1     -12.146  11.782  68.011  1.00  0.00    -0.542 NA 
ENDBRANCH  27  28
ENDBRANCH  19  22
ENDBRANCH  15  16
ENDBRANCH  11  15
ENDBRANCH   4   5
ENDBRANCH   3   4
ENDBRANCH   2   3
TORSDOF 7
ENDMDL
MODEL       38
REMARK 921   NORMALIZED FREE ENERGY PREDICTED BY IDOCK:   -6.38 KCAL/MOL
REMARK 922        TOTAL FREE ENERGY PREDICTED BY IDOCK:  -10.94 KCAL/MOL
REMARK 923 INTER-LIGAND FREE ENERGY PREDICTED BY IDOCK:   -9.04 KCAL/MOL
REMARK 924 INTRA-LIGAND FREE ENERGY PREDICTED BY IDOCK:   -1.90 KCAL/MOL
REMARK 927      BINDING AFFINITY PREDICTED BY RF-SCORE:    0.00 PKD
ROOT
HETATM    1  C   UNL     1     -10.894  11.704  63.233  1.00  0.00    -0.380 C  
HETATM    2  C   UNL     1     -12.371  11.970  63.442  1.00  0.00    -0.635 C  
ENDROOT
BRANCH   2   3
HETATM    3  C   UNL     1     -12.631  12.628  64.794  1.00  0.00    -0.530 C  
BRANCH   3   4
HETATM    4  C   UNL     1     -11.800  13.894  64.977  1.00  0.00    -0.383 C  
BRANCH   4   5
HETATM    5  C   UNL     1     -11.375  14.035  66.412  1.00  0.00    -0.333 C  
HETATM    6  N   UNL     1     -12.085  14.766  67.217  1.00  0.00    -0.216 NA 
HETATM    7  C   UNL     1     -11.427  14.620  68.538  1.00  0.00    -0.302 C  
HETATM    8  C   UNL     1     -10.118  13.931  68.195  1.00  0.00    -0.250 C  
HETATM    9  C   UNL     1     -12.284  13.718  69.434  1.00  0.00    -0.325 C  
HETATM   10  O   UNL     1      -9.128  13.833  68.906  1.00  0.00    -0.028 OA 
HETATM   11  N   UNL     1     -10.283  13.437  66.926  1.00  0.00    -0.249 N  
HETATM   12  C   UNL     1     -12.052  14.280  70.827  1.00  0.00    -0.418 C  
HETATM   13  C   UNL     1     -12.042  15.781  70.591  1.00  0.00    -0.424 C  
HETATM   14  C   UNL     1     -11.308  15.961  69.260  1.00  0.00    -0.355 C  
BRANCH  11  15
HETATM   15  C   UNL     1      -9.296  12.557  66.305  1.00  0.00    -0.177 C  
BRANCH  15  16
HETATM   16  C   UNL     1      -9.354  11.145  66.861  1.00  0.00    -0.189 A  
HETATM   17  C   UNL     1     -10.487  10.352  66.696  1.00  0.00    -0.279 A  
HETATM   18  C   UNL     1     -10.645   9.163  67.423  1.00  0.00    -0.315 A  
HETATM   19  C   UNL     1      -9.647   8.680  68.294  1.00  0.00    -0.160 A  
HETATM   20  C   UNL     1      -8.430   9.377  68.270  1.00  0.00    -0.120 A  
HETATM   21  C   UNL     1      -8.300  10.616  67.616  1.00  0.00    -0.114 A  
BRANCH  19  22
HETATM   22  C   UNL     1      -9.930   7.530  69.219  1.00  0.00    -0.179 A  
HETATM   23  C   UNL     1      -9.334   6.273  68.939  1.00  0.00    -0.128 A  
HETATM   24  C   UNL     1      -9.625   5.113  69.666  1.00  0.00    -0.234 A  
HETATM   25  C   UNL     1     -10.496   5.170  70.738  1.00  0.00    -0.263 A  
HETATM   26  C   UNL     1     -11.072   6.390  71.077  1.00  0.00    -0.349 A  
HETATM   27  C   UNL     1     -10.822   7.571  70.329  1.00  0.00    -0.257 A  
BRANCH  27  28
HETATM   28  C   UNL     1     -11.568   8.750  70.765  1.00  0.00    -0.251 A  
HETATM   29  N   UNL     1     -11.017   9.976  70.889  1.00  0.00    -0.321 NA 
HETATM   30  N   UNL     1     -12.073  10.669  71.335  1.00  0.00    -0.296 NA 
HETATM   31  H   UNL     1     -12.017  11.667  71.539  1.00  0.00     0.000 HD 
HETATM   32  N   UNL     1     -13.204   9.978  71.495  1.00  0.00    -0.395 NA 
HETATM   33  N   UNL     1     -12.883   8.734  71.165  1.00  0.00    -0.183 NA 
ENDBRANCH  27  28
ENDBRANCH  19  22
ENDBRANCH  15  16
ENDBRANCH  11  15
ENDBRANCH   4   5
ENDBRANCH   3   4
ENDBRANCH   2   3
TORSDOF 7
ENDMDL
MODEL       39
REMARK 921   NORMALIZED FREE ENERGY PREDICTED BY IDOCK:   -6.36 KCAL/MOL
REMARK 922        TOTAL FREE ENERGY PREDICTED BY IDOCK:  -10.92 KCAL/MOL
REMARK 923 INTER-LIGAND FREE ENERGY PREDICTED BY IDOCK:   -9.28 KCAL/MOL
REMARK 924 INTRA-LIGAND FREE ENERGY PREDICTED BY IDOCK:   -1.64 KCAL/MOL
REMARK 927      BINDING AFFINITY PREDICTED BY RF-SCORE:    0.00 PKD
ROOT
HETATM    1  C   UNL     1     -10.502  18.273  69.102  1.00  0.00     0.158 C  
HETATM    2  C   UNL     1     -10.491  19.628  68.423  1.00  0.00    -0.401 C  
ENDROOT
BRANCH   2   3
HETATM    3  C   UNL     1     -10.944  19.523  66.970  1.00  0.00    -0.443 C  
BRANCH   3   4
HETATM    4  C   UNL     1      -9.777  19.666  66.000  1.00  0.00    -0.421 C  
BRANCH   4   5
HETATM    5  C   UNL     1      -8.473  19.466  66.720  1.00  0.00    -0.302 C  
HETATM    6  N   UNL     1      -7.982  20.439  67.427  1.00  0.00    -0.327 NA 
HETATM    7  C   UNL     1      -6.755  19.875  68.042  1.00  0.00    -0.273 C  
HETATM    8  C   UNL     1      -6.569  18.563  67.299  1.00  0.00    -0.199 C  
HETATM    9  C   UNL     1      -7.009  19.611  69.530  1.00  0.00    -0.314 C  
HETATM   10  O   UNL     1      -5.563  17.871  67.265  1.00  0.00    -0.132 OA 
HETATM   11  N   UNL     1      -7.769  18.318  66.680  1.00  0.00    -0.226 N  
HETATM   12  C   UNL     1      -5.655  19.866  70.172  1.00  0.00    -0.299 C  
HETATM   13  C   UNL     1      -5.146  21.083  69.417  1.00  0.00    -0.371 C  
HETATM   14  C   UNL     1      -5.585  20.856  67.970  1.00  0.00    -0.342 C  
BRANCH  11  15
HETATM   15  C   UNL     1      -8.043  17.055  66.000  1.00  0.00    -0.143 C  
BRANCH  15  16
HETATM   16  C   UNL     1      -8.916  16.131  66.831  1.00  0.00    -0.248 A  
HETATM   17  C   UNL     1     -10.229  15.850  66.456  1.00  0.00    -0.297 A  
HETATM   18  C   UNL     1     -11.111  15.219  67.346  1.00  0.00    -0.326 A  
HETATM   19  C   UNL     1     -10.702  14.781  68.621  1.00  0.00    -0.253 A  
HETATM   20  C   UNL     1      -9.328  14.874  68.884  1.00  0.00    -0.197 A  
HETATM   21  C   UNL     1      -8.459  15.586  68.037  1.00  0.00    -0.143 A  
BRANCH  19  22
HETATM   22  C   UNL     1     -11.713  14.312  69.629  1.00  0.00    -0.362 A  
HETATM   23  C   UNL     1     -12.289  15.268  70.506  1.00  0.00    -0.434 A  
HETATM   24  C   UNL     1     -13.148  14.919  71.555  1.00  0.00    -0.434 A  
HETATM   25  C   UNL     1     -13.503  13.597  71.746  1.00  0.00    -0.465 A  
HETATM   26  C   UNL     1     -12.996  12.629  70.885  1.00  0.00    -0.071 A  
HETATM   27  C   UNL     1     -12.093  12.955  69.840  1.00  0.00    -0.335 A  
BRANCH  27  28
HETATM   28  C   UNL     1     -11.590  11.814  69.077  1.00  0.00    -0.311 A  
HETATM   29  N   UNL     1     -10.559  11.042  69.484  1.00  0.00    -0.186 NA 
HETATM   30  N   UNL     1     -10.476  10.190  68.453  1.00  0.00    -0.196 NA 
HETATM   31  H   UNL     1      -9.784   9.442  68.425  1.00  0.00     0.000 HD 
HETATM   32  N   UNL     1     -11.354  10.378  67.465  1.00  0.00    -0.362 NA 
HETATM   33  N   UNL     1     -12.053  11.441  67.837  1.00  0.00    -0.621 NA 
ENDBRANCH  27  28
ENDBRANCH  19  22
ENDBRANCH  15  16
ENDBRANCH  11  15
ENDBRANCH   4   5
ENDBRANCH   3   4
ENDBRANCH   2   3
TORSDOF 7
ENDMDL
MODEL       40
REMARK 921   NORMALIZED FREE ENERGY PREDICTED BY IDOCK:   -6.35 KCAL/MOL
REMARK 922        TOTAL FREE ENERGY PREDICTED BY IDOCK:  -10.90 KCAL/MOL
REMARK 923 INTER-LIGAND FREE ENERGY PREDICTED BY IDOCK:   -9.41 KCAL/MOL
REMARK 924 INTRA-LIGAND FREE ENERGY PREDICTED BY IDOCK:   -1.49 KCAL/MOL
REMARK 927      BINDING AFFINITY PREDICTED BY RF-SCORE:    0.00 PKD
ROOT
HETATM    1  C   UNL     1     -11.122  11.396  63.502  1.00  0.00    -0.373 C  
HETATM    2  C   UNL     1     -12.375  12.020  64.083  1.00  0.00    -0.452 C  
ENDROOT
BRANCH   2   3
HETATM    3  C   UNL     1     -12.148  13.485  64.445  1.00  0.00    -0.468 C  
BRANCH   3   4
HETATM    4  C   UNL     1     -10.668  13.853  64.423  1.00  0.00    -0.286 C  
BRANCH   4   5
HETATM    5  C   UNL     1     -10.244  14.385  65.763  1.00  0.00    -0.337 C  
HETATM    6  N   UNL     1     -10.697  15.536  66.163  1.00  0.00    -0.314 NA 
HETATM    7  C   UNL     1     -10.143  15.705  67.528  1.00  0.00    -0.253 C  
HETATM    8  C   UNL     1      -9.117  14.589  67.624  1.00  0.00    -0.195 C  
HETATM    9  C   UNL     1     -11.258  15.491  68.558  1.00  0.00    -0.334 C  
HETATM   10  O   UNL     1      -8.223  14.478  68.449  1.00  0.00    -0.136 OA 
HETATM   11  N   UNL     1      -9.410  13.731  66.593  1.00  0.00    -0.275 N  
HETATM   12  C   UNL     1     -10.881  16.435  69.688  1.00  0.00    -0.346 C  
HETATM   13  C   UNL     1     -10.388  17.669  68.951  1.00  0.00    -0.323 C  
HETATM   14  C   UNL     1      -9.613  17.121  67.751  1.00  0.00    -0.256 C  
BRANCH  11  15
HETATM   15  C   UNL     1      -8.746  12.438  66.454  1.00  0.00     0.018 C  
BRANCH  15  16
HETATM   16  C   UNL     1      -9.354  11.378  67.355  1.00  0.00    -0.171 A  
HETATM   17  C   UNL     1     -10.583  10.795  67.054  1.00  0.00    -0.312 A  
HETATM   18  C   UNL     1     -11.264  10.021  68.005  1.00  0.00    -0.190 A  
HETATM   19  C   UNL     1     -10.715   9.738  69.272  1.00  0.00    -0.246 A  
HETATM   20  C   UNL     1      -9.388  10.147  69.464  1.00  0.00    -0.230 A  
HETATM   21  C   UNL     1      -8.737  10.999  68.553  1.00  0.00    -0.159 A  
BRANCH  19  22
HETATM   22  C   UNL     1     -11.552   9.097  70.342  1.00  0.00    -0.181 A  
HETATM   23  C   UNL     1     -11.552   7.681  70.445  1.00  0.00    -0.138 A  
HETATM   24  C   UNL     1     -12.385   6.980  71.326  1.00  0.00    -0.426 A  
HETATM   25  C   UNL     1     -13.226   7.672  72.178  1.00  0.00    -0.108 A  
HETATM   26  C   UNL     1     -13.230   9.063  72.143  1.00  0.00    -0.504 A  
HETATM   27  C   UNL     1     -12.423   9.792  71.230  1.00  0.00    -0.461 A  
BRANCH  27  28
HETATM   28  C   UNL     1     -12.605  11.242  71.264  1.00  0.00    -0.382 A  
HETATM   29  N   UNL     1     -11.956  12.094  70.441  1.00  0.00    -0.326 NA 
HETATM   30  N   UNL     1     -12.431  13.265  70.886  1.00  0.00    -0.366 NA 
HETATM   31  H   UNL     1     -12.147  14.154  70.475  1.00  0.00     0.000 HD 
HETATM   32  N   UNL     1     -13.297  13.200  71.900  1.00  0.00    -0.458 NA 
HETATM   33  N   UNL     1     -13.391  11.907  72.176  1.00  0.00    -0.420 NA 
ENDBRANCH  27  28
ENDBRANCH  19  22
ENDBRANCH  15  16
ENDBRANCH  11  15
ENDBRANCH   4   5
ENDBRANCH   3   4
ENDBRANCH   2   3
TORSDOF 7
ENDMDL
MODEL       41
REMARK 921   NORMALIZED FREE ENERGY PREDICTED BY IDOCK:   -6.34 KCAL/MOL
REMARK 922        TOTAL FREE ENERGY PREDICTED BY IDOCK:  -10.89 KCAL/MOL
REMARK 923 INTER-LIGAND FREE ENERGY PREDICTED BY IDOCK:   -9.54 KCAL/MOL
REMARK 924 INTRA-LIGAND FREE ENERGY PREDICTED BY IDOCK:   -1.35 KCAL/MOL
REMARK 927      BINDING AFFINITY PREDICTED BY RF-SCORE:    0.00 PKD
ROOT
HETATM    1  C   UNL     1     -13.205  12.460  71.879  1.00  0.00    -0.486 C  
HETATM    2  C   UNL     1     -13.158  10.946  71.908  1.00  0.00    -0.537 C  
ENDROOT
BRANCH   2   3
HETATM    3  C   UNL     1     -12.248  10.398  70.812  1.00  0.00    -0.457 C  
BRANCH   3   4
HETATM    4  C   UNL     1     -11.965  11.441  69.736  1.00  0.00    -0.422 C  
BRANCH   4   5
HETATM    5  C   UNL     1     -11.124  10.845  68.642  1.00  0.00    -0.252 C  
HETATM    6  N   UNL     1     -10.445   9.763  68.880  1.00  0.00    -0.207 NA 
HETATM    7  C   UNL     1      -9.807   9.427  67.584  1.00  0.00    -0.174 C  
HETATM    8  C   UNL     1     -10.051  10.671  66.747  1.00  0.00    -0.224 C  
HETATM    9  C   UNL     1     -10.523   8.221  66.965  1.00  0.00    -0.384 C  
HETATM   10  O   UNL     1      -9.495  10.978  65.703  1.00  0.00    -0.200 OA 
HETATM   11  N   UNL     1     -11.030  11.370  67.406  1.00  0.00    -0.256 N  
HETATM   12  C   UNL     1      -9.413   7.492  66.225  1.00  0.00    -0.161 C  
HETATM   13  C   UNL     1      -8.236   7.608  67.180  1.00  0.00    -0.118 C  
HETATM   14  C   UNL     1      -8.345   9.018  67.763  1.00  0.00    -0.117 C  
BRANCH  11  15
HETATM   15  C   UNL     1     -11.662  12.550  66.820  1.00  0.00    -0.384 C  
BRANCH  15  16
HETATM   16  C   UNL     1     -10.874  13.819  67.090  1.00  0.00    -0.288 A  
HETATM   17  C   UNL     1      -9.839  14.218  66.246  1.00  0.00    -0.323 A  
HETATM   18  C   UNL     1      -8.948  15.231  66.630  1.00  0.00    -0.324 A  
HETATM   19  C   UNL     1      -9.094  15.936  67.842  1.00  0.00    -0.190 A  
HETATM   20  C   UNL     1     -10.266  15.670  68.563  1.00  0.00    -0.211 A  
HETATM   21  C   UNL     1     -11.112  14.596  68.231  1.00  0.00    -0.283 A  
BRANCH  19  22
HETATM   22  C   UNL     1      -8.008  16.856  68.327  1.00  0.00    -0.211 A  
HETATM   23  C   UNL     1      -6.982  16.319  69.147  1.00  0.00    -0.206 A  
HETATM   24  C   UNL     1      -5.994  17.109  69.747  1.00  0.00    -0.237 A  
HETATM   25  C   UNL     1      -5.965  18.472  69.515  1.00  0.00    -0.261 A  
HETATM   26  C   UNL     1      -6.926  19.037  68.684  1.00  0.00    -0.319 A  
HETATM   27  C   UNL     1      -7.960  18.261  68.098  1.00  0.00    -0.295 A  
BRANCH  27  28
HETATM   28  C   UNL     1      -8.938  19.019  67.318  1.00  0.00    -0.284 A  
HETATM   29  N   UNL     1      -8.674  19.544  66.102  1.00  0.00    -0.391 NA 
HETATM   30  N   UNL     1      -9.844  20.146  65.843  1.00  0.00    -0.591 NA 
HETATM   31  H   UNL     1     -10.008  20.656  64.976  1.00  0.00     0.000 HD 
HETATM   32  N   UNL     1     -10.781  20.037  66.788  1.00  0.00    -0.355 NA 
HETATM   33  N   UNL     1     -10.199  19.345  67.757  1.00  0.00    -0.393 NA 
ENDBRANCH  27  28
ENDBRANCH  19  22
ENDBRANCH  15  16
ENDBRANCH  11  15
ENDBRANCH   4   5
ENDBRANCH   3   4
ENDBRANCH   2   3
TORSDOF 7
ENDMDL
MODEL       42
REMARK 921   NORMALIZED FREE ENERGY PREDICTED BY IDOCK:   -6.28 KCAL/MOL
REMARK 922        TOTAL FREE ENERGY PREDICTED BY IDOCK:  -10.80 KCAL/MOL
REMARK 923 INTER-LIGAND FREE ENERGY PREDICTED BY IDOCK:   -9.69 KCAL/MOL
REMARK 924 INTRA-LIGAND FREE ENERGY PREDICTED BY IDOCK:   -1.11 KCAL/MOL
REMARK 927      BINDING AFFINITY PREDICTED BY RF-SCORE:    0.00 PKD
ROOT
HETATM    1  C   UNL     1     -12.605  11.929  63.364  1.00  0.00    -0.555 C  
HETATM    2  C   UNL     1     -11.849  13.113  63.934  1.00  0.00    -0.533 C  
ENDROOT
BRANCH   2   3
HETATM    3  C   UNL     1     -11.533  12.910  65.412  1.00  0.00    -0.360 C  
BRANCH   3   4
HETATM    4  C   UNL     1     -12.363  13.829  66.302  1.00  0.00    -0.479 C  
BRANCH   4   5
HETATM    5  C   UNL     1     -11.464  14.682  67.152  1.00  0.00    -0.368 C  
HETATM    6  N   UNL     1     -10.595  15.459  66.578  1.00  0.00    -0.301 NA 
HETATM    7  C   UNL     1      -9.949  16.191  67.694  1.00  0.00    -0.241 C  
HETATM    8  C   UNL     1     -10.438  15.445  68.924  1.00  0.00    -0.238 C  
HETATM    9  C   UNL     1     -10.457  17.637  67.713  1.00  0.00    -0.379 C  
HETATM   10  O   UNL     1      -9.979  15.506  70.054  1.00  0.00    -0.290 OA 
HETATM   11  N   UNL     1     -11.505  14.695  68.498  1.00  0.00    -0.287 N  
HETATM   12  C   UNL     1      -9.259  18.427  68.214  1.00  0.00    -0.333 C  
HETATM   13  C   UNL     1      -8.092  17.758  67.506  1.00  0.00    -0.228 C  
HETATM   14  C   UNL     1      -8.433  16.267  67.517  1.00  0.00    -0.183 C  
BRANCH  11  15
HETATM   15  C   UNL     1     -12.356  13.963  69.433  1.00  0.00    -0.197 C  
BRANCH  15  16
HETATM   16  C   UNL     1     -11.900  12.527  69.624  1.00  0.00    -0.382 A  
HETATM   17  C   UNL     1     -12.526  11.689  70.545  1.00  0.00    -0.344 A  
HETATM   18  C   UNL     1     -11.948  10.464  70.910  1.00  0.00    -0.478 A  
HETATM   19  C   UNL     1     -10.759   9.992  70.320  1.00  0.00    -0.367 A  
HETATM   20  C   UNL     1     -10.274  10.745  69.242  1.00  0.00    -0.217 A  
HETATM   21  C   UNL     1     -10.794  12.016  68.934  1.00  0.00    -0.252 A  
BRANCH  19  22
HETATM   22  C   UNL     1     -10.051   8.791  70.882  1.00  0.00    -0.276 A  
HETATM   23  C   UNL     1      -9.488   8.883  72.181  1.00  0.00    -0.182 A  
HETATM   24  C   UNL     1      -8.708   7.868  72.748  1.00  0.00    -0.231 A  
HETATM   25  C   UNL     1      -8.494   6.693  72.053  1.00  0.00    -0.116 A  
HETATM   26  C   UNL     1      -9.060   6.540  70.791  1.00  0.00    -0.154 A  
HETATM   27  C   UNL     1      -9.821   7.572  70.181  1.00  0.00    -0.180 A  
BRANCH  27  28
HETATM   28  C   UNL     1     -10.277   7.285  68.822  1.00  0.00    -0.182 A  
HETATM   29  N   UNL     1     -11.298   6.447  68.541  1.00  0.00    -0.230 NA 
HETATM   30  N   UNL     1     -11.291   6.503  67.202  1.00  0.00    -0.771 NA 
HETATM   31  H   UNL     1     -11.956   5.977  66.636  1.00  0.00     0.000 HD 
HETATM   32  N   UNL     1     -10.362   7.289  66.653  1.00  0.00    -0.209 NA 
HETATM   33  N   UNL     1      -9.681   7.770  67.683  1.00  0.00    -0.148 NA 
ENDBRANCH  27  28
ENDBRANCH  19  22
ENDBRANCH  15  16
ENDBRANCH  11  15
ENDBRANCH   4   5
ENDBRANCH   3   4
ENDBRANCH   2   3
TORSDOF 7
ENDMDL
MODEL       43
REMARK 921   NORMALIZED FREE ENERGY PREDICTED BY IDOCK:   -6.27 KCAL/MOL
REMARK 922        TOTAL FREE ENERGY PREDICTED BY IDOCK:  -10.79 KCAL/MOL
REMARK 923 INTER-LIGAND FREE ENERGY PREDICTED BY IDOCK:   -9.32 KCAL/MOL
REMARK 924 INTRA-LIGAND FREE ENERGY PREDICTED BY IDOCK:   -1.46 KCAL/MOL
REMARK 927      BINDING AFFINITY PREDICTED BY RF-SCORE:    0.00 PKD
ROOT
HETATM    1  C   UNL     1     -11.167  12.139  65.200  1.00  0.00    -0.378 C  
HETATM    2  C   UNL     1     -11.405  11.793  66.656  1.00  0.00    -0.381 C  
ENDROOT
BRANCH   2   3
HETATM    3  C   UNL     1     -11.634  13.047  67.494  1.00  0.00    -0.405 C  
BRANCH   3   4
HETATM    4  C   UNL     1     -10.794  13.041  68.766  1.00  0.00    -0.277 C  
BRANCH   4   5
HETATM    5  C   UNL     1     -11.665  13.290  69.966  1.00  0.00    -0.225 C  
HETATM    6  N   UNL     1     -11.625  14.450  70.551  1.00  0.00    -0.248 NA 
HETATM    7  C   UNL     1     -12.644  14.365  71.625  1.00  0.00    -0.353 C  
HETATM    8  C   UNL     1     -12.988  12.885  71.657  1.00  0.00    -0.313 C  
HETATM    9  C   UNL     1     -13.874  15.188  71.223  1.00  0.00    -0.553 C  
HETATM   10  O   UNL     1     -13.578  12.285  72.542  1.00  0.00    -0.335 OA 
HETATM   11  N   UNL     1     -12.501  12.370  70.482  1.00  0.00    -0.241 N  
HETATM   12  C   UNL     1     -14.395  15.716  72.550  1.00  0.00    -0.342 C  
HETATM   13  C   UNL     1     -13.121  16.072  73.298  1.00  0.00    -0.658 C  
HETATM   14  C   UNL     1     -12.133  14.961  72.936  1.00  0.00    -0.364 C  
BRANCH  11  15
HETATM   15  C   UNL     1     -12.787  11.000  70.065  1.00  0.00     0.013 C  
BRANCH  15  16
HETATM   16  C   UNL     1     -11.862   9.992  70.723  1.00  0.00    -0.435 A  
HETATM   17  C   UNL     1     -10.592   9.736  70.209  1.00  0.00    -0.348 A  
HETATM   18  C   UNL     1      -9.847   8.632  70.650  1.00  0.00    -0.220 A  
HETATM   19  C   UNL     1     -10.308   7.777  71.671  1.00  0.00    -0.236 A  
HETATM   20  C   UNL     1     -11.480   8.186  72.323  1.00  0.00    -0.435 A  
HETATM   21  C   UNL     1     -12.275   9.235  71.827  1.00  0.00    -0.457 A  
BRANCH  19  22
HETATM   22  C   UNL     1      -9.597   6.487  71.968  1.00  0.00    -0.154 A  
HETATM   23  C   UNL     1     -10.182   5.273  71.521  1.00  0.00    -0.276 A  
HETATM   24  C   UNL     1      -9.665   4.013  71.846  1.00  0.00    -0.236 A  
HETATM   25  C   UNL     1      -8.510   3.914  72.599  1.00  0.00    -0.099 A  
HETATM   26  C   UNL     1      -7.878   5.078  73.025  1.00  0.00    -0.097 A  
HETATM   27  C   UNL     1      -8.407   6.365  72.740  1.00  0.00    -0.118 A  
BRANCH  27  28
HETATM   28  C   UNL     1      -7.668   7.481  73.328  1.00  0.00    -0.101 A  
HETATM   29  N   UNL     1      -8.056   8.121  74.452  1.00  0.00    -0.252 NA 
HETATM   30  N   UNL     1      -7.094   9.050  74.542  1.00  0.00    -0.412 NA 
HETATM   31  H   UNL     1      -7.070   9.729  75.302  1.00  0.00     0.000 HD 
HETATM   32  N   UNL     1      -6.171   9.034  73.578  1.00  0.00    -0.315 NA 
HETATM   33  N   UNL     1      -6.548   8.052  72.771  1.00  0.00    -0.074 NA 
ENDBRANCH  27  28
ENDBRANCH  19  22
ENDBRANCH  15  16
ENDBRANCH  11  15
ENDBRANCH   4   5
ENDBRANCH   3   4
ENDBRANCH   2   3
TORSDOF 7
ENDMDL
MODEL       44
REMARK 921   NORMALIZED FREE ENERGY PREDICTED BY IDOCK:   -6.24 KCAL/MOL
REMARK 922        TOTAL FREE ENERGY PREDICTED BY IDOCK:  -10.74 KCAL/MOL
REMARK 923 INTER-LIGAND FREE ENERGY PREDICTED BY IDOCK:   -8.72 KCAL/MOL
REMARK 924 INTRA-LIGAND FREE ENERGY PREDICTED BY IDOCK:   -2.01 KCAL/MOL
REMARK 927      BINDING AFFINITY PREDICTED BY RF-SCORE:    0.00 PKD
ROOT
HETATM    1  C   UNL     1     -12.498  12.416  64.481  1.00  0.00    -0.519 C  
HETATM    2  C   UNL     1     -10.988  12.391  64.603  1.00  0.00    -0.344 C  
ENDROOT
BRANCH   2   3
HETATM    3  C   UNL     1     -10.415  13.803  64.683  1.00  0.00    -0.433 C  
BRANCH   3   4
HETATM    4  C   UNL     1     -11.479  14.827  65.064  1.00  0.00    -0.389 C  
BRANCH   4   5
HETATM    5  C   UNL     1     -10.878  15.914  65.910  1.00  0.00    -0.233 C  
HETATM    6  N   UNL     1     -10.199  16.862  65.338  1.00  0.00    -0.623 NA 
HETATM    7  C   UNL     1      -9.827  17.779  66.444  1.00  0.00    -0.324 C  
HETATM    8  C   UNL     1     -10.189  16.982  67.686  1.00  0.00    -0.317 C  
HETATM    9  C   UNL     1     -10.683  19.048  66.358  1.00  0.00    -0.410 C  
HETATM   10  O   UNL     1      -9.831  17.204  68.833  1.00  0.00    -0.271 OA 
HETATM   11  N   UNL     1     -11.004  15.969  67.249  1.00  0.00    -0.261 N  
HETATM   12  C   UNL     1      -9.755  20.135  66.875  1.00  0.00    -0.582 C  
HETATM   13  C   UNL     1      -8.416  19.757  66.264  1.00  0.00    -0.390 C  
HETATM   14  C   UNL     1      -8.371  18.230  66.339  1.00  0.00    -0.267 C  
BRANCH  11  15
HETATM   15  C   UNL     1     -11.700  15.084  68.180  1.00  0.00    -0.312 C  
BRANCH  15  16
HETATM   16  C   UNL     1     -11.069  13.704  68.242  1.00  0.00    -0.281 A  
HETATM   17  C   UNL     1      -9.685  13.542  68.218  1.00  0.00    -0.224 A  
HETATM   18  C   UNL     1      -9.113  12.279  68.011  1.00  0.00    -0.191 A  
HETATM   19  C   UNL     1      -9.895  11.113  67.889  1.00  0.00    -0.187 A  
HETATM   20  C   UNL     1     -11.265  11.272  68.140  1.00  0.00    -0.351 A  
HETATM   21  C   UNL     1     -11.854  12.544  68.256  1.00  0.00    -0.361 A  
BRANCH  19  22
HETATM   22  C   UNL     1      -9.273   9.817  67.452  1.00  0.00    -0.151 A  
HETATM   23  C   UNL     1     -10.065   8.902  66.710  1.00  0.00    -0.350 A  
HETATM   24  C   UNL     1      -9.622   7.621  66.357  1.00  0.00    -0.223 A  
HETATM   25  C   UNL     1      -8.345   7.216  66.697  1.00  0.00    -0.114 A  
HETATM   26  C   UNL     1      -7.517   8.093  67.388  1.00  0.00    -0.093 A  
HETATM   27  C   UNL     1      -7.959   9.381  67.790  1.00  0.00    -0.096 A  
BRANCH  27  28
HETATM   28  C   UNL     1      -6.997  10.149  68.579  1.00  0.00    -0.069 A  
HETATM   29  N   UNL     1      -5.917  10.760  68.047  1.00  0.00    -0.050 NA 
HETATM   30  N   UNL     1      -5.365  11.275  69.154  1.00  0.00    -0.041 NA 
HETATM   31  H   UNL     1      -4.506  11.824  69.123  1.00  0.00     0.000 HD 
HETATM   32  N   UNL     1      -6.005  11.028  70.299  1.00  0.00    -0.126 NA 
HETATM   33  N   UNL     1      -7.038  10.275  69.947  1.00  0.00    -0.138 NA 
ENDBRANCH  27  28
ENDBRANCH  19  22
ENDBRANCH  15  16
ENDBRANCH  11  15
ENDBRANCH   4   5
ENDBRANCH   3   4
ENDBRANCH   2   3
TORSDOF 7
ENDMDL
MODEL       45
REMARK 921   NORMALIZED FREE ENERGY PREDICTED BY IDOCK:   -6.24 KCAL/MOL
REMARK 922        TOTAL FREE ENERGY PREDICTED BY IDOCK:  -10.73 KCAL/MOL
REMARK 923 INTER-LIGAND FREE ENERGY PREDICTED BY IDOCK:   -9.44 KCAL/MOL
REMARK 924 INTRA-LIGAND FREE ENERGY PREDICTED BY IDOCK:   -1.30 KCAL/MOL
REMARK 927      BINDING AFFINITY PREDICTED BY RF-SCORE:    0.00 PKD
ROOT
HETATM    1  C   UNL     1     -14.187  15.124  71.655  1.00  0.00    -0.664 C  
HETATM    2  C   UNL     1     -12.793  15.710  71.567  1.00  0.00    -0.538 C  
ENDROOT
BRANCH   2   3
HETATM    3  C   UNL     1     -12.232  15.596  70.153  1.00  0.00    -0.387 C  
BRANCH   3   4
HETATM    4  C   UNL     1     -10.713  15.465  70.153  1.00  0.00    -0.326 C  
BRANCH   4   5
HETATM    5  C   UNL     1     -10.107  16.421  69.164  1.00  0.00    -0.278 C  
HETATM    6  N   UNL     1     -10.862  17.317  68.602  1.00  0.00    -0.265 NA 
HETATM    7  C   UNL     1      -9.936  18.115  67.762  1.00  0.00    -0.327 C  
HETATM    8  C   UNL     1      -8.659  17.292  67.780  1.00  0.00    -0.225 C  
HETATM    9  C   UNL     1      -9.699  19.478  68.422  1.00  0.00    -0.498 C  
HETATM   10  O   UNL     1      -7.702  17.400  67.028  1.00  0.00    -0.187 OA 
HETATM   11  N   UNL     1      -8.806  16.409  68.820  1.00  0.00    -0.236 N  
HETATM   12  C   UNL     1      -9.516  20.417  67.241  1.00  0.00    -0.568 C  
HETATM   13  C   UNL     1     -10.557  19.923  66.250  1.00  0.00    -0.534 C  
HETATM   14  C   UNL     1     -10.528  18.399  66.382  1.00  0.00    -0.412 C  
BRANCH  11  15
HETATM   15  C   UNL     1      -7.708  15.556  69.267  1.00  0.00    -0.223 C  
BRANCH  15  16
HETATM   16  C   UNL     1      -7.734  14.190  68.605  1.00  0.00    -0.135 A  
HETATM   17  C   UNL     1      -8.534  13.944  67.490  1.00  0.00    -0.200 A  
HETATM   18  C   UNL     1      -8.760  12.634  67.042  1.00  0.00    -0.198 A  
HETATM   19  C   UNL     1      -8.143  11.520  67.645  1.00  0.00    -0.130 A  
HETATM   20  C   UNL     1      -7.174  11.812  68.615  1.00  0.00    -0.112 A  
HETATM   21  C   UNL     1      -7.010  13.112  69.129  1.00  0.00    -0.028 A  
BRANCH  19  22
HETATM   22  C   UNL     1      -8.570  10.124  67.290  1.00  0.00    -0.125 A  
HETATM   23  C   UNL     1      -7.735   9.356  66.437  1.00  0.00    -0.097 A  
HETATM   24  C   UNL     1      -8.096   8.093  65.951  1.00  0.00    -0.115 A  
HETATM   25  C   UNL     1      -9.295   7.524  66.335  1.00  0.00    -0.211 A  
HETATM   26  C   UNL     1     -10.129   8.221  67.203  1.00  0.00    -0.334 A  
HETATM   27  C   UNL     1      -9.801   9.519  67.676  1.00  0.00    -0.206 A  
BRANCH  27  28
HETATM   28  C   UNL     1     -10.819  10.148  68.515  1.00  0.00    -0.237 A  
HETATM   29  N   UNL     1     -11.891  10.803  68.020  1.00  0.00    -0.509 NA 
HETATM   30  N   UNL     1     -12.472  11.205  69.159  1.00  0.00    -0.523 NA 
HETATM   31  H   UNL     1     -13.338  11.743  69.162  1.00  0.00     0.000 HD 
HETATM   32  N   UNL     1     -11.850  10.861  70.288  1.00  0.00    -0.331 NA 
HETATM   33  N   UNL     1     -10.767  10.210  69.888  1.00  0.00    -0.275 NA 
ENDBRANCH  27  28
ENDBRANCH  19  22
ENDBRANCH  15  16
ENDBRANCH  11  15
ENDBRANCH   4   5
ENDBRANCH   3   4
ENDBRANCH   2   3
TORSDOF 7
ENDMDL
MODEL       46
REMARK 921   NORMALIZED FREE ENERGY PREDICTED BY IDOCK:   -6.22 KCAL/MOL
REMARK 922        TOTAL FREE ENERGY PREDICTED BY IDOCK:  -10.71 KCAL/MOL
REMARK 923 INTER-LIGAND FREE ENERGY PREDICTED BY IDOCK:   -9.03 KCAL/MOL
REMARK 924 INTRA-LIGAND FREE ENERGY PREDICTED BY IDOCK:   -1.68 KCAL/MOL
REMARK 927      BINDING AFFINITY PREDICTED BY RF-SCORE:    0.00 PKD
ROOT
HETATM    1  C   UNL     1     -13.453   8.499  72.222  1.00  0.00    -0.362 C  
HETATM    2  C   UNL     1     -13.742   9.586  71.206  1.00  0.00    -0.235 C  
ENDROOT
BRANCH   2   3
HETATM    3  C   UNL     1     -12.736  10.728  71.315  1.00  0.00    -0.546 C  
BRANCH   3   4
HETATM    4  C   UNL     1     -12.058  11.018  69.980  1.00  0.00    -0.441 C  
BRANCH   4   5
HETATM    5  C   UNL     1     -10.903  10.079  69.768  1.00  0.00    -0.273 C  
HETATM    6  N   UNL     1     -10.279   9.595  70.799  1.00  0.00    -0.290 NA 
HETATM    7  C   UNL     1      -9.269   8.670  70.228  1.00  0.00    -0.166 C  
HETATM    8  C   UNL     1      -9.307   8.994  68.744  1.00  0.00    -0.140 C  
HETATM    9  C   UNL     1      -9.714   7.223  70.468  1.00  0.00    -0.176 C  
HETATM   10  O   UNL     1      -8.478   8.685  67.901  1.00  0.00    -0.127 OA 
HETATM   11  N   UNL     1     -10.468   9.700  68.551  1.00  0.00    -0.205 N  
HETATM   12  C   UNL     1      -8.404   6.475  70.649  1.00  0.00    -0.133 C  
HETATM   13  C   UNL     1      -7.572   7.443  71.473  1.00  0.00    -0.085 C  
HETATM   14  C   UNL     1      -7.912   8.825  70.912  1.00  0.00    -0.155 C  
BRANCH  11  15
HETATM   15  C   UNL     1     -10.947  10.046  67.216  1.00  0.00    -0.156 C  
BRANCH  15  16
HETATM   16  C   UNL     1     -10.815  11.530  66.923  1.00  0.00    -0.331 A  
HETATM   17  C   UNL     1      -9.621  12.208  67.163  1.00  0.00    -0.195 A  
HETATM   18  C   UNL     1      -9.575  13.610  67.145  1.00  0.00    -0.241 A  
HETATM   19  C   UNL     1     -10.701  14.392  66.818  1.00  0.00    -0.292 A  
HETATM   20  C   UNL     1     -11.822  13.683  66.364  1.00  0.00    -0.433 A  
HETATM   21  C   UNL     1     -11.904  12.283  66.468  1.00  0.00    -0.378 A  
BRANCH  19  22
HETATM   22  C   UNL     1     -10.682  15.881  67.019  1.00  0.00    -0.292 A  
HETATM   23  C   UNL     1     -10.340  16.709  65.918  1.00  0.00    -0.355 A  
HETATM   24  C   UNL     1     -10.177  18.095  66.028  1.00  0.00    -0.325 A  
HETATM   25  C   UNL     1     -10.396  18.721  67.241  1.00  0.00    -0.469 A  
HETATM   26  C   UNL     1     -10.775  17.956  68.339  1.00  0.00    -0.171 A  
HETATM   27  C   UNL     1     -10.906  16.545  68.260  1.00  0.00    -0.352 A  
BRANCH  27  28
HETATM   28  C   UNL     1     -11.231  15.881  69.521  1.00  0.00    -0.325 A  
HETATM   29  N   UNL     1     -10.300  15.476  70.411  1.00  0.00    -0.227 NA 
HETATM   30  N   UNL     1     -11.085  14.918  71.342  1.00  0.00    -0.565 NA 
HETATM   31  H   UNL     1     -10.704  14.498  72.189  1.00  0.00     0.000 HD 
HETATM   32  N   UNL     1     -12.397  14.943  71.095  1.00  0.00    -0.300 NA 
HETATM   33  N   UNL     1     -12.502  15.528  69.910  1.00  0.00    -0.290 NA 
ENDBRANCH  27  28
ENDBRANCH  19  22
ENDBRANCH  15  16
ENDBRANCH  11  15
ENDBRANCH   4   5
ENDBRANCH   3   4
ENDBRANCH   2   3
TORSDOF 7
ENDMDL
MODEL       47
REMARK 921   NORMALIZED FREE ENERGY PREDICTED BY IDOCK:   -6.21 KCAL/MOL
REMARK 922        TOTAL FREE ENERGY PREDICTED BY IDOCK:  -10.69 KCAL/MOL
REMARK 923 INTER-LIGAND FREE ENERGY PREDICTED BY IDOCK:   -9.37 KCAL/MOL
REMARK 924 INTRA-LIGAND FREE ENERGY PREDICTED BY IDOCK:   -1.33 KCAL/MOL
REMARK 927      BINDING AFFINITY PREDICTED BY RF-SCORE:    0.00 PKD
ROOT
HETATM    1  C   UNL     1     -12.962  15.862  73.131  1.00  0.00    -0.653 C  
HETATM    2  C   UNL     1     -14.122  15.553  72.206  1.00  0.00    -0.637 C  
ENDROOT
BRANCH   2   3
HETATM    3  C   UNL     1     -13.922  14.219  71.492  1.00  0.00    -0.415 C  
BRANCH   3   4
HETATM    4  C   UNL     1     -12.473  13.748  71.566  1.00  0.00    -0.364 C  
BRANCH   4   5
HETATM    5  C   UNL     1     -12.013  13.268  70.218  1.00  0.00    -0.300 C  
HETATM    6  N   UNL     1     -11.347  14.076  69.449  1.00  0.00    -0.265 NA 
HETATM    7  C   UNL     1     -10.998  13.261  68.259  1.00  0.00    -0.256 C  
HETATM    8  C   UNL     1     -11.842  12.011  68.440  1.00  0.00    -0.300 C  
HETATM    9  C   UNL     1      -9.508  12.908  68.306  1.00  0.00    -0.206 C  
HETATM   10  O   UNL     1     -12.099  11.166  67.595  1.00  0.00    -0.537 OA 
HETATM   11  N   UNL     1     -12.249  12.028  69.750  1.00  0.00    -0.208 N  
HETATM   12  C   UNL     1      -9.106  12.872  66.841  1.00  0.00    -0.224 C  
HETATM   13  C   UNL     1      -9.863  14.052  66.253  1.00  0.00    -0.318 C  
HETATM   14  C   UNL     1     -11.220  14.035  66.960  1.00  0.00    -0.325 C  
BRANCH  11  15
HETATM   15  C   UNL     1     -12.944  10.895  70.356  1.00  0.00    -0.103 C  
BRANCH  15  16
HETATM   16  C   UNL     1     -11.987   9.914  71.010  1.00  0.00    -0.456 A  
HETATM   17  C   UNL     1     -10.717   9.687  70.483  1.00  0.00    -0.374 A  
HETATM   18  C   UNL     1      -9.941   8.605  70.921  1.00  0.00    -0.257 A  
HETATM   19  C   UNL     1     -10.369   7.744  71.952  1.00  0.00    -0.256 A  
HETATM   20  C   UNL     1     -11.544   8.127  72.614  1.00  0.00    -0.441 A  
HETATM   21  C   UNL     1     -12.370   9.154  72.122  1.00  0.00    -0.424 A  
BRANCH  19  22
HETATM   22  C   UNL     1      -9.623   6.474  72.247  1.00  0.00    -0.149 A  
HETATM   23  C   UNL     1     -10.239   5.236  71.926  1.00  0.00    -0.264 A  
HETATM   24  C   UNL     1      -9.684   3.997  72.267  1.00  0.00    -0.217 A  
HETATM   25  C   UNL     1      -8.461   3.942  72.909  1.00  0.00    -0.095 A  
HETATM   26  C   UNL     1      -7.799   5.128  73.207  1.00  0.00    -0.104 A  
HETATM   27  C   UNL     1      -8.362   6.397  72.906  1.00  0.00    -0.117 A  
BRANCH  27  28
HETATM   28  C   UNL     1      -7.579   7.545  73.358  1.00  0.00    -0.101 A  
HETATM   29  N   UNL     1      -7.761   8.147  74.553  1.00  0.00    -0.219 NA 
HETATM   30  N   UNL     1      -6.852   9.128  74.468  1.00  0.00    -0.391 NA 
HETATM   31  H   UNL     1      -6.708   9.798  75.223  1.00  0.00     0.000 HD 
HETATM   32  N   UNL     1      -6.145   9.176  73.336  1.00  0.00    -0.311 NA 
HETATM   33  N   UNL     1      -6.628   8.185  72.599  1.00  0.00    -0.078 NA 
ENDBRANCH  27  28
ENDBRANCH  19  22
ENDBRANCH  15  16
ENDBRANCH  11  15
ENDBRANCH   4   5
ENDBRANCH   3   4
ENDBRANCH   2   3
TORSDOF 7
ENDMDL
MODEL       48
REMARK 921   NORMALIZED FREE ENERGY PREDICTED BY IDOCK:   -6.20 KCAL/MOL
REMARK 922        TOTAL FREE ENERGY PREDICTED BY IDOCK:  -10.69 KCAL/MOL
REMARK 923 INTER-LIGAND FREE ENERGY PREDICTED BY IDOCK:  -10.13 KCAL/MOL
REMARK 924 INTRA-LIGAND FREE ENERGY PREDICTED BY IDOCK:   -0.56 KCAL/MOL
REMARK 927      BINDING AFFINITY PREDICTED BY RF-SCORE:    0.00 PKD
ROOT
HETATM    1  C   UNL     1      -9.840  20.438  67.265  1.00  0.00    -0.597 C  
HETATM    2  C   UNL     1      -9.554  19.027  67.737  1.00  0.00    -0.365 C  
ENDROOT
BRANCH   2   3
HETATM    3  C   UNL     1     -10.109  17.993  66.763  1.00  0.00    -0.357 C  
BRANCH   3   4
HETATM    4  C   UNL     1      -9.450  16.630  66.944  1.00  0.00    -0.248 C  
BRANCH   4   5
HETATM    5  C   UNL     1     -10.367  15.540  66.466  1.00  0.00    -0.288 C  
HETATM    6  N   UNL     1     -10.306  15.155  65.227  1.00  0.00    -0.385 NA 
HETATM    7  C   UNL     1     -11.278  14.039  65.131  1.00  0.00    -0.329 C  
HETATM    8  C   UNL     1     -12.031  14.124  66.448  1.00  0.00    -0.436 C  
HETATM    9  C   UNL     1     -10.517  12.711  65.039  1.00  0.00    -0.331 C  
HETATM   10  O   UNL     1     -13.094  13.588  66.725  1.00  0.00     0.381 OA 
HETATM   11  N   UNL     1     -11.264  14.922  67.258  1.00  0.00    -0.337 N  
HETATM   12  C   UNL     1     -11.410  11.852  64.159  1.00  0.00    -0.455 C  
HETATM   13  C   UNL     1     -11.893  12.833  63.104  1.00  0.00    -0.314 C  
HETATM   14  C   UNL     1     -12.130  14.139  63.866  1.00  0.00    -0.301 C  
BRANCH  11  15
HETATM   15  C   UNL     1     -11.572  15.105  68.675  1.00  0.00    -0.338 C  
BRANCH  15  16
HETATM   16  C   UNL     1     -11.622  13.788  69.428  1.00  0.00    -0.365 A  
HETATM   17  C   UNL     1     -10.916  12.674  68.979  1.00  0.00    -0.240 A  
HETATM   18  C   UNL     1     -11.165  11.402  69.514  1.00  0.00    -0.322 A  
HETATM   19  C   UNL     1     -12.078  11.198  70.568  1.00  0.00    -0.474 A  
HETATM   20  C   UNL     1     -12.605  12.360  71.149  1.00  0.00    -0.349 A  
HETATM   21  C   UNL     1     -12.431  13.626  70.560  1.00  0.00    -0.394 A  
BRANCH  19  22
HETATM   22  C   UNL     1     -12.485   9.808  70.970  1.00  0.00    -0.414 A  
HETATM   23  C   UNL     1     -13.853   9.560  71.257  1.00  0.00    -0.159 A  
HETATM   24  C   UNL     1     -14.318   8.336  71.753  1.00  0.00    -0.574 A  
HETATM   25  C   UNL     1     -13.435   7.289  71.942  1.00  0.00    -0.295 A  
HETATM   26  C   UNL     1     -12.091   7.472  71.636  1.00  0.00    -0.341 A  
HETATM   27  C   UNL     1     -11.592   8.717  71.169  1.00  0.00    -0.330 A  
BRANCH  27  28
HETATM   28  C   UNL     1     -10.145   8.769  70.971  1.00  0.00    -0.237 A  
HETATM   29  N   UNL     1      -9.529   8.323  69.855  1.00  0.00    -0.166 NA 
HETATM   30  N   UNL     1      -8.250   8.557  70.177  1.00  0.00    -0.116 NA 
HETATM   31  H   UNL     1      -7.484   8.338  69.541  1.00  0.00     0.000 HD 
HETATM   32  N   UNL     1      -8.037   9.096  71.380  1.00  0.00    -0.338 NA 
HETATM   33  N   UNL     1      -9.245   9.204  71.915  1.00  0.00    -0.316 NA 
ENDBRANCH  27  28
ENDBRANCH  19  22
ENDBRANCH  15  16
ENDBRANCH  11  15
ENDBRANCH   4   5
ENDBRANCH   3   4
ENDBRANCH   2   3
TORSDOF 7
ENDMDL
MODEL       49
REMARK 921   NORMALIZED FREE ENERGY PREDICTED BY IDOCK:   -6.17 KCAL/MOL
REMARK 922        TOTAL FREE ENERGY PREDICTED BY IDOCK:  -10.64 KCAL/MOL
REMARK 923 INTER-LIGAND FREE ENERGY PREDICTED BY IDOCK:   -9.20 KCAL/MOL
REMARK 924 INTRA-LIGAND FREE ENERGY PREDICTED BY IDOCK:   -1.44 KCAL/MOL
REMARK 927      BINDING AFFINITY PREDICTED BY RF-SCORE:    0.00 PKD
ROOT
HETATM    1  C   UNL     1     -13.217  10.155  71.673  1.00  0.00    -0.518 C  
HETATM    2  C   UNL     1     -11.834  10.329  71.078  1.00  0.00    -0.472 C  
ENDROOT
BRANCH   2   3
HETATM    3  C   UNL     1     -11.908  10.654  69.589  1.00  0.00    -0.358 C  
BRANCH   3   4
HETATM    4  C   UNL     1     -11.529  12.103  69.303  1.00  0.00    -0.363 C  
BRANCH   4   5
HETATM    5  C   UNL     1     -11.202  12.279  67.847  1.00  0.00    -0.274 C  
HETATM    6  N   UNL     1     -12.147  12.153  66.964  1.00  0.00    -0.546 NA 
HETATM    7  C   UNL     1     -11.494  12.460  65.668  1.00  0.00    -0.367 C  
HETATM    8  C   UNL     1     -10.016  12.478  66.023  1.00  0.00    -0.257 C  
HETATM    9  C   UNL     1     -11.942  13.846  65.190  1.00  0.00    -0.394 C  
HETATM   10  O   UNL     1      -9.072  12.428  65.249  1.00  0.00     0.250 OA 
HETATM   11  N   UNL     1      -9.968  12.568  67.391  1.00  0.00    -0.205 N  
HETATM   12  C   UNL     1     -11.956  13.711  63.676  1.00  0.00    -0.371 C  
HETATM   13  C   UNL     1     -12.525  12.318  63.465  1.00  0.00    -0.642 C  
HETATM   14  C   UNL     1     -11.907  11.472  64.579  1.00  0.00    -0.025 C  
BRANCH  11  15
HETATM   15  C   UNL     1      -8.713  12.782  68.106  1.00  0.00    -0.193 C  
BRANCH  15  16
HETATM   16  C   UNL     1      -8.327  14.249  68.166  1.00  0.00    -0.162 A  
HETATM   17  C   UNL     1      -7.224  14.734  67.465  1.00  0.00    -0.222 A  
HETATM   18  C   UNL     1      -6.715  16.015  67.723  1.00  0.00    -0.175 A  
HETATM   19  C   UNL     1      -7.325  16.892  68.641  1.00  0.00    -0.222 A  
HETATM   20  C   UNL     1      -8.555  16.467  69.163  1.00  0.00    -0.147 A  
HETATM   21  C   UNL     1      -9.022  15.153  68.980  1.00  0.00    -0.219 A  
BRANCH  19  22
HETATM   22  C   UNL     1      -6.638  18.163  69.058  1.00  0.00    -0.253 A  
HETATM   23  C   UNL     1      -5.779  18.129  70.187  1.00  0.00    -0.225 A  
HETATM   24  C   UNL     1      -5.186  19.276  70.728  1.00  0.00    -0.235 A  
HETATM   25  C   UNL     1      -5.394  20.506  70.133  1.00  0.00    -0.351 A  
HETATM   26  C   UNL     1      -6.195  20.583  68.998  1.00  0.00    -0.330 A  
HETATM   27  C   UNL     1      -6.838  19.439  68.456  1.00  0.00    -0.326 A  
BRANCH  27  28
HETATM   28  C   UNL     1      -7.710  19.701  67.313  1.00  0.00    -0.254 A  
HETATM   29  N   UNL     1      -7.261  20.150  66.121  1.00  0.00    -0.283 NA 
HETATM   30  N   UNL     1      -8.418  20.256  65.454  1.00  0.00    -0.353 NA 
HETATM   31  H   UNL     1      -8.455  20.574  64.486  1.00  0.00     0.000 HD 
HETATM   32  N   UNL     1      -9.518  19.919  66.130  1.00  0.00    -0.402 NA 
HETATM   33  N   UNL     1      -9.080  19.594  67.338  1.00  0.00    -0.305 NA 
ENDBRANCH  27  28
ENDBRANCH  19  22
ENDBRANCH  15  16
ENDBRANCH  11  15
ENDBRANCH   4   5
ENDBRANCH   3   4
ENDBRANCH   2   3
TORSDOF 7
ENDMDL
MODEL       50
REMARK 921   NORMALIZED FREE ENERGY PREDICTED BY IDOCK:   -6.15 KCAL/MOL
REMARK 922        TOTAL FREE ENERGY PREDICTED BY IDOCK:  -10.61 KCAL/MOL
REMARK 923 INTER-LIGAND FREE ENERGY PREDICTED BY IDOCK:   -8.58 KCAL/MOL
REMARK 924 INTRA-LIGAND FREE ENERGY PREDICTED BY IDOCK:   -2.03 KCAL/MOL
REMARK 927      BINDING AFFINITY PREDICTED BY RF-SCORE:    0.00 PKD
ROOT
HETATM    1  C   UNL     1     -13.593  13.009  72.355  1.00  0.00    -0.628 C  
HETATM    2  C   UNL     1     -12.672  13.197  71.167  1.00  0.00    -0.386 C  
ENDROOT
BRANCH   2   3
HETATM    3  C   UNL     1     -12.022  14.578  71.183  1.00  0.00    -0.401 C  
BRANCH   3   4
HETATM    4  C   UNL     1     -12.458  15.423  69.991  1.00  0.00    -0.316 C  
BRANCH   4   5
HETATM    5  C   UNL     1     -11.287  15.693  69.088  1.00  0.00    -0.338 C  
HETATM    6  N   UNL     1     -10.280  16.378  69.540  1.00  0.00    -0.265 NA 
HETATM    7  C   UNL     1      -9.299  16.384  68.427  1.00  0.00    -0.217 C  
HETATM    8  C   UNL     1     -10.101  15.837  67.259  1.00  0.00    -0.247 C  
HETATM    9  C   UNL     1      -8.141  15.438  68.767  1.00  0.00    -0.166 C  
HETATM   10  O   UNL     1      -9.810  15.896  66.073  1.00  0.00    -0.289 OA 
HETATM   11  N   UNL     1     -11.213  15.258  67.815  1.00  0.00    -0.320 N  
HETATM   12  C   UNL     1      -6.940  16.099  68.111  1.00  0.00    -0.135 C  
HETATM   13  C   UNL     1      -7.173  17.575  68.386  1.00  0.00    -0.226 C  
HETATM   14  C   UNL     1      -8.682  17.767  68.225  1.00  0.00    -0.277 C  
BRANCH  11  15
HETATM   15  C   UNL     1     -12.151  14.469  67.021  1.00  0.00    -0.273 C  
BRANCH  15  16
HETATM   16  C   UNL     1     -11.711  13.022  66.880  1.00  0.00    -0.441 A  
HETATM   17  C   UNL     1     -11.744  12.149  67.965  1.00  0.00    -0.409 A  
HETATM   18  C   UNL     1     -11.100  10.905  67.907  1.00  0.00    -0.362 A  
HETATM   19  C   UNL     1     -10.454  10.450  66.740  1.00  0.00    -0.287 A  
HETATM   20  C   UNL     1     -10.627  11.247  65.599  1.00  0.00    -0.303 A  
HETATM   21  C   UNL     1     -11.191  12.534  65.675  1.00  0.00    -0.352 A  
BRANCH  19  22
HETATM   22  C   UNL     1      -9.590   9.221  66.773  1.00  0.00    -0.240 A  
HETATM   23  C   UNL     1     -10.221   7.950  66.771  1.00  0.00    -0.358 A  
HETATM   24  C   UNL     1      -9.517   6.748  66.919  1.00  0.00    -0.189 A  
HETATM   25  C   UNL     1      -8.140   6.766  67.032  1.00  0.00    -0.109 A  
HETATM   26  C   UNL     1      -7.473   7.986  66.997  1.00  0.00    -0.092 A  
HETATM   27  C   UNL     1      -8.170   9.218  66.888  1.00  0.00    -0.119 A  
BRANCH  27  28
HETATM   28  C   UNL     1      -7.330  10.413  66.947  1.00  0.00    -0.106 A  
HETATM   29  N   UNL     1      -6.626  10.882  65.895  1.00  0.00    -0.091 NA 
HETATM   30  N   UNL     1      -6.021  11.934  66.462  1.00  0.00    -0.485 NA 
HETATM   31  H   UNL     1      -5.393  12.543  65.938  1.00  0.00     0.000 HD 
HETATM   32  N   UNL     1      -6.289  12.140  67.753  1.00  0.00    -0.079 NA 
HETATM   33  N   UNL     1      -7.102  11.148  68.087  1.00  0.00    -0.069 NA 
ENDBRANCH  27  28
ENDBRANCH  19  22
ENDBRANCH  15  16
ENDBRANCH  11  15
ENDBRANCH   4   5
ENDBRANCH   3   4
ENDBRANCH   2   3
TORSDOF 7
ENDMDL
MODEL       51
REMARK 921   NORMALIZED FREE ENERGY PREDICTED BY IDOCK:   -6.14 KCAL/MOL
REMARK 922        TOTAL FREE ENERGY PREDICTED BY IDOCK:  -10.60 KCAL/MOL
REMARK 923 INTER-LIGAND FREE ENERGY PREDICTED BY IDOCK:   -8.18 KCAL/MOL
REMARK 924 INTRA-LIGAND FREE ENERGY PREDICTED BY IDOCK:   -2.42 KCAL/MOL
REMARK 927      BINDING AFFINITY PREDICTED BY RF-SCORE:    0.00 PKD
ROOT
HETATM    1  C   UNL     1      -5.976  10.667  67.495  1.00  0.00    -0.048 C  
HETATM    2  C   UNL     1      -7.064  11.540  68.087  1.00  0.00    -0.076 C  
ENDROOT
BRANCH   2   3
HETATM    3  C   UNL     1      -7.340  11.173  69.542  1.00  0.00    -0.023 C  
BRANCH   3   4
HETATM    4  C   UNL     1      -6.712   9.835  69.919  1.00  0.00    -0.078 C  
BRANCH   4   5
HETATM    5  C   UNL     1      -7.769   8.879  70.396  1.00  0.00    -0.098 C  
HETATM    6  N   UNL     1      -8.080   8.854  71.658  1.00  0.00    -0.329 NA 
HETATM    7  C   UNL     1      -9.185   7.869  71.753  1.00  0.00    -0.150 C  
HETATM    8  C   UNL     1      -9.174   7.207  70.385  1.00  0.00    -0.156 C  
HETATM    9  C   UNL     1     -10.508   8.611  71.973  1.00  0.00    -0.422 C  
HETATM   10  O   UNL     1      -9.721   6.161  70.068  1.00  0.00    -0.161 OA 
HETATM   11  N   UNL     1      -8.428   8.033  69.583  1.00  0.00    -0.129 N  
HETATM   12  C   UNL     1     -11.311   7.654  72.839  1.00  0.00    -0.394 C  
HETATM   13  C   UNL     1     -10.267   7.109  73.800  1.00  0.00    -0.395 C  
HETATM   14  C   UNL     1      -9.008   6.935  72.949  1.00  0.00    -0.144 C  
BRANCH  11  15
HETATM   15  C   UNL     1      -8.327   7.822  68.141  1.00  0.00    -0.124 C  
BRANCH  15  16
HETATM   16  C   UNL     1      -9.263   8.728  67.360  1.00  0.00    -0.158 A  
HETATM   17  C   UNL     1      -9.005   9.054  66.029  1.00  0.00    -0.227 A  
HETATM   18  C   UNL     1      -9.711  10.086  65.393  1.00  0.00    -0.368 A  
HETATM   19  C   UNL     1     -10.751  10.788  66.035  1.00  0.00    -0.168 A  
HETATM   20  C   UNL     1     -11.138  10.291  67.287  1.00  0.00    -0.215 A  
HETATM   21  C   UNL     1     -10.377   9.321  67.966  1.00  0.00    -0.270 A  
BRANCH  19  22
HETATM   22  C   UNL     1     -11.337  12.025  65.413  1.00  0.00    -0.375 A  
HETATM   23  C   UNL     1     -11.687  11.990  64.038  1.00  0.00    -0.498 A  
HETATM   24  C   UNL     1     -12.127  13.117  63.334  1.00  0.00    -0.558 A  
HETATM   25  C   UNL     1     -12.279  14.324  63.991  1.00  0.00    -0.336 A  
HETATM   26  C   UNL     1     -11.988  14.397  65.349  1.00  0.00    -0.369 A  
HETATM   27  C   UNL     1     -11.502  13.276  66.073  1.00  0.00    -0.360 A  
BRANCH  27  28
HETATM   28  C   UNL     1     -11.167  13.539  67.471  1.00  0.00    -0.283 A  
HETATM   29  N   UNL     1      -9.900  13.647  67.926  1.00  0.00    -0.230 NA 
HETATM   30  N   UNL     1     -10.131  13.847  69.231  1.00  0.00    -0.423 NA 
HETATM   31  H   UNL     1      -9.372  13.979  69.899  1.00  0.00     0.000 HD 
HETATM   32  N   UNL     1     -11.412  13.864  69.604  1.00  0.00    -0.263 NA 
HETATM   33  N   UNL     1     -12.088  13.632  68.488  1.00  0.00    -0.350 NA 
ENDBRANCH  27  28
ENDBRANCH  19  22
ENDBRANCH  15  16
ENDBRANCH  11  15
ENDBRANCH   4   5
ENDBRANCH   3   4
ENDBRANCH   2   3
TORSDOF 7
ENDMDL
MODEL       52
REMARK 921   NORMALIZED FREE ENERGY PREDICTED BY IDOCK:   -6.13 KCAL/MOL
REMARK 922        TOTAL FREE ENERGY PREDICTED BY IDOCK:  -10.58 KCAL/MOL
REMARK 923 INTER-LIGAND FREE ENERGY PREDICTED BY IDOCK:   -9.35 KCAL/MOL
REMARK 924 INTRA-LIGAND FREE ENERGY PREDICTED BY IDOCK:   -1.23 KCAL/MOL
REMARK 927      BINDING AFFINITY PREDICTED BY RF-SCORE:    0.00 PKD
ROOT
HETATM    1  C   UNL     1     -12.719  13.110  71.139  1.00  0.00    -0.386 C  
HETATM    2  C   UNL     1     -13.039  14.590  71.064  1.00  0.00    -0.429 C  
ENDROOT
BRANCH   2   3
HETATM    3  C   UNL     1     -12.272  15.265  69.931  1.00  0.00    -0.357 C  
BRANCH   3   4
HETATM    4  C   UNL     1     -11.050  16.020  70.444  1.00  0.00    -0.376 C  
BRANCH   4   5
HETATM    5  C   UNL     1     -10.317  16.663  69.301  1.00  0.00    -0.318 C  
HETATM    6  N   UNL     1     -10.849  17.683  68.697  1.00  0.00    -0.120 NA 
HETATM    7  C   UNL     1      -9.838  18.096  67.694  1.00  0.00    -0.312 C  
HETATM    8  C   UNL     1      -8.848  16.943  67.708  1.00  0.00    -0.217 C  
HETATM    9  C   UNL     1      -9.157  19.387  68.163  1.00  0.00    -0.385 C  
HETATM   10  O   UNL     1      -7.990  16.698  66.873  1.00  0.00    -0.176 OA 
HETATM   11  N   UNL     1      -9.118  16.242  68.856  1.00  0.00    -0.240 N  
HETATM   12  C   UNL     1      -8.852  20.118  66.865  1.00  0.00    -0.426 C  
HETATM   13  C   UNL     1     -10.095  19.858  66.029  1.00  0.00    -0.589 C  
HETATM   14  C   UNL     1     -10.478  18.410  66.343  1.00  0.00    -0.412 C  
BRANCH  11  15
HETATM   15  C   UNL     1      -8.259  15.152  69.313  1.00  0.00    -0.216 C  
BRANCH  15  16
HETATM   16  C   UNL     1      -8.388  13.914  68.444  1.00  0.00    -0.157 A  
HETATM   17  C   UNL     1      -7.275  13.349  67.825  1.00  0.00    -0.156 A  
HETATM   18  C   UNL     1      -7.425  12.378  66.823  1.00  0.00     0.167 A  
HETATM   19  C   UNL     1      -8.688  11.880  66.447  1.00  0.00    -0.118 A  
HETATM   20  C   UNL     1      -9.767  12.299  67.237  1.00  0.00    -0.195 A  
HETATM   21  C   UNL     1      -9.636  13.337  68.178  1.00  0.00    -0.227 A  
BRANCH  19  22
HETATM   22  C   UNL     1      -8.836  11.010  65.230  1.00  0.00    -0.139 A  
HETATM   23  C   UNL     1      -7.935   9.926  65.059  1.00  0.00    -0.137 A  
HETATM   24  C   UNL     1      -7.910   9.130  63.908  1.00  0.00    -0.129 A  
HETATM   25  C   UNL     1      -8.819   9.358  62.892  1.00  0.00    -0.216 A  
HETATM   26  C   UNL     1      -9.749  10.383  63.033  1.00  0.00    -0.288 A  
HETATM   27  C   UNL     1      -9.767  11.227  64.174  1.00  0.00    -0.298 A  
BRANCH  27  28
HETATM   28  C   UNL     1     -10.752  12.306  64.131  1.00  0.00    -0.372 A  
HETATM   29  N   UNL     1     -10.444  13.605  64.336  1.00  0.00    -0.398 NA 
HETATM   30  N   UNL     1     -11.659  14.159  64.227  1.00  0.00    -0.593 NA 
HETATM   31  H   UNL     1     -11.805  15.163  64.326  1.00  0.00     0.000 HD 
HETATM   32  N   UNL     1     -12.667  13.319  63.982  1.00  0.00    -0.667 NA 
HETATM   33  N   UNL     1     -12.102  12.120  63.953  1.00  0.00    -0.468 NA 
ENDBRANCH  27  28
ENDBRANCH  19  22
ENDBRANCH  15  16
ENDBRANCH  11  15
ENDBRANCH   4   5
ENDBRANCH   3   4
ENDBRANCH   2   3
TORSDOF 7
ENDMDL
MODEL       53
REMARK 921   NORMALIZED FREE ENERGY PREDICTED BY IDOCK:   -6.12 KCAL/MOL
REMARK 922        TOTAL FREE ENERGY PREDICTED BY IDOCK:  -10.57 KCAL/MOL
REMARK 923 INTER-LIGAND FREE ENERGY PREDICTED BY IDOCK:   -9.78 KCAL/MOL
REMARK 924 INTRA-LIGAND FREE ENERGY PREDICTED BY IDOCK:   -0.79 KCAL/MOL
REMARK 927      BINDING AFFINITY PREDICTED BY RF-SCORE:    0.00 PKD
ROOT
HETATM    1  C   UNL     1     -11.207  13.132  64.877  1.00  0.00    -0.333 C  
HETATM    2  C   UNL     1     -11.750  12.568  66.174  1.00  0.00    -0.466 C  
ENDROOT
BRANCH   2   3
HETATM    3  C   UNL     1     -11.822  13.640  67.258  1.00  0.00    -0.429 C  
BRANCH   3   4
HETATM    4  C   UNL     1     -10.911  13.317  68.437  1.00  0.00    -0.289 C  
BRANCH   4   5
HETATM    5  C   UNL     1     -11.649  13.509  69.733  1.00  0.00    -0.244 C  
HETATM    6  N   UNL     1     -11.511  14.626  70.382  1.00  0.00    -0.253 NA 
HETATM    7  C   UNL     1     -12.420  14.498  71.547  1.00  0.00    -0.355 C  
HETATM    8  C   UNL     1     -12.809  13.030  71.520  1.00  0.00    -0.290 C  
HETATM    9  C   UNL     1     -13.655  15.379  71.326  1.00  0.00    -0.585 C  
HETATM   10  O   UNL     1     -13.328  12.388  72.421  1.00  0.00    -0.481 OA 
HETATM   11  N   UNL     1     -12.460  12.580  70.272  1.00  0.00    -0.149 N  
HETATM   12  C   UNL     1     -14.023  15.832  72.730  1.00  0.00    -0.541 C  
HETATM   13  C   UNL     1     -12.669  16.103  73.365  1.00  0.00    -0.633 C  
HETATM   14  C   UNL     1     -11.761  14.992  72.834  1.00  0.00    -0.340 C  
BRANCH  11  15
HETATM   15  C   UNL     1     -12.832  11.249  69.800  1.00  0.00     0.258 C  
BRANCH  15  16
HETATM   16  C   UNL     1     -12.284  10.148  70.690  1.00  0.00    -0.394 A  
HETATM   17  C   UNL     1     -10.912   9.952  70.832  1.00  0.00    -0.392 A  
HETATM   18  C   UNL     1     -10.410   8.788  71.433  1.00  0.00    -0.348 A  
HETATM   19  C   UNL     1     -11.257   7.804  71.981  1.00  0.00    -0.327 A  
HETATM   20  C   UNL     1     -12.620   8.130  72.025  1.00  0.00    -0.366 A  
HETATM   21  C   UNL     1     -13.135   9.248  71.344  1.00  0.00    -0.387 A  
BRANCH  19  22
HETATM   22  C   UNL     1     -10.704   6.476  72.418  1.00  0.00    -0.253 A  
HETATM   23  C   UNL     1     -10.603   6.210  73.808  1.00  0.00    -0.261 A  
HETATM   24  C   UNL     1      -9.995   5.057  74.321  1.00  0.00    -0.226 A  
HETATM   25  C   UNL     1      -9.500   4.097  73.459  1.00  0.00    -0.119 A  
HETATM   26  C   UNL     1      -9.613   4.295  72.087  1.00  0.00    -0.203 A  
HETATM   27  C   UNL     1     -10.190   5.474  71.545  1.00  0.00    -0.270 A  
BRANCH  27  28
HETATM   28  C   UNL     1     -10.160   5.565  70.087  1.00  0.00    -0.239 A  
HETATM   29  N   UNL     1     -11.174   6.068  69.351  1.00  0.00    -0.388 NA 
HETATM   30  N   UNL     1     -10.681   5.899  68.117  1.00  0.00    -0.259 NA 
HETATM   31  H   UNL     1     -11.198   6.183  67.285  1.00  0.00     0.000 HD 
HETATM   32  N   UNL     1      -9.472   5.339  68.040  1.00  0.00    -0.117 NA 
HETATM   33  N   UNL     1      -9.141   5.086  69.298  1.00  0.00    -0.100 NA 
ENDBRANCH  27  28
ENDBRANCH  19  22
ENDBRANCH  15  16
ENDBRANCH  11  15
ENDBRANCH   4   5
ENDBRANCH   3   4
ENDBRANCH   2   3
TORSDOF 7
ENDMDL
MODEL       54
REMARK 921   NORMALIZED FREE ENERGY PREDICTED BY IDOCK:   -6.06 KCAL/MOL
REMARK 922        TOTAL FREE ENERGY PREDICTED BY IDOCK:  -10.49 KCAL/MOL
REMARK 923 INTER-LIGAND FREE ENERGY PREDICTED BY IDOCK:   -9.19 KCAL/MOL
REMARK 924 INTRA-LIGAND FREE ENERGY PREDICTED BY IDOCK:   -1.30 KCAL/MOL
REMARK 927      BINDING AFFINITY PREDICTED BY RF-SCORE:    0.00 PKD
ROOT
HETATM    1  C   UNL     1     -13.672  13.275  72.323  1.00  0.00    -0.686 C  
HETATM    2  C   UNL     1     -14.001  14.754  72.296  1.00  0.00    -0.598 C  
ENDROOT
BRANCH   2   3
HETATM    3  C   UNL     1     -13.165  15.489  71.252  1.00  0.00    -0.588 C  
BRANCH   3   4
HETATM    4  C   UNL     1     -12.536  14.527  70.249  1.00  0.00    -0.378 C  
BRANCH   4   5
HETATM    5  C   UNL     1     -11.573  15.260  69.358  1.00  0.00    -0.330 C  
HETATM    6  N   UNL     1     -10.954  16.307  69.816  1.00  0.00    -0.343 NA 
HETATM    7  C   UNL     1     -10.049  16.720  68.716  1.00  0.00    -0.286 C  
HETATM    8  C   UNL     1     -10.528  15.882  67.543  1.00  0.00    -0.298 C  
HETATM    9  C   UNL     1      -8.607  16.349  69.080  1.00  0.00    -0.230 C  
HETATM   10  O   UNL     1     -10.271  16.053  66.361  1.00  0.00    -0.279 OA 
HETATM   11  N   UNL     1     -11.303  14.892  68.091  1.00  0.00    -0.299 N  
HETATM   12  C   UNL     1      -7.784  17.452  68.433  1.00  0.00    -0.258 C  
HETATM   13  C   UNL     1      -8.620  18.694  68.689  1.00  0.00    -0.338 C  
HETATM   14  C   UNL     1     -10.068  18.234  68.508  1.00  0.00    -0.419 C  
BRANCH  11  15
HETATM   15  C   UNL     1     -11.810  13.778  67.294  1.00  0.00    -0.401 C  
BRANCH  15  16
HETATM   16  C   UNL     1     -11.148  12.461  67.657  1.00  0.00    -0.306 A  
HETATM   17  C   UNL     1     -11.564  11.727  68.767  1.00  0.00    -0.367 A  
HETATM   18  C   UNL     1     -10.794  10.661  69.253  1.00  0.00    -0.282 A  
HETATM   19  C   UNL     1      -9.613  10.237  68.612  1.00  0.00    -0.169 A  
HETATM   20  C   UNL     1      -9.339  10.844  67.378  1.00  0.00    -0.166 A  
HETATM   21  C   UNL     1     -10.054  11.971  66.934  1.00  0.00    -0.224 A  
BRANCH  19  22
HETATM   22  C   UNL     1      -8.698   9.243  69.272  1.00  0.00    -0.141 A  
HETATM   23  C   UNL     1      -7.680   9.729  70.133  1.00  0.00    -0.188 A  
HETATM   24  C   UNL     1      -6.704   8.901  70.702  1.00  0.00    -0.054 A  
HETATM   25  C   UNL     1      -6.733   7.540  70.468  1.00  0.00    -0.047 A  
HETATM   26  C   UNL     1      -7.737   7.012  69.664  1.00  0.00    -0.110 A  
HETATM   27  C   UNL     1      -8.713   7.837  69.045  1.00  0.00    -0.135 A  
BRANCH  27  28
HETATM   28  C   UNL     1      -9.649   7.138  68.167  1.00  0.00    -0.131 A  
HETATM   29  N   UNL     1     -10.940   6.906  68.488  1.00  0.00    -0.174 NA 
HETATM   30  N   UNL     1     -11.338   6.229  67.402  1.00  0.00    -0.653 NA 
HETATM   31  H   UNL     1     -12.293   5.888  67.299  1.00  0.00     0.000 HD 
HETATM   32  N   UNL     1     -10.411   6.028  66.463  1.00  0.00    -0.177 NA 
HETATM   33  N   UNL     1      -9.310   6.576  66.958  1.00  0.00    -0.135 NA 
ENDBRANCH  27  28
ENDBRANCH  19  22
ENDBRANCH  15  16
ENDBRANCH  11  15
ENDBRANCH   4   5
ENDBRANCH   3   4
ENDBRANCH   2   3
TORSDOF 7
ENDMDL
MODEL       55
REMARK 921   NORMALIZED FREE ENERGY PREDICTED BY IDOCK:   -6.06 KCAL/MOL
REMARK 922        TOTAL FREE ENERGY PREDICTED BY IDOCK:  -10.49 KCAL/MOL
REMARK 923 INTER-LIGAND FREE ENERGY PREDICTED BY IDOCK:   -8.56 KCAL/MOL
REMARK 924 INTRA-LIGAND FREE ENERGY PREDICTED BY IDOCK:   -1.93 KCAL/MOL
REMARK 927      BINDING AFFINITY PREDICTED BY RF-SCORE:    0.00 PKD
ROOT
HETATM    1  C   UNL     1     -10.905  11.489  63.411  1.00  0.00    -0.423 C  
HETATM    2  C   UNL     1     -12.347  11.938  63.535  1.00  0.00    -0.603 C  
ENDROOT
BRANCH   2   3
HETATM    3  C   UNL     1     -12.607  12.597  64.886  1.00  0.00    -0.525 C  
BRANCH   3   4
HETATM    4  C   UNL     1     -11.793  13.874  65.062  1.00  0.00    -0.383 C  
BRANCH   4   5
HETATM    5  C   UNL     1     -11.381  14.037  66.498  1.00  0.00    -0.336 C  
HETATM    6  N   UNL     1     -12.145  14.710  67.306  1.00  0.00    -0.289 NA 
HETATM    7  C   UNL     1     -11.481  14.604  68.628  1.00  0.00    -0.300 C  
HETATM    8  C   UNL     1     -10.124  14.013  68.284  1.00  0.00    -0.246 C  
HETATM    9  C   UNL     1     -12.272  13.636  69.516  1.00  0.00    -0.316 C  
HETATM   10  O   UNL     1      -9.131  13.984  68.996  1.00  0.00    -0.016 OA 
HETATM   11  N   UNL     1     -10.250  13.517  67.011  1.00  0.00    -0.247 N  
HETATM   12  C   UNL     1     -12.083  14.204  70.913  1.00  0.00    -0.416 C  
HETATM   13  C   UNL     1     -12.183  15.704  70.686  1.00  0.00    -0.446 C  
HETATM   14  C   UNL     1     -11.461  15.945  69.359  1.00  0.00    -0.351 C  
BRANCH  11  15
HETATM   15  C   UNL     1      -9.200  12.716  66.388  1.00  0.00    -0.160 C  
BRANCH  15  16
HETATM   16  C   UNL     1      -9.261  11.258  66.810  1.00  0.00    -0.186 A  
HETATM   17  C   UNL     1      -8.098  10.518  67.016  1.00  0.00    -0.118 A  
HETATM   18  C   UNL     1      -8.148   9.123  67.145  1.00  0.00    -0.109 A  
HETATM   19  C   UNL     1      -9.366   8.414  67.145  1.00  0.00    -0.192 A  
HETATM   20  C   UNL     1     -10.527   9.199  67.163  1.00  0.00    -0.325 A  
HETATM   21  C   UNL     1     -10.484  10.588  66.941  1.00  0.00    -0.303 A  
BRANCH  19  22
HETATM   22  C   UNL     1      -9.378   6.913  67.065  1.00  0.00    -0.170 A  
HETATM   23  C   UNL     1      -9.013   6.297  65.839  1.00  0.00    -0.122 A  
HETATM   24  C   UNL     1      -9.104   4.917  65.623  1.00  0.00    -0.151 A  
HETATM   25  C   UNL     1      -9.525   4.085  66.643  1.00  0.00    -0.214 A  
HETATM   26  C   UNL     1      -9.853   4.638  67.876  1.00  0.00    -0.177 A  
HETATM   27  C   UNL     1      -9.806   6.039  68.105  1.00  0.00    -0.148 A  
BRANCH  27  28
HETATM   28  C   UNL     1     -10.260   6.466  69.428  1.00  0.00    -0.192 A  
HETATM   29  N   UNL     1      -9.424   6.871  70.407  1.00  0.00    -0.169 NA 
HETATM   30  N   UNL     1     -10.304   7.111  71.389  1.00  0.00    -0.197 NA 
HETATM   31  H   UNL     1     -10.012   7.447  72.306  1.00  0.00     0.000 HD 
HETATM   32  N   UNL     1     -11.587   6.884  71.095  1.00  0.00    -0.300 NA 
HETATM   33  N   UNL     1     -11.569   6.435  69.848  1.00  0.00    -0.424 NA 
ENDBRANCH  27  28
ENDBRANCH  19  22
ENDBRANCH  15  16
ENDBRANCH  11  15
ENDBRANCH   4   5
ENDBRANCH   3   4
ENDBRANCH   2   3
TORSDOF 7
ENDMDL
MODEL       56
REMARK 921   NORMALIZED FREE ENERGY PREDICTED BY IDOCK:   -6.04 KCAL/MOL
REMARK 922        TOTAL FREE ENERGY PREDICTED BY IDOCK:  -10.46 KCAL/MOL
REMARK 923 INTER-LIGAND FREE ENERGY PREDICTED BY IDOCK:   -9.35 KCAL/MOL
REMARK 924 INTRA-LIGAND FREE ENERGY PREDICTED BY IDOCK:   -1.11 KCAL/MOL
REMARK 927      BINDING AFFINITY PREDICTED BY RF-SCORE:    0.00 PKD
ROOT
HETATM    1  C   UNL     1     -13.129  14.841  72.916  1.00  0.00    -0.596 C  
HETATM    2  C   UNL     1     -13.590  13.533  72.306  1.00  0.00    -0.690 C  
ENDROOT
BRANCH   2   3
HETATM    3  C   UNL     1     -12.548  12.972  71.344  1.00  0.00    -0.329 C  
BRANCH   3   4
HETATM    4  C   UNL     1     -12.903  11.563  70.880  1.00  0.00    -0.293 C  
BRANCH   4   5
HETATM    5  C   UNL     1     -11.717  10.917  70.220  1.00  0.00    -0.347 C  
HETATM    6  N   UNL     1     -11.047  10.010  70.865  1.00  0.00    -0.339 NA 
HETATM    7  C   UNL     1     -10.015   9.549  69.904  1.00  0.00    -0.230 C  
HETATM    8  C   UNL     1     -10.105  10.574  68.786  1.00  0.00    -0.191 C  
HETATM    9  C   UNL     1     -10.394   8.159  69.382  1.00  0.00    -0.219 C  
HETATM   10  O   UNL     1      -9.286  10.772  67.901  1.00  0.00    -0.146 OA 
HETATM   11  N   UNL     1     -11.298  11.224  68.978  1.00  0.00    -0.250 N  
HETATM   12  C   UNL     1      -9.050   7.486  69.158  1.00  0.00    -0.138 C  
HETATM   13  C   UNL     1      -8.236   7.946  70.357  1.00  0.00    -0.119 C  
HETATM   14  C   UNL     1      -8.648   9.404  70.570  1.00  0.00    -0.265 C  
BRANCH  11  15
HETATM   15  C   UNL     1     -11.825  12.172  68.000  1.00  0.00    -0.285 C  
BRANCH  15  16
HETATM   16  C   UNL     1     -11.015  13.455  67.946  1.00  0.00    -0.276 A  
HETATM   17  C   UNL     1     -10.828  14.237  69.084  1.00  0.00    -0.264 A  
HETATM   18  C   UNL     1     -10.313  15.538  68.985  1.00  0.00    -0.235 A  
HETATM   19  C   UNL     1      -9.897  16.087  67.756  1.00  0.00    -0.231 A  
HETATM   20  C   UNL     1      -9.886  15.203  66.668  1.00  0.00    -0.265 A  
HETATM   21  C   UNL     1     -10.485  13.932  66.741  1.00  0.00    -0.270 A  
BRANCH  19  22
HETATM   22  C   UNL     1      -9.558  17.547  67.646  1.00  0.00    -0.266 A  
HETATM   23  C   UNL     1     -10.619  18.481  67.520  1.00  0.00    -0.461 A  
HETATM   24  C   UNL     1     -10.409  19.847  67.293  1.00  0.00    -0.574 A  
HETATM   25  C   UNL     1      -9.121  20.345  67.225  1.00  0.00    -0.500 A  
HETATM   26  C   UNL     1      -8.049  19.474  67.384  1.00  0.00    -0.315 A  
HETATM   27  C   UNL     1      -8.238  18.080  67.576  1.00  0.00    -0.235 A  
BRANCH  27  28
HETATM   28  C   UNL     1      -7.009  17.291  67.644  1.00  0.00    -0.154 A  
HETATM   29  N   UNL     1      -6.509  16.600  66.598  1.00  0.00    -0.270 NA 
HETATM   30  N   UNL     1      -5.432  16.044  67.172  1.00  0.00    -0.340 NA 
HETATM   31  H   UNL     1      -4.797  15.439  66.653  1.00  0.00     0.000 HD 
HETATM   32  N   UNL     1      -5.241  16.331  68.461  1.00  0.00    -0.100 NA 
HETATM   33  N   UNL     1      -6.268  17.103  68.787  1.00  0.00    -0.159 NA 
ENDBRANCH  27  28
ENDBRANCH  19  22
ENDBRANCH  15  16
ENDBRANCH  11  15
ENDBRANCH   4   5
ENDBRANCH   3   4
ENDBRANCH   2   3
TORSDOF 7
ENDMDL
MODEL       57
REMARK 921   NORMALIZED FREE ENERGY PREDICTED BY IDOCK:   -6.02 KCAL/MOL
REMARK 922        TOTAL FREE ENERGY PREDICTED BY IDOCK:  -10.43 KCAL/MOL
REMARK 923 INTER-LIGAND FREE ENERGY PREDICTED BY IDOCK:   -8.84 KCAL/MOL
REMARK 924 INTRA-LIGAND FREE ENERGY PREDICTED BY IDOCK:   -1.60 KCAL/MOL
REMARK 927      BINDING AFFINITY PREDICTED BY RF-SCORE:    0.00 PKD
ROOT
HETATM    1  C   UNL     1      -9.769   6.698  66.717  1.00  0.00    -0.217 C  
HETATM    2  C   UNL     1     -10.325   5.840  67.836  1.00  0.00    -0.266 C  
ENDROOT
BRANCH   2   3
HETATM    3  C   UNL     1     -10.998   6.693  68.907  1.00  0.00    -0.325 C  
BRANCH   3   4
HETATM    4  C   UNL     1     -11.160   5.933  70.219  1.00  0.00    -0.368 C  
BRANCH   4   5
HETATM    5  C   UNL     1     -10.075   6.322  71.183  1.00  0.00    -0.183 C  
HETATM    6  N   UNL     1      -8.941   5.689  71.153  1.00  0.00    -0.138 NA 
HETATM    7  C   UNL     1      -8.102   6.372  72.168  1.00  0.00    -0.108 C  
HETATM    8  C   UNL     1      -9.098   7.254  72.901  1.00  0.00    -0.140 C  
HETATM    9  C   UNL     1      -7.050   7.233  71.460  1.00  0.00    -0.067 C  
HETATM   10  O   UNL     1      -8.940   7.806  73.980  1.00  0.00    -0.258 OA 
HETATM   11  N   UNL     1     -10.207   7.306  72.094  1.00  0.00    -0.188 N  
HETATM   12  C   UNL     1      -5.854   7.171  72.396  1.00  0.00    -0.037 C  
HETATM   13  C   UNL     1      -5.855   5.722  72.854  1.00  0.00    -0.036 C  
HETATM   14  C   UNL     1      -7.334   5.372  73.031  1.00  0.00    -0.092 C  
BRANCH  11  15
HETATM   15  C   UNL     1     -11.326   8.200  72.377  1.00  0.00    -0.391 C  
BRANCH  15  16
HETATM   16  C   UNL     1     -11.339   9.413  71.463  1.00  0.00    -0.464 A  
HETATM   17  C   UNL     1     -12.464  10.231  71.367  1.00  0.00    -0.528 A  
HETATM   18  C   UNL     1     -12.575  11.183  70.344  1.00  0.00    -0.328 A  
HETATM   19  C   UNL     1     -11.539  11.408  69.415  1.00  0.00    -0.391 A  
HETATM   20  C   UNL     1     -10.337  10.733  69.669  1.00  0.00    -0.142 A  
HETATM   21  C   UNL     1     -10.251   9.713  70.635  1.00  0.00    -0.346 A  
BRANCH  19  22
HETATM   22  C   UNL     1     -11.770  12.271  68.206  1.00  0.00    -0.392 A  
HETATM   23  C   UNL     1     -11.785  11.655  66.927  1.00  0.00    -0.133 A  
HETATM   24  C   UNL     1     -11.873  12.380  65.733  1.00  0.00    -0.467 A  
HETATM   25  C   UNL     1     -11.994  13.757  65.769  1.00  0.00    -0.423 A  
HETATM   26  C   UNL     1     -12.026  14.401  67.001  1.00  0.00    -0.424 A  
HETATM   27  C   UNL     1     -11.898  13.689  68.223  1.00  0.00    -0.404 A  
BRANCH  27  28
HETATM   28  C   UNL     1     -11.869  14.521  69.425  1.00  0.00    -0.325 A  
HETATM   29  N   UNL     1     -10.747  15.101  69.902  1.00  0.00    -0.265 NA 
HETATM   30  N   UNL     1     -11.235  15.701  70.996  1.00  0.00    -0.356 NA 
HETATM   31  H   UNL     1     -10.645  16.253  71.617  1.00  0.00     0.000 HD 
HETATM   32  N   UNL     1     -12.539  15.533  71.225  1.00  0.00    -0.414 NA 
HETATM   33  N   UNL     1     -12.952  14.747  70.241  1.00  0.00    -0.218 NA 
ENDBRANCH  27  28
ENDBRANCH  19  22
ENDBRANCH  15  16
ENDBRANCH  11  15
ENDBRANCH   4   5
ENDBRANCH   3   4
ENDBRANCH   2   3
TORSDOF 7
ENDMDL
MODEL       58
REMARK 921   NORMALIZED FREE ENERGY PREDICTED BY IDOCK:   -6.02 KCAL/MOL
REMARK 922        TOTAL FREE ENERGY PREDICTED BY IDOCK:  -10.43 KCAL/MOL
REMARK 923 INTER-LIGAND FREE ENERGY PREDICTED BY IDOCK:   -8.39 KCAL/MOL
REMARK 924 INTRA-LIGAND FREE ENERGY PREDICTED BY IDOCK:   -2.04 KCAL/MOL
REMARK 927      BINDING AFFINITY PREDICTED BY RF-SCORE:    0.00 PKD
ROOT
HETATM    1  C   UNL     1      -8.881   7.714  66.037  1.00  0.00    -0.186 C  
HETATM    2  C   UNL     1      -9.515   6.867  67.122  1.00  0.00    -0.168 C  
ENDROOT
BRANCH   2   3
HETATM    3  C   UNL     1      -8.463   6.073  67.891  1.00  0.00    -0.115 C  
BRANCH   3   4
HETATM    4  C   UNL     1      -7.778   6.921  68.957  1.00  0.00    -0.110 C  
BRANCH   4   5
HETATM    5  C   UNL     1      -8.655   7.042  70.171  1.00  0.00    -0.140 C  
HETATM    6  N   UNL     1      -9.137   5.965  70.716  1.00  0.00    -0.151 NA 
HETATM    7  C   UNL     1      -9.878   6.447  71.908  1.00  0.00    -0.157 C  
HETATM    8  C   UNL     1      -9.922   7.951  71.701  1.00  0.00    -0.181 C  
HETATM    9  C   UNL     1      -9.080   6.108  73.172  1.00  0.00    -0.129 C  
HETATM   10  O   UNL     1     -10.644   8.753  72.274  1.00  0.00    -0.337 OA 
HETATM   11  N   UNL     1      -8.979   8.218  70.741  1.00  0.00    -0.143 N  
HETATM   12  C   UNL     1     -10.158   5.847  74.212  1.00  0.00    -0.292 C  
HETATM   13  C   UNL     1     -11.210   5.082  73.425  1.00  0.00    -0.391 C  
HETATM   14  C   UNL     1     -11.231   5.752  72.050  1.00  0.00    -0.307 C  
BRANCH  11  15
HETATM   15  C   UNL     1      -8.602   9.584  70.389  1.00  0.00    -0.206 C  
BRANCH  15  16
HETATM   16  C   UNL     1      -9.231  10.037  69.083  1.00  0.00    -0.196 A  
HETATM   17  C   UNL     1      -8.495  10.749  68.137  1.00  0.00    -0.125 A  
HETATM   18  C   UNL     1      -9.132  11.389  67.064  1.00  0.00    -0.169 A  
HETATM   19  C   UNL     1     -10.522  11.288  66.851  1.00  0.00    -0.286 A  
HETATM   20  C   UNL     1     -11.201  10.387  67.683  1.00  0.00    -0.287 A  
HETATM   21  C   UNL     1     -10.587   9.816  68.812  1.00  0.00    -0.244 A  
BRANCH  19  22
HETATM   22  C   UNL     1     -11.204  12.156  65.830  1.00  0.00    -0.384 A  
HETATM   23  C   UNL     1     -11.290  11.688  64.493  1.00  0.00    -0.310 A  
HETATM   24  C   UNL     1     -11.798  12.466  63.445  1.00  0.00    -0.571 A  
HETATM   25  C   UNL     1     -12.283  13.735  63.700  1.00  0.00    -0.311 A  
HETATM   26  C   UNL     1     -12.257  14.220  65.003  1.00  0.00    -0.438 A  
HETATM   27  C   UNL     1     -11.711  13.465  66.074  1.00  0.00    -0.398 A  
BRANCH  27  28
HETATM   28  C   UNL     1     -11.685  14.149  67.365  1.00  0.00    -0.391 A  
HETATM   29  N   UNL     1     -12.227  13.637  68.491  1.00  0.00    -0.270 NA 
HETATM   30  N   UNL     1     -11.974  14.632  69.352  1.00  0.00    -0.361 NA 
HETATM   31  H   UNL     1     -12.252  14.581  70.332  1.00  0.00     0.000 HD 
HETATM   32  N   UNL     1     -11.338  15.694  68.852  1.00  0.00    -0.316 NA 
HETATM   33  N   UNL     1     -11.178  15.411  67.567  1.00  0.00    -0.324 NA 
ENDBRANCH  27  28
ENDBRANCH  19  22
ENDBRANCH  15  16
ENDBRANCH  11  15
ENDBRANCH   4   5
ENDBRANCH   3   4
ENDBRANCH   2   3
TORSDOF 7
ENDMDL
MODEL       59
REMARK 921   NORMALIZED FREE ENERGY PREDICTED BY IDOCK:   -6.01 KCAL/MOL
REMARK 922        TOTAL FREE ENERGY PREDICTED BY IDOCK:  -10.42 KCAL/MOL
REMARK 923 INTER-LIGAND FREE ENERGY PREDICTED BY IDOCK:   -9.38 KCAL/MOL
REMARK 924 INTRA-LIGAND FREE ENERGY PREDICTED BY IDOCK:   -1.04 KCAL/MOL
REMARK 927      BINDING AFFINITY PREDICTED BY RF-SCORE:    0.00 PKD
ROOT
HETATM    1  C   UNL     1     -13.479   9.363  72.037  1.00  0.00    -0.522 C  
HETATM    2  C   UNL     1     -12.343  10.253  71.575  1.00  0.00    -0.488 C  
ENDROOT
BRANCH   2   3
HETATM    3  C   UNL     1     -11.077   9.444  71.311  1.00  0.00    -0.446 C  
BRANCH   3   4
HETATM    4  C   UNL     1     -11.193   8.606  70.042  1.00  0.00    -0.098 C  
BRANCH   4   5
HETATM    5  C   UNL     1      -9.828   8.210  69.552  1.00  0.00    -0.181 C  
HETATM    6  N   UNL     1      -8.953   7.762  70.401  1.00  0.00    -0.146 NA 
HETATM    7  C   UNL     1      -7.774   7.407  69.575  1.00  0.00    -0.108 C  
HETATM    8  C   UNL     1      -8.105   8.019  68.224  1.00  0.00    -0.126 C  
HETATM    9  C   UNL     1      -7.677   5.882  69.458  1.00  0.00    -0.097 C  
HETATM   10  O   UNL     1      -7.334   8.219  67.297  1.00  0.00    -0.086 OA 
HETATM   11  N   UNL     1      -9.449   8.291  68.263  1.00  0.00    -0.138 N  
HETATM   12  C   UNL     1      -6.180   5.627  69.390  1.00  0.00    -0.032 C  
HETATM   13  C   UNL     1      -5.621   6.617  70.399  1.00  0.00    -0.023 C  
HETATM   14  C   UNL     1      -6.471   7.876  70.219  1.00  0.00    -0.037 C  
BRANCH  11  15
HETATM   15  C   UNL     1     -10.181   8.733  67.079  1.00  0.00    -0.281 C  
BRANCH  15  16
HETATM   16  C   UNL     1     -10.305  10.245  67.010  1.00  0.00    -0.299 A  
HETATM   17  C   UNL     1      -9.338  11.019  66.370  1.00  0.00    -0.204 A  
HETATM   18  C   UNL     1      -9.311  12.412  66.530  1.00  0.00    -0.233 A  
HETATM   19  C   UNL     1     -10.288  13.099  67.278  1.00  0.00    -0.243 A  
HETATM   20  C   UNL     1     -11.370  12.325  67.722  1.00  0.00    -0.362 A  
HETATM   21  C   UNL     1     -11.355  10.920  67.643  1.00  0.00    -0.345 A  
BRANCH  19  22
HETATM   22  C   UNL     1     -10.112  14.553  67.614  1.00  0.00    -0.228 A  
HETATM   23  C   UNL     1      -9.525  14.895  68.860  1.00  0.00    -0.209 A  
HETATM   24  C   UNL     1      -9.425  16.213  69.320  1.00  0.00    -0.224 A  
HETATM   25  C   UNL     1      -9.870  17.255  68.528  1.00  0.00    -0.307 A  
HETATM   26  C   UNL     1     -10.415  16.973  67.280  1.00  0.00    -0.301 A  
HETATM   27  C   UNL     1     -10.563  15.641  66.811  1.00  0.00    -0.307 A  
BRANCH  27  28
HETATM   28  C   UNL     1     -11.227  15.510  65.516  1.00  0.00    -0.188 A  
HETATM   29  N   UNL     1     -11.228  16.481  64.578  1.00  0.00    -0.881 NA 
HETATM   30  N   UNL     1     -11.975  15.897  63.630  1.00  0.00    -1.071 NA 
HETATM   31  H   UNL     1     -12.185  16.361  62.747  1.00  0.00     0.000 HD 
HETATM   32  N   UNL     1     -12.426  14.673  63.910  1.00  0.00    -0.792 NA 
HETATM   33  N   UNL     1     -11.982  14.426  65.135  1.00  0.00    -0.381 NA 
ENDBRANCH  27  28
ENDBRANCH  19  22
ENDBRANCH  15  16
ENDBRANCH  11  15
ENDBRANCH   4   5
ENDBRANCH   3   4
ENDBRANCH   2   3
TORSDOF 7
ENDMDL
MODEL       60
REMARK 921   NORMALIZED FREE ENERGY PREDICTED BY IDOCK:   -6.00 KCAL/MOL
REMARK 922        TOTAL FREE ENERGY PREDICTED BY IDOCK:  -10.40 KCAL/MOL
REMARK 923 INTER-LIGAND FREE ENERGY PREDICTED BY IDOCK:   -8.89 KCAL/MOL
REMARK 924 INTRA-LIGAND FREE ENERGY PREDICTED BY IDOCK:   -1.52 KCAL/MOL
REMARK 927      BINDING AFFINITY PREDICTED BY RF-SCORE:    0.00 PKD
ROOT
HETATM    1  C   UNL     1     -13.130  10.825  71.618  1.00  0.00    -0.551 C  
HETATM    2  C   UNL     1     -13.566   9.375  71.692  1.00  0.00    -0.437 C  
ENDROOT
BRANCH   2   3
HETATM    3  C   UNL     1     -12.468   8.495  72.281  1.00  0.00    -0.448 C  
BRANCH   3   4
HETATM    4  C   UNL     1     -12.011   7.423  71.298  1.00  0.00    -0.343 C  
BRANCH   4   5
HETATM    5  C   UNL     1     -10.510   7.405  71.206  1.00  0.00    -0.208 C  
HETATM    6  N   UNL     1      -9.807   7.428  72.298  1.00  0.00    -0.163 NA 
HETATM    7  C   UNL     1      -8.399   7.326  71.841  1.00  0.00    -0.107 C  
HETATM    8  C   UNL     1      -8.509   7.538  70.340  1.00  0.00    -0.141 C  
HETATM    9  C   UNL     1      -7.869   5.920  72.142  1.00  0.00    -0.103 C  
HETATM   10  O   UNL     1      -7.602   7.801  69.565  1.00  0.00    -0.095 OA 
HETATM   11  N   UNL     1      -9.837   7.364  70.041  1.00  0.00    -0.179 N  
HETATM   12  C   UNL     1      -6.397   6.153  72.440  1.00  0.00    -0.054 C  
HETATM   13  C   UNL     1      -6.414   7.439  73.250  1.00  0.00    -0.064 C  
HETATM   14  C   UNL     1      -7.491   8.301  72.588  1.00  0.00    -0.153 C  
BRANCH  11  15
HETATM   15  C   UNL     1     -10.317   7.320  68.662  1.00  0.00    -0.193 C  
BRANCH  15  16
HETATM   16  C   UNL     1     -10.390   8.700  68.033  1.00  0.00    -0.277 A  
HETATM   17  C   UNL     1     -11.092   9.736  68.646  1.00  0.00    -0.140 A  
HETATM   18  C   UNL     1     -11.380  10.919  67.951  1.00  0.00    -0.380 A  
HETATM   19  C   UNL     1     -10.919  11.148  66.639  1.00  0.00    -0.289 A  
HETATM   20  C   UNL     1     -10.030  10.190  66.131  1.00  0.00    -0.310 A  
HETATM   21  C   UNL     1      -9.813   8.963  66.785  1.00  0.00    -0.308 A  
BRANCH  19  22
HETATM   22  C   UNL     1     -11.423  12.320  65.844  1.00  0.00    -0.428 A  
HETATM   23  C   UNL     1     -11.829  12.103  64.502  1.00  0.00    -0.418 A  
HETATM   24  C   UNL     1     -12.200  13.143  63.640  1.00  0.00    -0.553 A  
HETATM   25  C   UNL     1     -12.222  14.446  64.101  1.00  0.00    -0.393 A  
HETATM   26  C   UNL     1     -11.872  14.703  65.423  1.00  0.00    -0.304 A  
HETATM   27  C   UNL     1     -11.455  13.669  66.302  1.00  0.00    -0.352 A  
BRANCH  27  28
HETATM   28  C   UNL     1     -11.043  14.115  67.632  1.00  0.00    -0.282 A  
HETATM   29  N   UNL     1      -9.754  14.289  67.993  1.00  0.00    -0.217 NA 
HETATM   30  N   UNL     1      -9.911  14.657  69.271  1.00  0.00    -0.391 NA 
HETATM   31  H   UNL     1      -9.117  14.879  69.871  1.00  0.00     0.000 HD 
HETATM   32  N   UNL     1     -11.169  14.716  69.714  1.00  0.00    -0.265 NA 
HETATM   33  N   UNL     1     -11.905  14.335  68.680  1.00  0.00    -0.340 NA 
ENDBRANCH  27  28
ENDBRANCH  19  22
ENDBRANCH  15  16
ENDBRANCH  11  15
ENDBRANCH   4   5
ENDBRANCH   3   4
ENDBRANCH   2   3
TORSDOF 7
ENDMDL
MODEL       61
REMARK 921   NORMALIZED FREE ENERGY PREDICTED BY IDOCK:   -5.98 KCAL/MOL
REMARK 922        TOTAL FREE ENERGY PREDICTED BY IDOCK:  -10.37 KCAL/MOL
REMARK 923 INTER-LIGAND FREE ENERGY PREDICTED BY IDOCK:   -9.55 KCAL/MOL
REMARK 924 INTRA-LIGAND FREE ENERGY PREDICTED BY IDOCK:   -0.82 KCAL/MOL
REMARK 927      BINDING AFFINITY PREDICTED BY RF-SCORE:    0.00 PKD
ROOT
HETATM    1  C   UNL     1     -10.618  19.240  66.869  1.00  0.00    -0.557 C  
HETATM    2  C   UNL     1      -9.678  18.057  66.994  1.00  0.00    -0.303 C  
ENDROOT
BRANCH   2   3
HETATM    3  C   UNL     1     -10.434  16.786  67.370  1.00  0.00    -0.310 C  
BRANCH   3   4
HETATM    4  C   UNL     1      -9.501  15.587  67.494  1.00  0.00    -0.208 C  
BRANCH   4   5
HETATM    5  C   UNL     1     -10.097  14.390  66.806  1.00  0.00    -0.266 C  
HETATM    6  N   UNL     1      -9.747  14.118  65.585  1.00  0.00    -0.233 NA 
HETATM    7  C   UNL     1     -10.458  12.857  65.261  1.00  0.00    -0.296 C  
HETATM    8  C   UNL     1     -11.434  12.707  66.416  1.00  0.00    -0.356 C  
HETATM    9  C   UNL     1      -9.456  11.697  65.258  1.00  0.00    -0.170 C  
HETATM   10  O   UNL     1     -12.408  11.971  66.466  1.00  0.00    -0.377 OA 
HETATM   11  N   UNL     1     -10.987  13.565  67.389  1.00  0.00    -0.268 N  
HETATM   12  C   UNL     1     -10.001  10.762  64.190  1.00  0.00    -0.405 C  
HETATM   13  C   UNL     1     -10.466  11.720  63.106  1.00  0.00    -0.359 C  
HETATM   14  C   UNL     1     -11.076  12.900  63.865  1.00  0.00    -0.454 C  
BRANCH  11  15
HETATM   15  C   UNL     1     -11.569  13.582  68.729  1.00  0.00    -0.325 C  
BRANCH  15  16
HETATM   16  C   UNL     1     -11.316  12.289  69.483  1.00  0.00    -0.258 A  
HETATM   17  C   UNL     1     -10.191  11.510  69.221  1.00  0.00     0.049 A  
HETATM   18  C   UNL     1     -10.090  10.202  69.719  1.00  0.00    -0.269 A  
HETATM   19  C   UNL     1     -11.075   9.642  70.556  1.00  0.00    -0.369 A  
HETATM   20  C   UNL     1     -12.080  10.520  70.984  1.00  0.00    -0.492 A  
HETATM   21  C   UNL     1     -12.236  11.798  70.418  1.00  0.00    -0.416 A  
BRANCH  19  22
HETATM   22  C   UNL     1     -11.050   8.177  70.892  1.00  0.00    -0.280 A  
HETATM   23  C   UNL     1     -11.358   7.782  72.220  1.00  0.00    -0.374 A  
HETATM   24  C   UNL     1     -11.248   6.460  72.667  1.00  0.00    -0.290 A  
HETATM   25  C   UNL     1     -10.867   5.464  71.788  1.00  0.00    -0.242 A  
HETATM   26  C   UNL     1     -10.595   5.796  70.465  1.00  0.00    -0.359 A  
HETATM   27  C   UNL     1     -10.661   7.136  70.000  1.00  0.00    -0.248 A  
BRANCH  27  28
HETATM   28  C   UNL     1     -10.267   7.329  68.606  1.00  0.00    -0.182 A  
HETATM   29  N   UNL     1     -11.119   7.199  67.566  1.00  0.00    -0.169 NA 
HETATM   30  N   UNL     1     -10.287   7.435  66.543  1.00  0.00    -0.499 NA 
HETATM   31  H   UNL     1     -10.605   7.422  65.575  1.00  0.00     0.000 HD 
HETATM   32  N   UNL     1      -9.017   7.689  66.867  1.00  0.00    -0.132 NA 
HETATM   33  N   UNL     1      -8.983   7.589  68.188  1.00  0.00    -0.130 NA 
ENDBRANCH  27  28
ENDBRANCH  19  22
ENDBRANCH  15  16
ENDBRANCH  11  15
ENDBRANCH   4   5
ENDBRANCH   3   4
ENDBRANCH   2   3
TORSDOF 7
ENDMDL
MODEL       62
REMARK 921   NORMALIZED FREE ENERGY PREDICTED BY IDOCK:   -5.97 KCAL/MOL
REMARK 922        TOTAL FREE ENERGY PREDICTED BY IDOCK:  -10.37 KCAL/MOL
REMARK 923 INTER-LIGAND FREE ENERGY PREDICTED BY IDOCK:   -9.17 KCAL/MOL
REMARK 924 INTRA-LIGAND FREE ENERGY PREDICTED BY IDOCK:   -1.20 KCAL/MOL
REMARK 927      BINDING AFFINITY PREDICTED BY RF-SCORE:    0.00 PKD
ROOT
HETATM    1  C   UNL     1     -12.078  12.409  63.440  1.00  0.00    -0.620 C  
HETATM    2  C   UNL     1     -12.751  12.629  64.780  1.00  0.00    -0.460 C  
ENDROOT
BRANCH   2   3
HETATM    3  C   UNL     1     -12.494  14.038  65.305  1.00  0.00    -0.495 C  
BRANCH   3   4
HETATM    4  C   UNL     1     -12.450  14.077  66.829  1.00  0.00    -0.238 C  
BRANCH   4   5
HETATM    5  C   UNL     1     -11.504  13.032  67.350  1.00  0.00    -0.332 C  
HETATM    6  N   UNL     1     -11.973  12.043  68.051  1.00  0.00    -0.521 NA 
HETATM    7  C   UNL     1     -10.795  11.186  68.328  1.00  0.00    -0.212 C  
HETATM    8  C   UNL     1      -9.627  12.056  67.895  1.00  0.00    -0.196 C  
HETATM    9  C   UNL     1     -10.870   9.926  67.458  1.00  0.00    -0.307 C  
HETATM   10  O   UNL     1      -8.447  11.895  68.169  1.00  0.00    -0.149 OA 
HETATM   11  N   UNL     1     -10.176  13.054  67.130  1.00  0.00    -0.241 N  
HETATM   12  C   UNL     1     -10.230   8.856  68.328  1.00  0.00    -0.239 C  
HETATM   13  C   UNL     1     -10.765   9.181  69.713  1.00  0.00    -0.239 C  
HETATM   14  C   UNL     1     -10.772  10.709  69.779  1.00  0.00    -0.283 C  
BRANCH  11  15
HETATM   15  C   UNL     1      -9.348  14.000  66.387  1.00  0.00    -0.221 C  
BRANCH  15  16
HETATM   16  C   UNL     1      -8.554  14.914  67.304  1.00  0.00    -0.232 A  
HETATM   17  C   UNL     1      -9.193  15.749  68.219  1.00  0.00    -0.188 A  
HETATM   18  C   UNL     1      -8.489  16.771  68.872  1.00  0.00    -0.217 A  
HETATM   19  C   UNL     1      -7.104  16.960  68.693  1.00  0.00    -0.203 A  
HETATM   20  C   UNL     1      -6.448  15.972  67.945  1.00  0.00    -0.160 A  
HETATM   21  C   UNL     1      -7.159  15.001  67.216  1.00  0.00    -0.134 A  
BRANCH  19  22
HETATM   22  C   UNL     1      -6.423  18.188  69.229  1.00  0.00    -0.258 A  
HETATM   23  C   UNL     1      -5.780  18.109  70.491  1.00  0.00    -0.111 A  
HETATM   24  C   UNL     1      -5.221  19.220  71.133  1.00  0.00    -0.291 A  
HETATM   25  C   UNL     1      -5.243  20.457  70.515  1.00  0.00    -0.313 A  
HETATM   26  C   UNL     1      -5.826  20.575  69.258  1.00  0.00    -0.398 A  
HETATM   27  C   UNL     1      -6.433  19.469  68.607  1.00  0.00    -0.303 A  
BRANCH  27  28
HETATM   28  C   UNL     1      -7.072  19.778  67.328  1.00  0.00    -0.219 A  
HETATM   29  N   UNL     1      -8.328  20.261  67.221  1.00  0.00    -0.340 NA 
HETATM   30  N   UNL     1      -8.442  20.336  65.887  1.00  0.00    -0.544 NA 
HETATM   31  H   UNL     1      -9.291  20.676  65.437  1.00  0.00     0.000 HD 
HETATM   32  N   UNL     1      -7.378  19.940  65.185  1.00  0.00    -0.316 NA 
HETATM   33  N   UNL     1      -6.503  19.545  66.098  1.00  0.00    -0.191 NA 
ENDBRANCH  27  28
ENDBRANCH  19  22
ENDBRANCH  15  16
ENDBRANCH  11  15
ENDBRANCH   4   5
ENDBRANCH   3   4
ENDBRANCH   2   3
TORSDOF 7
ENDMDL
MODEL       63
REMARK 921   NORMALIZED FREE ENERGY PREDICTED BY IDOCK:   -5.97 KCAL/MOL
REMARK 922        TOTAL FREE ENERGY PREDICTED BY IDOCK:  -10.36 KCAL/MOL
REMARK 923 INTER-LIGAND FREE ENERGY PREDICTED BY IDOCK:   -8.85 KCAL/MOL
REMARK 924 INTRA-LIGAND FREE ENERGY PREDICTED BY IDOCK:   -1.50 KCAL/MOL
REMARK 927      BINDING AFFINITY PREDICTED BY RF-SCORE:    0.00 PKD
ROOT
HETATM    1  C   UNL     1     -13.164  10.745  71.959  1.00  0.00    -0.466 C  
HETATM    2  C   UNL     1     -13.509   9.312  72.311  1.00  0.00    -0.548 C  
ENDROOT
BRANCH   2   3
HETATM    3  C   UNL     1     -13.058   8.349  71.217  1.00  0.00    -0.163 C  
BRANCH   3   4
HETATM    4  C   UNL     1     -11.921   7.449  71.686  1.00  0.00    -0.339 C  
BRANCH   4   5
HETATM    5  C   UNL     1     -11.036   7.081  70.528  1.00  0.00    -0.280 C  
HETATM    6  N   UNL     1     -11.257   5.973  69.886  1.00  0.00    -0.399 NA 
HETATM    7  C   UNL     1     -10.263   5.971  68.784  1.00  0.00    -0.188 C  
HETATM    8  C   UNL     1      -9.334   7.114  69.158  1.00  0.00    -0.141 C  
HETATM    9  C   UNL     1     -10.973   6.275  67.460  1.00  0.00    -0.444 C  
HETATM   10  O   UNL     1      -8.221   7.337  68.706  1.00  0.00    -0.126 OA 
HETATM   11  N   UNL     1     -10.010   7.843  70.104  1.00  0.00    -0.189 N  
HETATM   12  C   UNL     1     -10.180   5.474  66.441  1.00  0.00    -0.247 C  
HETATM   13  C   UNL     1      -9.894   4.176  67.179  1.00  0.00    -0.182 C  
HETATM   14  C   UNL     1      -9.606   4.602  68.619  1.00  0.00    -0.226 C  
BRANCH  11  15
HETATM   15  C   UNL     1      -9.511   9.127  70.590  1.00  0.00    -0.261 C  
BRANCH  15  16
HETATM   16  C   UNL     1      -9.790  10.259  69.618  1.00  0.00    -0.230 A  
HETATM   17  C   UNL     1      -8.760  10.861  68.897  1.00  0.00    -0.144 A  
HETATM   18  C   UNL     1      -8.973  12.063  68.208  1.00  0.00    -0.186 A  
HETATM   19  C   UNL     1     -10.239  12.680  68.151  1.00  0.00    -0.240 A  
HETATM   20  C   UNL     1     -11.300  11.941  68.693  1.00  0.00    -0.331 A  
HETATM   21  C   UNL     1     -11.079  10.784  69.462  1.00  0.00    -0.334 A  
BRANCH  19  22
HETATM   22  C   UNL     1     -10.389  14.069  67.596  1.00  0.00    -0.242 A  
HETATM   23  C   UNL     1      -9.920  14.327  66.281  1.00  0.00    -0.319 A  
HETATM   24  C   UNL     1      -9.904  15.608  65.715  1.00  0.00    -0.386 A  
HETATM   25  C   UNL     1     -10.400  16.683  66.429  1.00  0.00    -0.310 A  
HETATM   26  C   UNL     1     -10.909  16.472  67.706  1.00  0.00    -0.304 A  
HETATM   27  C   UNL     1     -10.898  15.189  68.314  1.00  0.00    -0.262 A  
BRANCH  27  28
HETATM   28  C   UNL     1     -11.394  15.151  69.689  1.00  0.00    -0.283 A  
HETATM   29  N   UNL     1     -10.595  14.982  70.764  1.00  0.00    -0.012 NA 
HETATM   30  N   UNL     1     -11.509  14.986  71.744  1.00  0.00    -0.513 NA 
HETATM   31  H   UNL     1     -11.249  14.882  72.724  1.00  0.00     0.000 HD 
HETATM   32  N   UNL     1     -12.779  15.135  71.361  1.00  0.00    -0.339 NA 
HETATM   33  N   UNL     1     -12.722  15.207  70.039  1.00  0.00    -0.221 NA 
ENDBRANCH  27  28
ENDBRANCH  19  22
ENDBRANCH  15  16
ENDBRANCH  11  15
ENDBRANCH   4   5
ENDBRANCH   3   4
ENDBRANCH   2   3
TORSDOF 7
ENDMDL
MODEL       64
REMARK 921   NORMALIZED FREE ENERGY PREDICTED BY IDOCK:   -5.97 KCAL/MOL
REMARK 922        TOTAL FREE ENERGY PREDICTED BY IDOCK:  -10.36 KCAL/MOL
REMARK 923 INTER-LIGAND FREE ENERGY PREDICTED BY IDOCK:   -8.16 KCAL/MOL
REMARK 924 INTRA-LIGAND FREE ENERGY PREDICTED BY IDOCK:   -2.20 KCAL/MOL
REMARK 927      BINDING AFFINITY PREDICTED BY RF-SCORE:    0.00 PKD
ROOT
HETATM    1  C   UNL     1     -11.836   9.774  70.948  1.00  0.00    -0.420 C  
HETATM    2  C   UNL     1     -11.381  10.226  69.576  1.00  0.00    -0.299 C  
ENDROOT
BRANCH   2   3
HETATM    3  C   UNL     1     -10.290   9.312  69.025  1.00  0.00    -0.228 C  
BRANCH   3   4
HETATM    4  C   UNL     1     -10.596   8.858  67.602  1.00  0.00    -0.292 C  
BRANCH   4   5
HETATM    5  C   UNL     1      -9.335   8.820  66.785  1.00  0.00    -0.179 C  
HETATM    6  N   UNL     1      -8.399   7.974  67.098  1.00  0.00    -0.119 NA 
HETATM    7  C   UNL     1      -7.359   8.160  66.057  1.00  0.00    -0.076 C  
HETATM    8  C   UNL     1      -7.805   9.429  65.349  1.00  0.00    -0.104 C  
HETATM    9  C   UNL     1      -7.393   6.972  65.089  1.00  0.00    -0.081 C  
HETATM   10  O   UNL     1      -7.139  10.126  64.598  1.00  0.00    -0.138 OA 
HETATM   11  N   UNL     1      -9.109   9.622  65.727  1.00  0.00    -0.171 N  
HETATM   12  C   UNL     1      -5.939   6.811  64.676  1.00  0.00    -0.035 C  
HETATM   13  C   UNL     1      -5.188   7.056  65.974  1.00  0.00    -0.023 C  
HETATM   14  C   UNL     1      -5.956   8.189  66.659  1.00  0.00    -0.045 C  
BRANCH  11  15
HETATM   15  C   UNL     1      -9.944  10.654  65.117  1.00  0.00    -0.303 C  
BRANCH  15  16
HETATM   16  C   UNL     1     -10.281  11.771  66.089  1.00  0.00    -0.255 A  
HETATM   17  C   UNL     1      -9.308  12.319  66.922  1.00  0.00    -0.210 A  
HETATM   18  C   UNL     1      -9.665  13.154  67.991  1.00  0.00    -0.224 A  
HETATM   19  C   UNL     1     -11.000  13.533  68.232  1.00  0.00    -0.280 A  
HETATM   20  C   UNL     1     -11.927  13.152  67.251  1.00  0.00    -0.389 A  
HETATM   21  C   UNL     1     -11.592  12.242  66.231  1.00  0.00    -0.446 A  
BRANCH  19  22
HETATM   22  C   UNL     1     -11.377  14.242  69.502  1.00  0.00    -0.315 A  
HETATM   23  C   UNL     1     -12.161  13.547  70.459  1.00  0.00    -0.433 A  
HETATM   24  C   UNL     1     -12.665  14.152  71.617  1.00  0.00    -0.430 A  
HETATM   25  C   UNL     1     -12.367  15.474  71.889  1.00  0.00    -0.472 A  
HETATM   26  C   UNL     1     -11.567  16.185  71.001  1.00  0.00    -0.434 A  
HETATM   27  C   UNL     1     -11.079  15.603  69.802  1.00  0.00    -0.315 A  
BRANCH  27  28
HETATM   28  C   UNL     1     -10.321  16.507  68.938  1.00  0.00    -0.292 A  
HETATM   29  N   UNL     1     -10.889  17.279  67.987  1.00  0.00    -0.357 NA 
HETATM   30  N   UNL     1      -9.800  17.869  67.476  1.00  0.00    -0.298 NA 
HETATM   31  H   UNL     1      -9.859  18.544  66.714  1.00  0.00     0.000 HD 
HETATM   32  N   UNL     1      -8.633  17.522  68.024  1.00  0.00    -0.243 NA 
HETATM   33  N   UNL     1      -8.951  16.620  68.942  1.00  0.00    -0.254 NA 
ENDBRANCH  27  28
ENDBRANCH  19  22
ENDBRANCH  15  16
ENDBRANCH  11  15
ENDBRANCH   4   5
ENDBRANCH   3   4
ENDBRANCH   2   3
TORSDOF 7
ENDMDL
MODEL       65
REMARK 921   NORMALIZED FREE ENERGY PREDICTED BY IDOCK:   -5.95 KCAL/MOL
REMARK 922        TOTAL FREE ENERGY PREDICTED BY IDOCK:  -10.33 KCAL/MOL
REMARK 923 INTER-LIGAND FREE ENERGY PREDICTED BY IDOCK:   -8.85 KCAL/MOL
REMARK 924 INTRA-LIGAND FREE ENERGY PREDICTED BY IDOCK:   -1.47 KCAL/MOL
REMARK 927      BINDING AFFINITY PREDICTED BY RF-SCORE:    0.00 PKD
ROOT
HETATM    1  C   UNL     1     -13.996   7.323  71.600  1.00  0.00    -0.488 C  
HETATM    2  C   UNL     1     -14.182   8.817  71.771  1.00  0.00    -0.443 C  
ENDROOT
BRANCH   2   3
HETATM    3  C   UNL     1     -12.839   9.534  71.878  1.00  0.00    -0.508 C  
BRANCH   3   4
HETATM    4  C   UNL     1     -12.642  10.540  70.749  1.00  0.00    -0.474 C  
BRANCH   4   5
HETATM    5  C   UNL     1     -11.354  10.264  70.025  1.00  0.00    -0.301 C  
HETATM    6  N   UNL     1     -10.446   9.533  70.598  1.00  0.00    -0.286 NA 
HETATM    7  C   UNL     1      -9.367   9.411  69.588  1.00  0.00    -0.189 C  
HETATM    8  C   UNL     1      -9.763  10.434  68.537  1.00  0.00    -0.168 C  
HETATM    9  C   UNL     1      -9.389   7.999  68.990  1.00  0.00    -0.147 C  
HETATM   10  O   UNL     1      -9.059  10.887  67.647  1.00  0.00    -0.146 OA 
HETATM   11  N   UNL     1     -11.077  10.735  68.794  1.00  0.00    -0.238 N  
HETATM   12  C   UNL     1      -7.925   7.717  68.696  1.00  0.00    -0.122 C  
HETATM   13  C   UNL     1      -7.215   8.310  69.902  1.00  0.00    -0.059 C  
HETATM   14  C   UNL     1      -7.985   9.596  70.212  1.00  0.00    -0.198 C  
BRANCH  11  15
HETATM   15  C   UNL     1     -11.870  11.562  67.888  1.00  0.00    -0.184 C  
BRANCH  15  16
HETATM   16  C   UNL     1     -11.567  13.042  68.044  1.00  0.00    -0.383 A  
HETATM   17  C   UNL     1     -11.234  13.829  66.942  1.00  0.00    -0.326 A  
HETATM   18  C   UNL     1     -10.703  15.115  67.113  1.00  0.00    -0.310 A  
HETATM   19  C   UNL     1     -10.546  15.698  68.387  1.00  0.00    -0.252 A  
HETATM   20  C   UNL     1     -11.094  14.977  69.457  1.00  0.00    -0.292 A  
HETATM   21  C   UNL     1     -11.543  13.652  69.304  1.00  0.00    -0.363 A  
BRANCH  19  22
HETATM   22  C   UNL     1      -9.776  16.978  68.553  1.00  0.00    -0.282 A  
HETATM   23  C   UNL     1     -10.502  18.191  68.685  1.00  0.00    -0.212 A  
HETATM   24  C   UNL     1      -9.885  19.448  68.725  1.00  0.00    -0.530 A  
HETATM   25  C   UNL     1      -8.506  19.541  68.680  1.00  0.00    -0.364 A  
HETATM   26  C   UNL     1      -7.751  18.376  68.593  1.00  0.00    -0.321 A  
HETATM   27  C   UNL     1      -8.357  17.095  68.511  1.00  0.00    -0.262 A  
BRANCH  27  28
HETATM   28  C   UNL     1      -7.428  15.979  68.342  1.00  0.00    -0.143 A  
HETATM   29  N   UNL     1      -6.768  15.727  67.191  1.00  0.00    -0.270 NA 
HETATM   30  N   UNL     1      -6.098  14.619  67.537  1.00  0.00    -0.345 NA 
HETATM   31  H   UNL     1      -5.474  14.141  66.888  1.00  0.00     0.000 HD 
HETATM   32  N   UNL     1      -6.295  14.180  68.782  1.00  0.00    -0.083 NA 
HETATM   33  N   UNL     1      -7.175  15.025  69.299  1.00  0.00    -0.164 NA 
ENDBRANCH  27  28
ENDBRANCH  19  22
ENDBRANCH  15  16
ENDBRANCH  11  15
ENDBRANCH   4   5
ENDBRANCH   3   4
ENDBRANCH   2   3
TORSDOF 7
ENDMDL
MODEL       66
REMARK 921   NORMALIZED FREE ENERGY PREDICTED BY IDOCK:   -5.94 KCAL/MOL
REMARK 922        TOTAL FREE ENERGY PREDICTED BY IDOCK:  -10.32 KCAL/MOL
REMARK 923 INTER-LIGAND FREE ENERGY PREDICTED BY IDOCK:   -8.95 KCAL/MOL
REMARK 924 INTRA-LIGAND FREE ENERGY PREDICTED BY IDOCK:   -1.37 KCAL/MOL
REMARK 927      BINDING AFFINITY PREDICTED BY RF-SCORE:    0.00 PKD
ROOT
HETATM    1  C   UNL     1     -12.439  14.383  70.226  1.00  0.00    -0.413 C  
HETATM    2  C   UNL     1     -12.336  12.892  69.976  1.00  0.00    -0.199 C  
ENDROOT
BRANCH   2   3
HETATM    3  C   UNL     1     -11.582  12.597  68.682  1.00  0.00    -0.356 C  
BRANCH   3   4
HETATM    4  C   UNL     1     -10.895  11.237  68.722  1.00  0.00    -0.252 C  
BRANCH   4   5
HETATM    5  C   UNL     1      -9.976  11.082  67.543  1.00  0.00    -0.174 C  
HETATM    6  N   UNL     1     -10.415  10.502  66.467  1.00  0.00    -0.234 NA 
HETATM    7  C   UNL     1      -9.289  10.590  65.505  1.00  0.00    -0.202 C  
HETATM    8  C   UNL     1      -8.131  11.051  66.374  1.00  0.00    -0.166 C  
HETATM    9  C   UNL     1      -9.610  11.648  64.444  1.00  0.00    -0.130 C  
HETATM   10  O   UNL     1      -6.941  11.016  66.096  1.00  0.00    -0.125 OA 
HETATM   11  N   UNL     1      -8.702  11.518  67.531  1.00  0.00    -0.142 N  
HETATM   12  C   UNL     1      -8.939  11.107  63.191  1.00  0.00    -0.186 C  
HETATM   13  C   UNL     1      -9.220   9.616  63.273  1.00  0.00    -0.132 C  
HETATM   14  C   UNL     1      -9.081   9.274  64.757  1.00  0.00    -0.201 C  
BRANCH  11  15
HETATM   15  C   UNL     1      -7.920  12.207  68.554  1.00  0.00    -0.119 C  
BRANCH  15  16
HETATM   16  C   UNL     1      -7.977  13.717  68.402  1.00  0.00    -0.144 A  
HETATM   17  C   UNL     1      -8.766  14.497  69.246  1.00  0.00     0.112 A  
HETATM   18  C   UNL     1      -9.025  15.842  68.947  1.00  0.00    -0.228 A  
HETATM   19  C   UNL     1      -8.452  16.485  67.832  1.00  0.00    -0.182 A  
HETATM   20  C   UNL     1      -7.490  15.745  67.130  1.00  0.00    -0.259 A  
HETATM   21  C   UNL     1      -7.296  14.372  67.369  1.00  0.00    -0.167 A  
BRANCH  19  22
HETATM   22  C   UNL     1      -8.917  17.853  67.415  1.00  0.00    -0.245 A  
HETATM   23  C   UNL     1      -8.469  18.976  68.158  1.00  0.00    -0.351 A  
HETATM   24  C   UNL     1      -8.933  20.277  67.928  1.00  0.00    -0.274 A  
HETATM   25  C   UNL     1      -9.838  20.516  66.911  1.00  0.00    -0.506 A  
HETATM   26  C   UNL     1     -10.274  19.452  66.128  1.00  0.00    -0.570 A  
HETATM   27  C   UNL     1      -9.846  18.120  66.369  1.00  0.00    -0.353 A  
BRANCH  27  28
HETATM   28  C   UNL     1     -10.460  17.108  65.511  1.00  0.00    -0.144 A  
HETATM   29  N   UNL     1     -10.264  15.781  65.667  1.00  0.00    -0.355 NA 
HETATM   30  N   UNL     1     -10.992  15.310  64.646  1.00  0.00    -0.642 NA 
HETATM   31  H   UNL     1     -11.076  14.311  64.458  1.00  0.00     0.000 HD 
HETATM   32  N   UNL     1     -11.601  16.225  63.888  1.00  0.00    -0.988 NA 
HETATM   33  N   UNL     1     -11.238  17.387  64.412  1.00  0.00    -0.621 NA 
ENDBRANCH  27  28
ENDBRANCH  19  22
ENDBRANCH  15  16
ENDBRANCH  11  15
ENDBRANCH   4   5
ENDBRANCH   3   4
ENDBRANCH   2   3
TORSDOF 7
ENDMDL
MODEL       67
REMARK 921   NORMALIZED FREE ENERGY PREDICTED BY IDOCK:   -5.88 KCAL/MOL
REMARK 922        TOTAL FREE ENERGY PREDICTED BY IDOCK:  -10.24 KCAL/MOL
REMARK 923 INTER-LIGAND FREE ENERGY PREDICTED BY IDOCK:   -8.37 KCAL/MOL
REMARK 924 INTRA-LIGAND FREE ENERGY PREDICTED BY IDOCK:   -1.87 KCAL/MOL
REMARK 927      BINDING AFFINITY PREDICTED BY RF-SCORE:    0.00 PKD
ROOT
HETATM    1  C   UNL     1     -12.202  12.695  63.331  1.00  0.00    -0.610 C  
HETATM    2  C   UNL     1     -10.786  12.170  63.214  1.00  0.00    -0.373 C  
ENDROOT
BRANCH   2   3
HETATM    3  C   UNL     1     -10.538  11.022  64.188  1.00  0.00    -0.412 C  
BRANCH   3   4
HETATM    4  C   UNL     1      -9.551  11.410  65.284  1.00  0.00    -0.256 C  
BRANCH   4   5
HETATM    5  C   UNL     1     -10.044  10.934  66.621  1.00  0.00    -0.219 C  
HETATM    6  N   UNL     1      -9.484   9.900  67.174  1.00  0.00    -0.155 NA 
HETATM    7  C   UNL     1     -10.158   9.765  68.489  1.00  0.00    -0.166 C  
HETATM    8  C   UNL     1     -11.333  10.721  68.372  1.00  0.00    -0.302 C  
HETATM    9  C   UNL     1      -9.205  10.226  69.597  1.00  0.00    -0.155 C  
HETATM   10  O   UNL     1     -12.320  10.767  69.091  1.00  0.00    -0.400 OA 
HETATM   11  N   UNL     1     -11.048  11.524  67.297  1.00  0.00    -0.277 N  
HETATM   12  C   UNL     1      -9.571   9.334  70.772  1.00  0.00    -0.341 C  
HETATM   13  C   UNL     1      -9.804   7.984  70.114  1.00  0.00    -0.184 C  
HETATM   14  C   UNL     1     -10.509   8.310  68.796  1.00  0.00    -0.200 C  
BRANCH  11  15
HETATM   15  C   UNL     1     -11.865  12.689  66.966  1.00  0.00    -0.345 C  
BRANCH  15  16
HETATM   16  C   UNL     1     -11.173  13.995  67.312  1.00  0.00    -0.328 A  
HETATM   17  C   UNL     1     -10.384  14.662  66.376  1.00  0.00    -0.293 A  
HETATM   18  C   UNL     1      -9.542  15.714  66.766  1.00  0.00    -0.257 A  
HETATM   19  C   UNL     1      -9.501  16.189  68.092  1.00  0.00    -0.209 A  
HETATM   20  C   UNL     1     -10.463  15.653  68.960  1.00  0.00    -0.229 A  
HETATM   21  C   UNL     1     -11.245  14.539  68.600  1.00  0.00    -0.281 A  
BRANCH  19  22
HETATM   22  C   UNL     1      -8.439  17.160  68.525  1.00  0.00    -0.262 A  
HETATM   23  C   UNL     1      -8.689  18.549  68.374  1.00  0.00    -0.351 A  
HETATM   24  C   UNL     1      -7.725  19.530  68.634  1.00  0.00    -0.390 A  
HETATM   25  C   UNL     1      -6.476  19.163  69.101  1.00  0.00    -0.321 A  
HETATM   26  C   UNL     1      -6.199  17.816  69.304  1.00  0.00    -0.239 A  
HETATM   27  C   UNL     1      -7.148  16.802  69.010  1.00  0.00    -0.221 A  
BRANCH  27  28
HETATM   28  C   UNL     1      -6.673  15.433  69.201  1.00  0.00    -0.138 A  
HETATM   29  N   UNL     1      -7.235  14.564  70.069  1.00  0.00     0.022 NA 
HETATM   30  N   UNL     1      -6.437  13.502  69.894  1.00  0.00    -0.318 NA 
HETATM   31  H   UNL     1      -6.577  12.632  70.406  1.00  0.00     0.000 HD 
HETATM   32  N   UNL     1      -5.448  13.651  69.010  1.00  0.00    -0.073 NA 
HETATM   33  N   UNL     1      -5.567  14.900  68.583  1.00  0.00    -0.088 NA 
ENDBRANCH  27  28
ENDBRANCH  19  22
ENDBRANCH  15  16
ENDBRANCH  11  15
ENDBRANCH   4   5
ENDBRANCH   3   4
ENDBRANCH   2   3
TORSDOF 7
ENDMDL
MODEL       68
REMARK 921   NORMALIZED FREE ENERGY PREDICTED BY IDOCK:   -5.88 KCAL/MOL
REMARK 922        TOTAL FREE ENERGY PREDICTED BY IDOCK:  -10.23 KCAL/MOL
REMARK 923 INTER-LIGAND FREE ENERGY PREDICTED BY IDOCK:   -8.44 KCAL/MOL
REMARK 924 INTRA-LIGAND FREE ENERGY PREDICTED BY IDOCK:   -1.79 KCAL/MOL
REMARK 927      BINDING AFFINITY PREDICTED BY RF-SCORE:    0.00 PKD
ROOT
HETATM    1  C   UNL     1     -11.093  12.294  63.557  1.00  0.00    -0.533 C  
HETATM    2  C   UNL     1     -12.555  12.340  63.952  1.00  0.00    -0.544 C  
ENDROOT
BRANCH   2   3
HETATM    3  C   UNL     1     -12.747  13.050  65.288  1.00  0.00    -0.432 C  
BRANCH   3   4
HETATM    4  C   UNL     1     -11.874  14.295  65.400  1.00  0.00    -0.363 C  
BRANCH   4   5
HETATM    5  C   UNL     1     -11.310  14.412  66.789  1.00  0.00    -0.352 C  
HETATM    6  N   UNL     1     -11.932  15.137  67.669  1.00  0.00    -0.131 NA 
HETATM    7  C   UNL     1     -11.150  14.968  68.918  1.00  0.00    -0.266 C  
HETATM    8  C   UNL     1      -9.886  14.274  68.440  1.00  0.00    -0.233 C  
HETATM    9  C   UNL     1     -11.923  14.059  69.880  1.00  0.00    -0.399 C  
HETATM   10  O   UNL     1      -8.833  14.160  69.049  1.00  0.00    -0.043 OA 
HETATM   11  N   UNL     1     -10.178  13.800  67.186  1.00  0.00    -0.242 N  
HETATM   12  C   UNL     1     -11.551  14.599  71.252  1.00  0.00    -0.252 C  
HETATM   13  C   UNL     1     -11.552  16.104  71.036  1.00  0.00    -0.434 C  
HETATM   14  C   UNL     1     -10.950  16.297  69.643  1.00  0.00    -0.346 C  
BRANCH  11  15
HETATM   15  C   UNL     1      -9.263  12.922  66.461  1.00  0.00    -0.182 C  
BRANCH  15  16
HETATM   16  C   UNL     1      -9.407  11.469  66.878  1.00  0.00    -0.189 A  
HETATM   17  C   UNL     1     -10.628  10.806  66.769  1.00  0.00    -0.307 A  
HETATM   18  C   UNL     1     -10.828   9.564  67.390  1.00  0.00    -0.215 A  
HETATM   19  C   UNL     1      -9.799   8.900  68.087  1.00  0.00    -0.193 A  
HETATM   20  C   UNL     1      -8.527   9.481  67.990  1.00  0.00    -0.119 A  
HETATM   21  C   UNL     1      -8.339  10.766  67.449  1.00  0.00    -0.119 A  
BRANCH  19  22
HETATM   22  C   UNL     1     -10.099   7.687  68.922  1.00  0.00    -0.202 A  
HETATM   23  C   UNL     1     -10.360   7.866  70.306  1.00  0.00    -0.212 A  
HETATM   24  C   UNL     1     -10.532   6.796  71.193  1.00  0.00    -0.239 A  
HETATM   25  C   UNL     1     -10.495   5.497  70.722  1.00  0.00    -0.330 A  
HETATM   26  C   UNL     1     -10.284   5.274  69.366  1.00  0.00    -0.321 A  
HETATM   27  C   UNL     1     -10.067   6.341  68.456  1.00  0.00    -0.182 A  
BRANCH  27  28
HETATM   28  C   UNL     1      -9.780   5.935  67.081  1.00  0.00    -0.132 A  
HETATM   29  N   UNL     1     -10.641   5.229  66.318  1.00  0.00    -0.283 NA 
HETATM   30  N   UNL     1      -9.913   5.092  65.201  1.00  0.00    -0.375 NA 
HETATM   31  H   UNL     1     -10.267   4.596  64.383  1.00  0.00     0.000 HD 
HETATM   32  N   UNL     1      -8.697   5.643  65.221  1.00  0.00    -0.145 NA 
HETATM   33  N   UNL     1      -8.585   6.158  66.437  1.00  0.00    -0.126 NA 
ENDBRANCH  27  28
ENDBRANCH  19  22
ENDBRANCH  15  16
ENDBRANCH  11  15
ENDBRANCH   4   5
ENDBRANCH   3   4
ENDBRANCH   2   3
TORSDOF 7
ENDMDL
MODEL       69
REMARK 921   NORMALIZED FREE ENERGY PREDICTED BY IDOCK:   -5.86 KCAL/MOL
REMARK 922        TOTAL FREE ENERGY PREDICTED BY IDOCK:  -10.21 KCAL/MOL
REMARK 923 INTER-LIGAND FREE ENERGY PREDICTED BY IDOCK:   -8.65 KCAL/MOL
REMARK 924 INTRA-LIGAND FREE ENERGY PREDICTED BY IDOCK:   -1.56 KCAL/MOL
REMARK 927      BINDING AFFINITY PREDICTED BY RF-SCORE:    0.00 PKD
ROOT
HETATM    1  C   UNL     1      -7.929  10.361  65.684  1.00  0.00    -0.153 C  
HETATM    2  C   UNL     1      -6.882  10.258  66.775  1.00  0.00    -0.088 C  
ENDROOT
BRANCH   2   3
HETATM    3  C   UNL     1      -7.307   9.272  67.859  1.00  0.00    -0.080 C  
BRANCH   3   4
HETATM    4  C   UNL     1      -7.625   7.896  67.283  1.00  0.00    -0.101 C  
BRANCH   4   5
HETATM    5  C   UNL     1      -8.622   7.184  68.154  1.00  0.00    -0.129 C  
HETATM    6  N   UNL     1      -8.215   6.231  68.938  1.00  0.00    -0.113 NA 
HETATM    7  C   UNL     1      -9.426   5.816  69.686  1.00  0.00    -0.140 C  
HETATM    8  C   UNL     1     -10.548   6.520  68.943  1.00  0.00    -0.241 C  
HETATM    9  C   UNL     1      -9.335   6.335  71.126  1.00  0.00    -0.169 C  
HETATM   10  O   UNL     1     -11.745   6.283  69.018  1.00  0.00    -0.140 OA 
HETATM   11  N   UNL     1      -9.936   7.479  68.175  1.00  0.00    -0.166 N  
HETATM   12  C   UNL     1     -10.045   5.262  71.935  1.00  0.00    -0.252 C  
HETATM   13  C   UNL     1      -9.577   3.975  71.276  1.00  0.00    -0.245 C  
HETATM   14  C   UNL     1      -9.538   4.295  69.780  1.00  0.00    -0.279 C  
BRANCH  11  15
HETATM   15  C   UNL     1     -10.701   8.482  67.439  1.00  0.00    -0.145 C  
BRANCH  15  16
HETATM   16  C   UNL     1     -10.885   9.763  68.234  1.00  0.00    -0.256 A  
HETATM   17  C   UNL     1     -10.750   9.776  69.621  1.00  0.00    -0.264 A  
HETATM   18  C   UNL     1     -11.173  10.882  70.373  1.00  0.00    -0.191 A  
HETATM   19  C   UNL     1     -11.683  12.048  69.769  1.00  0.00    -0.390 A  
HETATM   20  C   UNL     1     -11.598  12.095  68.370  1.00  0.00    -0.381 A  
HETATM   21  C   UNL     1     -11.262  10.959  67.611  1.00  0.00    -0.379 A  
BRANCH  19  22
HETATM   22  C   UNL     1     -12.328  13.121  70.600  1.00  0.00    -0.405 A  
HETATM   23  C   UNL     1     -13.273  12.738  71.587  1.00  0.00    -0.410 A  
HETATM   24  C   UNL     1     -14.016  13.662  72.331  1.00  0.00    -0.651 A  
HETATM   25  C   UNL     1     -13.812  15.017  72.149  1.00  0.00    -0.584 A  
HETATM   26  C   UNL     1     -12.866  15.441  71.222  1.00  0.00    -0.519 A  
HETATM   27  C   UNL     1     -12.130  14.522  70.429  1.00  0.00    -0.389 A  
BRANCH  27  28
HETATM   28  C   UNL     1     -11.234  15.130  69.446  1.00  0.00    -0.283 A  
HETATM   29  N   UNL     1      -9.910  15.299  69.649  1.00  0.00    -0.244 NA 
HETATM   30  N   UNL     1      -9.569  15.907  68.505  1.00  0.00    -0.200 NA 
HETATM   31  H   UNL     1      -8.609  16.187  68.308  1.00  0.00     0.000 HD 
HETATM   32  N   UNL     1     -10.560  16.125  67.637  1.00  0.00    -0.310 NA 
HETATM   33  N   UNL     1     -11.643  15.661  68.246  1.00  0.00    -0.353 NA 
ENDBRANCH  27  28
ENDBRANCH  19  22
ENDBRANCH  15  16
ENDBRANCH  11  15
ENDBRANCH   4   5
ENDBRANCH   3   4
ENDBRANCH   2   3
TORSDOF 7
ENDMDL
MODEL       70
REMARK 921   NORMALIZED FREE ENERGY PREDICTED BY IDOCK:   -5.84 KCAL/MOL
REMARK 922        TOTAL FREE ENERGY PREDICTED BY IDOCK:  -10.17 KCAL/MOL
REMARK 923 INTER-LIGAND FREE ENERGY PREDICTED BY IDOCK:   -8.75 KCAL/MOL
REMARK 924 INTRA-LIGAND FREE ENERGY PREDICTED BY IDOCK:   -1.42 KCAL/MOL
REMARK 927      BINDING AFFINITY PREDICTED BY RF-SCORE:    0.00 PKD
ROOT
HETATM    1  C   UNL     1     -11.130   6.277  69.569  1.00  0.00    -0.476 C  
HETATM    2  C   UNL     1      -9.633   6.238  69.804  1.00  0.00    -0.169 C  
ENDROOT
BRANCH   2   3
HETATM    3  C   UNL     1      -8.862   6.443  68.503  1.00  0.00    -0.119 C  
BRANCH   3   4
HETATM    4  C   UNL     1      -8.258   7.840  68.415  1.00  0.00    -0.124 C  
BRANCH   4   5
HETATM    5  C   UNL     1      -8.378   8.372  67.015  1.00  0.00    -0.114 C  
HETATM    6  N   UNL     1      -7.328   8.390  66.250  1.00  0.00    -0.084 NA 
HETATM    7  C   UNL     1      -7.821   8.898  64.946  1.00  0.00    -0.121 C  
HETATM    8  C   UNL     1      -9.218   9.394  65.276  1.00  0.00    -0.238 C  
HETATM    9  C   UNL     1      -7.891   7.739  63.945  1.00  0.00    -0.126 C  
HETATM   10  O   UNL     1      -9.919  10.129  64.597  1.00  0.00    -0.328 OA 
HETATM   11  N   UNL     1      -9.528   8.838  66.492  1.00  0.00    -0.200 N  
HETATM   12  C   UNL     1      -7.570   8.400  62.615  1.00  0.00    -0.116 C  
HETATM   13  C   UNL     1      -6.464   9.376  62.979  1.00  0.00    -0.095 C  
HETATM   14  C   UNL     1      -6.869   9.931  64.346  1.00  0.00    -0.125 C  
BRANCH  11  15
HETATM   15  C   UNL     1     -10.865   8.944  67.070  1.00  0.00     0.031 C  
BRANCH  15  16
HETATM   16  C   UNL     1     -11.015  10.170  67.954  1.00  0.00    -0.335 A  
HETATM   17  C   UNL     1     -10.788  10.101  69.327  1.00  0.00    -0.269 A  
HETATM   18  C   UNL     1     -11.176  11.150  70.174  1.00  0.00    -0.211 A  
HETATM   19  C   UNL     1     -11.743  12.341  69.678  1.00  0.00    -0.386 A  
HETATM   20  C   UNL     1     -11.752  12.475  68.282  1.00  0.00    -0.390 A  
HETATM   21  C   UNL     1     -11.451  11.394  67.433  1.00  0.00    -0.328 A  
BRANCH  19  22
HETATM   22  C   UNL     1     -12.347  13.349  70.615  1.00  0.00    -0.423 A  
HETATM   23  C   UNL     1     -13.262  12.894  71.600  1.00  0.00    -0.416 A  
HETATM   24  C   UNL     1     -13.969  13.761  72.442  1.00  0.00    -0.651 A  
HETATM   25  C   UNL     1     -13.756  15.125  72.364  1.00  0.00    -0.600 A  
HETATM   26  C   UNL     1     -12.837  15.614  71.442  1.00  0.00    -0.546 A  
HETATM   27  C   UNL     1     -12.138  14.757  70.552  1.00  0.00    -0.378 A  
BRANCH  27  28
HETATM   28  C   UNL     1     -11.270  15.435  69.591  1.00  0.00    -0.283 A  
HETATM   29  N   UNL     1      -9.950  15.635  69.791  1.00  0.00    -0.287 NA 
HETATM   30  N   UNL     1      -9.637  16.304  68.673  1.00  0.00    -0.227 NA 
HETATM   31  H   UNL     1      -8.687  16.621  68.483  1.00  0.00     0.000 HD 
HETATM   32  N   UNL     1     -10.642  16.529  67.824  1.00  0.00    -0.325 NA 
HETATM   33  N   UNL     1     -11.705  16.006  68.418  1.00  0.00    -0.294 NA 
ENDBRANCH  27  28
ENDBRANCH  19  22
ENDBRANCH  15  16
ENDBRANCH  11  15
ENDBRANCH   4   5
ENDBRANCH   3   4
ENDBRANCH   2   3
TORSDOF 7
ENDMDL
MODEL       71
REMARK 921   NORMALIZED FREE ENERGY PREDICTED BY IDOCK:   -5.82 KCAL/MOL
REMARK 922        TOTAL FREE ENERGY PREDICTED BY IDOCK:  -10.15 KCAL/MOL
REMARK 923 INTER-LIGAND FREE ENERGY PREDICTED BY IDOCK:   -8.38 KCAL/MOL
REMARK 924 INTRA-LIGAND FREE ENERGY PREDICTED BY IDOCK:   -1.77 KCAL/MOL
REMARK 927      BINDING AFFINITY PREDICTED BY RF-SCORE:    0.00 PKD
ROOT
HETATM    1  C   UNL     1      -7.999  10.147  62.693  1.00  0.00    -0.152 C  
HETATM    2  C   UNL     1      -8.583   8.754  62.571  1.00  0.00    -0.171 C  
ENDROOT
BRANCH   2   3
HETATM    3  C   UNL     1      -7.487   7.705  62.408  1.00  0.00    -0.098 C  
BRANCH   3   4
HETATM    4  C   UNL     1      -7.024   7.153  63.751  1.00  0.00    -0.060 C  
BRANCH   4   5
HETATM    5  C   UNL     1      -7.976   6.096  64.237  1.00  0.00    -0.118 C  
HETATM    6  N   UNL     1      -8.402   5.193  63.405  1.00  0.00    -0.124 NA 
HETATM    7  C   UNL     1      -9.245   4.291  64.227  1.00  0.00    -0.151 C  
HETATM    8  C   UNL     1      -9.396   5.056  65.531  1.00  0.00    -0.140 C  
HETATM    9  C   UNL     1      -8.496   2.976  64.466  1.00  0.00    -0.094 C  
HETATM   10  O   UNL     1     -10.210   4.847  66.418  1.00  0.00    -0.228 OA 
HETATM   11  N   UNL     1      -8.423   6.023  65.505  1.00  0.00    -0.149 N  
HETATM   12  C   UNL     1      -9.607   1.940  64.516  1.00  0.00    -0.066 C  
HETATM   13  C   UNL     1     -10.549   2.399  63.415  1.00  0.00    -0.200 C  
HETATM   14  C   UNL     1     -10.545   3.926  63.512  1.00  0.00    -0.197 C  
BRANCH  11  15
HETATM   15  C   UNL     1      -8.136   6.860  66.667  1.00  0.00    -0.110 C  
BRANCH  15  16
HETATM   16  C   UNL     1      -8.966   8.132  66.681  1.00  0.00    -0.181 A  
HETATM   17  C   UNL     1      -8.479   9.316  66.132  1.00  0.00    -0.135 A  
HETATM   18  C   UNL     1      -9.122  10.539  66.374  1.00  0.00    -0.181 A  
HETATM   19  C   UNL     1     -10.317  10.622  67.116  1.00  0.00    -0.275 A  
HETATM   20  C   UNL     1     -10.903   9.397  67.464  1.00  0.00    -0.208 A  
HETATM   21  C   UNL     1     -10.219   8.178  67.305  1.00  0.00    -0.348 A  
BRANCH  19  22
HETATM   22  C   UNL     1     -10.861  11.956  67.543  1.00  0.00    -0.283 A  
HETATM   23  C   UNL     1     -10.828  12.291  68.922  1.00  0.00    -0.238 A  
HETATM   24  C   UNL     1     -11.415  13.452  69.439  1.00  0.00    -0.333 A  
HETATM   25  C   UNL     1     -12.024  14.355  68.587  1.00  0.00    -0.332 A  
HETATM   26  C   UNL     1     -12.044  14.090  67.222  1.00  0.00    -0.405 A  
HETATM   27  C   UNL     1     -11.491  12.900  66.682  1.00  0.00    -0.393 A  
BRANCH  27  28
HETATM   28  C   UNL     1     -11.666  12.734  65.240  1.00  0.00    -0.368 A  
HETATM   29  N   UNL     1     -10.701  13.005  64.336  1.00  0.00    -0.373 NA 
HETATM   30  N   UNL     1     -11.354  12.731  63.198  1.00  0.00    -0.757 NA 
HETATM   31  H   UNL     1     -10.910  12.826  62.285  1.00  0.00     0.000 HD 
HETATM   32  N   UNL     1     -12.619  12.327  63.331  1.00  0.00    -0.735 NA 
HETATM   33  N   UNL     1     -12.844  12.358  64.637  1.00  0.00    -0.774 NA 
ENDBRANCH  27  28
ENDBRANCH  19  22
ENDBRANCH  15  16
ENDBRANCH  11  15
ENDBRANCH   4   5
ENDBRANCH   3   4
ENDBRANCH   2   3
TORSDOF 7
ENDMDL
MODEL       72
REMARK 921   NORMALIZED FREE ENERGY PREDICTED BY IDOCK:   -5.80 KCAL/MOL
REMARK 922        TOTAL FREE ENERGY PREDICTED BY IDOCK:  -10.12 KCAL/MOL
REMARK 923 INTER-LIGAND FREE ENERGY PREDICTED BY IDOCK:   -9.06 KCAL/MOL
REMARK 924 INTRA-LIGAND FREE ENERGY PREDICTED BY IDOCK:   -1.06 KCAL/MOL
REMARK 927      BINDING AFFINITY PREDICTED BY RF-SCORE:    0.00 PKD
ROOT
HETATM    1  C   UNL     1     -10.643  18.190  68.381  1.00  0.00    -0.215 C  
HETATM    2  C   UNL     1     -10.565  19.477  67.584  1.00  0.00    -0.566 C  
ENDROOT
BRANCH   2   3
HETATM    3  C   UNL     1     -10.258  19.202  66.115  1.00  0.00    -0.535 C  
BRANCH   3   4
HETATM    4  C   UNL     1      -8.945  19.843  65.679  1.00  0.00     0.190 C  
BRANCH   4   5
HETATM    5  C   UNL     1      -7.864  19.550  66.681  1.00  0.00    -0.283 C  
HETATM    6  N   UNL     1      -7.476  20.488  67.492  1.00  0.00    -0.318 NA 
HETATM    7  C   UNL     1      -6.473  19.837  68.370  1.00  0.00    -0.269 C  
HETATM    8  C   UNL     1      -6.222  18.508  67.677  1.00  0.00    -0.184 C  
HETATM    9  C   UNL     1      -7.086  19.606  69.756  1.00  0.00    -0.123 C  
HETATM   10  O   UNL     1      -5.292  17.739  67.872  1.00  0.00    -0.134 OA 
HETATM   11  N   UNL     1      -7.261  18.351  66.795  1.00  0.00    -0.202 N  
HETATM   12  C   UNL     1      -5.902  19.761  70.696  1.00  0.00    -0.310 C  
HETATM   13  C   UNL     1      -5.140  20.929  70.093  1.00  0.00    -0.382 C  
HETATM   14  C   UNL     1      -5.247  20.723  68.580  1.00  0.00    -0.332 C  
BRANCH  11  15
HETATM   15  C   UNL     1      -7.466  17.106  66.058  1.00  0.00    -0.143 C  
BRANCH  15  16
HETATM   16  C   UNL     1      -8.427  16.169  66.768  1.00  0.00    -0.289 A  
HETATM   17  C   UNL     1      -8.271  15.864  68.119  1.00  0.00    -0.149 A  
HETATM   18  C   UNL     1      -8.986  14.809  68.705  1.00  0.00    -0.185 A  
HETATM   19  C   UNL     1      -9.938  14.060  67.985  1.00  0.00    -0.235 A  
HETATM   20  C   UNL     1     -10.236  14.530  66.699  1.00  0.00    -0.276 A  
HETATM   21  C   UNL     1      -9.460  15.525  66.077  1.00  0.00    -0.387 A  
BRANCH  19  22
HETATM   22  C   UNL     1     -10.524  12.805  68.570  1.00  0.00    -0.252 A  
HETATM   23  C   UNL     1     -10.045  11.553  68.103  1.00  0.00    -0.201 A  
HETATM   24  C   UNL     1     -10.605  10.330  68.493  1.00  0.00    -0.240 A  
HETATM   25  C   UNL     1     -11.643  10.306  69.406  1.00  0.00    -0.213 A  
HETATM   26  C   UNL     1     -12.118  11.507  69.923  1.00  0.00    -0.389 A  
HETATM   27  C   UNL     1     -11.592  12.760  69.511  1.00  0.00    -0.342 A  
BRANCH  27  28
HETATM   28  C   UNL     1     -12.255  13.929  70.087  1.00  0.00    -0.358 A  
HETATM   29  N   UNL     1     -12.005  15.196  69.693  1.00  0.00    -0.323 NA 
HETATM   30  N   UNL     1     -12.814  15.868  70.523  1.00  0.00    -0.664 NA 
HETATM   31  H   UNL     1     -12.885  16.885  70.501  1.00  0.00     0.000 HD 
HETATM   32  N   UNL     1     -13.521  15.129  71.380  1.00  0.00    -0.444 NA 
HETATM   33  N   UNL     1     -13.144  13.882  71.134  1.00  0.00    -0.309 NA 
ENDBRANCH  27  28
ENDBRANCH  19  22
ENDBRANCH  15  16
ENDBRANCH  11  15
ENDBRANCH   4   5
ENDBRANCH   3   4
ENDBRANCH   2   3
TORSDOF 7
ENDMDL
MODEL       73
REMARK 921   NORMALIZED FREE ENERGY PREDICTED BY IDOCK:   -5.80 KCAL/MOL
REMARK 922        TOTAL FREE ENERGY PREDICTED BY IDOCK:  -10.12 KCAL/MOL
REMARK 923 INTER-LIGAND FREE ENERGY PREDICTED BY IDOCK:   -9.12 KCAL/MOL
REMARK 924 INTRA-LIGAND FREE ENERGY PREDICTED BY IDOCK:   -1.00 KCAL/MOL
REMARK 927      BINDING AFFINITY PREDICTED BY RF-SCORE:    0.00 PKD
ROOT
HETATM    1  C   UNL     1      -8.136  18.934  68.270  1.00  0.00    -0.353 C  
HETATM    2  C   UNL     1      -9.200  18.185  67.493  1.00  0.00    -0.257 C  
ENDROOT
BRANCH   2   3
HETATM    3  C   UNL     1     -10.242  17.576  68.425  1.00  0.00    -0.372 C  
BRANCH   3   4
HETATM    4  C   UNL     1     -10.743  16.229  67.915  1.00  0.00    -0.329 C  
BRANCH   4   5
HETATM    5  C   UNL     1     -11.418  15.470  69.023  1.00  0.00    -0.352 C  
HETATM    6  N   UNL     1     -11.539  16.025  70.192  1.00  0.00    -0.336 NA 
HETATM    7  C   UNL     1     -12.304  15.042  70.998  1.00  0.00    -0.332 C  
HETATM    8  C   UNL     1     -12.291  13.798  70.125  1.00  0.00    -0.323 C  
HETATM    9  C   UNL     1     -13.740  15.547  71.183  1.00  0.00    -0.411 C  
HETATM   10  O   UNL     1     -12.563  12.656  70.466  1.00  0.00    -0.216 OA 
HETATM   11  N   UNL     1     -11.918  14.229  68.877  1.00  0.00    -0.332 N  
HETATM   12  C   UNL     1     -14.122  15.027  72.560  1.00  0.00    -0.503 C  
HETATM   13  C   UNL     1     -12.850  15.233  73.365  1.00  0.00    -0.667 C  
HETATM   14  C   UNL     1     -11.716  14.882  72.399  1.00  0.00    -0.320 C  
BRANCH  11  15
HETATM   15  C   UNL     1     -11.955  13.346  67.714  1.00  0.00    -0.324 C  
BRANCH  15  16
HETATM   16  C   UNL     1     -11.034  12.148  67.870  1.00  0.00    -0.272 A  
HETATM   17  C   UNL     1     -11.519  10.847  67.755  1.00  0.00    -0.323 A  
HETATM   18  C   UNL     1     -10.739   9.752  68.154  1.00  0.00    -0.280 A  
HETATM   19  C   UNL     1      -9.418   9.904  68.620  1.00  0.00    -0.153 A  
HETATM   20  C   UNL     1      -8.880  11.194  68.514  1.00  0.00    -0.161 A  
HETATM   21  C   UNL     1      -9.683  12.307  68.203  1.00  0.00    -0.213 A  
BRANCH  19  22
HETATM   22  C   UNL     1      -8.688   8.747  69.243  1.00  0.00    -0.135 A  
HETATM   23  C   UNL     1      -7.400   8.413  68.749  1.00  0.00    -0.087 A  
HETATM   24  C   UNL     1      -6.688   7.285  69.176  1.00  0.00    -0.049 A  
HETATM   25  C   UNL     1      -7.219   6.465  70.154  1.00  0.00    -0.084 A  
HETATM   26  C   UNL     1      -8.460   6.775  70.699  1.00  0.00    -0.137 A  
HETATM   27  C   UNL     1      -9.216   7.891  70.252  1.00  0.00    -0.152 A  
BRANCH  27  28
HETATM   28  C   UNL     1     -10.535   8.032  70.867  1.00  0.00    -0.202 A  
HETATM   29  N   UNL     1     -11.613   7.310  70.493  1.00  0.00    -0.282 NA 
HETATM   30  N   UNL     1     -12.541   7.825  71.311  1.00  0.00    -0.436 NA 
HETATM   31  H   UNL     1     -13.507   7.499  71.304  1.00  0.00     0.000 HD 
HETATM   32  N   UNL     1     -12.126   8.789  72.136  1.00  0.00    -0.367 NA 
HETATM   33  N   UNL     1     -10.846   8.957  71.836  1.00  0.00    -0.356 NA 
ENDBRANCH  27  28
ENDBRANCH  19  22
ENDBRANCH  15  16
ENDBRANCH  11  15
ENDBRANCH   4   5
ENDBRANCH   3   4
ENDBRANCH   2   3
TORSDOF 7
ENDMDL
MODEL       74
REMARK 921   NORMALIZED FREE ENERGY PREDICTED BY IDOCK:   -5.79 KCAL/MOL
REMARK 922        TOTAL FREE ENERGY PREDICTED BY IDOCK:  -10.10 KCAL/MOL
REMARK 923 INTER-LIGAND FREE ENERGY PREDICTED BY IDOCK:   -8.30 KCAL/MOL
REMARK 924 INTRA-LIGAND FREE ENERGY PREDICTED BY IDOCK:   -1.81 KCAL/MOL
REMARK 927      BINDING AFFINITY PREDICTED BY RF-SCORE:    0.00 PKD
ROOT
HETATM    1  C   UNL     1     -11.629  12.280  64.327  1.00  0.00    -0.442 C  
HETATM    2  C   UNL     1     -11.899  13.083  65.583  1.00  0.00    -0.445 C  
ENDROOT
BRANCH   2   3
HETATM    3  C   UNL     1     -11.750  12.223  66.834  1.00  0.00    -0.404 C  
BRANCH   3   4
HETATM    4  C   UNL     1     -10.825  11.034  66.599  1.00  0.00    -0.284 C  
BRANCH   4   5
HETATM    5  C   UNL     1     -10.395  10.441  67.911  1.00  0.00    -0.190 C  
HETATM    6  N   UNL     1     -11.283   9.889  68.681  1.00  0.00    -0.129 NA 
HETATM    7  C   UNL     1     -10.508   9.357  69.829  1.00  0.00    -0.226 C  
HETATM    8  C   UNL     1      -9.138   9.984  69.639  1.00  0.00    -0.210 C  
HETATM    9  C   UNL     1     -10.415   7.831  69.714  1.00  0.00    -0.233 C  
HETATM   10  O   UNL     1      -8.240  10.058  70.464  1.00  0.00    -0.160 OA 
HETATM   11  N   UNL     1      -9.120  10.444  68.346  1.00  0.00    -0.141 N  
HETATM   12  C   UNL     1     -10.409   7.366  71.161  1.00  0.00    -0.209 C  
HETATM   13  C   UNL     1     -11.427   8.286  71.816  1.00  0.00    -0.353 C  
HETATM   14  C   UNL     1     -11.198   9.649  71.160  1.00  0.00    -0.454 C  
BRANCH  11  15
HETATM   15  C   UNL     1      -7.903  10.964  67.729  1.00  0.00    -0.109 C  
BRANCH  15  16
HETATM   16  C   UNL     1      -7.880  12.482  67.689  1.00  0.00    -0.162 A  
HETATM   17  C   UNL     1      -7.373  13.223  68.754  1.00  0.00    -0.070 A  
HETATM   18  C   UNL     1      -7.589  14.607  68.834  1.00  0.00    -0.139 A  
HETATM   19  C   UNL     1      -8.260  15.320  67.820  1.00  0.00    -0.157 A  
HETATM   20  C   UNL     1      -8.560  14.590  66.661  1.00  0.00    -0.092 A  
HETATM   21  C   UNL     1      -8.429  13.190  66.613  1.00  0.00     0.106 A  
BRANCH  19  22
HETATM   22  C   UNL     1      -8.668  16.751  68.033  1.00  0.00    -0.212 A  
HETATM   23  C   UNL     1      -7.745  17.775  67.696  1.00  0.00    -0.212 A  
HETATM   24  C   UNL     1      -7.978  19.129  67.963  1.00  0.00    -0.331 A  
HETATM   25  C   UNL     1      -9.170  19.523  68.543  1.00  0.00    -0.413 A  
HETATM   26  C   UNL     1     -10.123  18.558  68.853  1.00  0.00    -0.348 A  
HETATM   27  C   UNL     1      -9.891  17.176  68.626  1.00  0.00    -0.300 A  
BRANCH  27  28
HETATM   28  C   UNL     1     -10.958  16.286  69.082  1.00  0.00    -0.324 A  
HETATM   29  N   UNL     1     -11.711  15.538  68.247  1.00  0.00    -0.335 NA 
HETATM   30  N   UNL     1     -12.533  14.952  69.128  1.00  0.00    -0.587 NA 
HETATM   31  H   UNL     1     -13.256  14.295  68.836  1.00  0.00     0.000 HD 
HETATM   32  N   UNL     1     -12.351  15.280  70.409  1.00  0.00    -0.356 NA 
HETATM   33  N   UNL     1     -11.364  16.164  70.390  1.00  0.00    -0.376 NA 
ENDBRANCH  27  28
ENDBRANCH  19  22
ENDBRANCH  15  16
ENDBRANCH  11  15
ENDBRANCH   4   5
ENDBRANCH   3   4
ENDBRANCH   2   3
TORSDOF 7
ENDMDL
MODEL       75
REMARK 921   NORMALIZED FREE ENERGY PREDICTED BY IDOCK:   -5.78 KCAL/MOL
REMARK 922        TOTAL FREE ENERGY PREDICTED BY IDOCK:  -10.09 KCAL/MOL
REMARK 923 INTER-LIGAND FREE ENERGY PREDICTED BY IDOCK:   -7.78 KCAL/MOL
REMARK 924 INTRA-LIGAND FREE ENERGY PREDICTED BY IDOCK:   -2.31 KCAL/MOL
REMARK 927      BINDING AFFINITY PREDICTED BY RF-SCORE:    0.00 PKD
ROOT
HETATM    1  C   UNL     1     -10.550   5.873  68.543  1.00  0.00    -0.317 C  
HETATM    2  C   UNL     1     -10.629   7.344  68.188  1.00  0.00    -0.216 C  
ENDROOT
BRANCH   2   3
HETATM    3  C   UNL     1     -10.405   7.567  66.695  1.00  0.00    -0.252 C  
BRANCH   3   4
HETATM    4  C   UNL     1      -9.165   8.414  66.428  1.00  0.00    -0.253 C  
BRANCH   4   5
HETATM    5  C   UNL     1      -9.430   9.851  66.777  1.00  0.00    -0.169 C  
HETATM    6  N   UNL     1     -10.436  10.463  66.228  1.00  0.00    -0.197 NA 
HETATM    7  C   UNL     1     -10.439  11.812  66.845  1.00  0.00    -0.223 C  
HETATM    8  C   UNL     1      -9.106  11.860  67.572  1.00  0.00    -0.178 C  
HETATM    9  C   UNL     1     -11.595  11.907  67.848  1.00  0.00    -0.393 C  
HETATM   10  O   UNL     1      -8.539  12.851  68.008  1.00  0.00    -0.169 OA 
HETATM   11  N   UNL     1      -8.678  10.558  67.641  1.00  0.00    -0.122 N  
HETATM   12  C   UNL     1     -12.019  13.364  67.761  1.00  0.00    -0.363 C  
HETATM   13  C   UNL     1     -11.925  13.657  66.273  1.00  0.00    -0.461 C  
HETATM   14  C   UNL     1     -10.674  12.908  65.807  1.00  0.00    -0.293 C  
BRANCH  11  15
HETATM   15  C   UNL     1      -7.505  10.172  68.422  1.00  0.00    -0.086 C  
BRANCH  15  16
HETATM   16  C   UNL     1      -7.857   9.230  69.561  1.00  0.00    -0.086 A  
HETATM   17  C   UNL     1      -7.247   7.982  69.677  1.00  0.00    -0.066 A  
HETATM   18  C   UNL     1      -7.752   7.016  70.560  1.00  0.00    -0.095 A  
HETATM   19  C   UNL     1      -8.843   7.278  71.413  1.00  0.00    -0.130 A  
HETATM   20  C   UNL     1      -9.291   8.607  71.436  1.00  0.00    -0.305 A  
HETATM   21  C   UNL     1      -8.852   9.552  70.492  1.00  0.00    -0.253 A  
BRANCH  19  22
HETATM   22  C   UNL     1      -9.497   6.165  72.183  1.00  0.00    -0.159 A  
HETATM   23  C   UNL     1      -8.703   5.056  72.574  1.00  0.00    -0.120 A  
HETATM   24  C   UNL     1      -9.237   3.916  73.188  1.00  0.00    -0.121 A  
HETATM   25  C   UNL     1     -10.587   3.857  73.479  1.00  0.00    -0.283 A  
HETATM   26  C   UNL     1     -11.398   4.939  73.152  1.00  0.00    -0.395 A  
HETATM   27  C   UNL     1     -10.885   6.087  72.493  1.00  0.00    -0.286 A  
BRANCH  27  28
HETATM   28  C   UNL     1     -11.881   7.099  72.147  1.00  0.00    -0.277 A  
HETATM   29  N   UNL     1     -12.645   7.043  71.035  1.00  0.00    -0.348 NA 
HETATM   30  N   UNL     1     -13.340   8.181  71.164  1.00  0.00    -0.531 NA 
HETATM   31  H   UNL     1     -14.039   8.468  70.479  1.00  0.00     0.000 HD 
HETATM   32  N   UNL     1     -13.065   8.918  72.243  1.00  0.00    -0.413 NA 
HETATM   33  N   UNL     1     -12.103   8.251  72.865  1.00  0.00    -0.223 NA 
ENDBRANCH  27  28
ENDBRANCH  19  22
ENDBRANCH  15  16
ENDBRANCH  11  15
ENDBRANCH   4   5
ENDBRANCH   3   4
ENDBRANCH   2   3
TORSDOF 7
ENDMDL
MODEL       76
REMARK 921   NORMALIZED FREE ENERGY PREDICTED BY IDOCK:   -5.75 KCAL/MOL
REMARK 922        TOTAL FREE ENERGY PREDICTED BY IDOCK:  -10.05 KCAL/MOL
REMARK 923 INTER-LIGAND FREE ENERGY PREDICTED BY IDOCK:   -7.78 KCAL/MOL
REMARK 924 INTRA-LIGAND FREE ENERGY PREDICTED BY IDOCK:   -2.27 KCAL/MOL
REMARK 927      BINDING AFFINITY PREDICTED BY RF-SCORE:    0.00 PKD
ROOT
HETATM    1  C   UNL     1      -8.686   9.108  64.138  1.00  0.00    -0.170 C  
HETATM    2  C   UNL     1      -8.107   9.348  65.518  1.00  0.00    -0.116 C  
ENDROOT
BRANCH   2   3
HETATM    3  C   UNL     1      -8.517   8.246  66.490  1.00  0.00    -0.121 C  
BRANCH   3   4
HETATM    4  C   UNL     1      -7.486   8.051  67.596  1.00  0.00    -0.097 C  
BRANCH   4   5
HETATM    5  C   UNL     1      -8.121   7.400  68.793  1.00  0.00    -0.128 C  
HETATM    6  N   UNL     1      -8.356   6.122  68.770  1.00  0.00    -0.111 NA 
HETATM    7  C   UNL     1      -8.906   5.817  70.114  1.00  0.00    -0.140 C  
HETATM    8  C   UNL     1      -9.168   7.194  70.699  1.00  0.00    -0.158 C  
HETATM    9  C   UNL     1      -7.844   5.082  70.940  1.00  0.00    -0.087 C  
HETATM   10  O   UNL     1      -9.857   7.463  71.672  1.00  0.00    -0.166 OA 
HETATM   11  N   UNL     1      -8.466   8.069  69.909  1.00  0.00    -0.125 N  
HETATM   12  C   UNL     1      -8.662   4.148  71.817  1.00  0.00    -0.135 C  
HETATM   13  C   UNL     1      -9.747   3.659  70.871  1.00  0.00    -0.229 C  
HETATM   14  C   UNL     1     -10.113   4.884  70.032  1.00  0.00    -0.337 C  
BRANCH  11  15
HETATM   15  C   UNL     1      -8.330   9.482  70.254  1.00  0.00    -0.195 C  
BRANCH  15  16
HETATM   16  C   UNL     1      -9.108  10.383  69.311  1.00  0.00    -0.188 A  
HETATM   17  C   UNL     1     -10.456  10.155  69.044  1.00  0.00    -0.239 A  
HETATM   18  C   UNL     1     -11.101  10.813  67.987  1.00  0.00    -0.359 A  
HETATM   19  C   UNL     1     -10.447  11.778  67.196  1.00  0.00    -0.250 A  
HETATM   20  C   UNL     1      -9.165  12.150  67.626  1.00  0.00    -0.181 A  
HETATM   21  C   UNL     1      -8.483  11.431  68.624  1.00  0.00    -0.131 A  
BRANCH  19  22
HETATM   22  C   UNL     1     -11.088  12.303  65.942  1.00  0.00    -0.360 A  
HETATM   23  C   UNL     1     -11.216  11.430  64.830  1.00  0.00    -0.180 A  
HETATM   24  C   UNL     1     -11.688  11.850  63.581  1.00  0.00    -0.572 A  
HETATM   25  C   UNL     1     -12.097  13.159  63.403  1.00  0.00    -0.558 A  
HETATM   26  C   UNL     1     -12.030  14.041  64.476  1.00  0.00    -0.470 A  
HETATM   27  C   UNL     1     -11.517  13.646  65.740  1.00  0.00    -0.326 A  
BRANCH  27  28
HETATM   28  C   UNL     1     -11.438  14.712  66.737  1.00  0.00    -0.364 A  
HETATM   29  N   UNL     1     -10.708  15.836  66.570  1.00  0.00    -0.308 NA 
HETATM   30  N   UNL     1     -10.938  16.447  67.740  1.00  0.00    -0.302 NA 
HETATM   31  H   UNL     1     -10.531  17.354  67.964  1.00  0.00     0.000 HD 
HETATM   32  N   UNL     1     -11.730  15.797  68.595  1.00  0.00    -0.379 NA 
HETATM   33  N   UNL     1     -12.030  14.664  67.977  1.00  0.00    -0.301 NA 
ENDBRANCH  27  28
ENDBRANCH  19  22
ENDBRANCH  15  16
ENDBRANCH  11  15
ENDBRANCH   4   5
ENDBRANCH   3   4
ENDBRANCH   2   3
TORSDOF 7
ENDMDL
MODEL       77
REMARK 921   NORMALIZED FREE ENERGY PREDICTED BY IDOCK:   -5.74 KCAL/MOL
REMARK 922        TOTAL FREE ENERGY PREDICTED BY IDOCK:  -10.03 KCAL/MOL
REMARK 923 INTER-LIGAND FREE ENERGY PREDICTED BY IDOCK:   -8.84 KCAL/MOL
REMARK 924 INTRA-LIGAND FREE ENERGY PREDICTED BY IDOCK:   -1.19 KCAL/MOL
REMARK 927      BINDING AFFINITY PREDICTED BY RF-SCORE:    0.00 PKD
ROOT
HETATM    1  C   UNL     1     -13.146  14.873  72.896  1.00  0.00    -0.586 C  
HETATM    2  C   UNL     1     -13.694  13.566  72.359  1.00  0.00    -0.704 C  
ENDROOT
BRANCH   2   3
HETATM    3  C   UNL     1     -12.697  12.889  71.423  1.00  0.00    -0.366 C  
BRANCH   3   4
HETATM    4  C   UNL     1     -13.110  11.460  71.090  1.00  0.00    -0.216 C  
BRANCH   4   5
HETATM    5  C   UNL     1     -11.937  10.691  70.549  1.00  0.00    -0.352 C  
HETATM    6  N   UNL     1     -11.307   9.862  71.327  1.00  0.00    -0.368 NA 
HETATM    7  C   UNL     1     -10.278   9.239  70.459  1.00  0.00    -0.251 C  
HETATM    8  C   UNL     1     -10.317  10.100  69.208  1.00  0.00    -0.223 C  
HETATM    9  C   UNL     1     -10.697   7.802  70.128  1.00  0.00    -0.242 C  
HETATM   10  O   UNL     1      -9.480  10.147  68.319  1.00  0.00    -0.138 OA 
HETATM   11  N   UNL     1     -11.490  10.808  69.284  1.00  0.00    -0.275 N  
HETATM   12  C   UNL     1      -9.373   7.063  70.026  1.00  0.00    -0.158 C  
HETATM   13  C   UNL     1      -8.562   7.660  71.164  1.00  0.00    -0.132 C  
HETATM   14  C   UNL     1      -8.926   9.146  71.164  1.00  0.00    -0.249 C  
BRANCH  11  15
HETATM   15  C   UNL     1     -11.971  11.626  68.174  1.00  0.00    -0.144 C  
BRANCH  15  16
HETATM   16  C   UNL     1     -11.102  12.849  67.941  1.00  0.00    -0.283 A  
HETATM   17  C   UNL     1     -10.500  13.080  66.705  1.00  0.00    -0.264 A  
HETATM   18  C   UNL     1      -9.498  14.051  66.565  1.00  0.00    -0.295 A  
HETATM   19  C   UNL     1      -9.103  14.880  67.634  1.00  0.00    -0.183 A  
HETATM   20  C   UNL     1      -9.877  14.780  68.799  1.00  0.00    -0.227 A  
HETATM   21  C   UNL     1     -10.818  13.749  68.975  1.00  0.00    -0.247 A  
BRANCH  19  22
HETATM   22  C   UNL     1      -7.885  15.753  67.516  1.00  0.00    -0.182 A  
HETATM   23  C   UNL     1      -6.610  15.170  67.740  1.00  0.00    -0.186 A  
HETATM   24  C   UNL     1      -5.426  15.917  67.771  1.00  0.00    -0.158 A  
HETATM   25  C   UNL     1      -5.463  17.279  67.535  1.00  0.00    -0.144 A  
HETATM   26  C   UNL     1      -6.685  17.887  67.270  1.00  0.00    -0.192 A  
HETATM   27  C   UNL     1      -7.902  17.156  67.272  1.00  0.00    -0.200 A  
BRANCH  27  28
HETATM   28  C   UNL     1      -9.106  17.957  67.056  1.00  0.00    -0.253 A  
HETATM   29  N   UNL     1      -9.918  18.365  68.054  1.00  0.00    -0.333 NA 
HETATM   30  N   UNL     1     -10.857  19.011  67.349  1.00  0.00    -0.466 NA 
HETATM   31  H   UNL     1     -11.652  19.465  67.799  1.00  0.00     0.000 HD 
HETATM   32  N   UNL     1     -10.691  19.025  66.025  1.00  0.00    -0.405 NA 
HETATM   33  N   UNL     1      -9.587  18.320  65.820  1.00  0.00    -0.422 NA 
ENDBRANCH  27  28
ENDBRANCH  19  22
ENDBRANCH  15  16
ENDBRANCH  11  15
ENDBRANCH   4   5
ENDBRANCH   3   4
ENDBRANCH   2   3
TORSDOF 7
ENDMDL
MODEL       78
REMARK 921   NORMALIZED FREE ENERGY PREDICTED BY IDOCK:   -5.73 KCAL/MOL
REMARK 922        TOTAL FREE ENERGY PREDICTED BY IDOCK:  -10.03 KCAL/MOL
REMARK 923 INTER-LIGAND FREE ENERGY PREDICTED BY IDOCK:   -8.85 KCAL/MOL
REMARK 924 INTRA-LIGAND FREE ENERGY PREDICTED BY IDOCK:   -1.17 KCAL/MOL
REMARK 927      BINDING AFFINITY PREDICTED BY RF-SCORE:    0.00 PKD
ROOT
HETATM    1  C   UNL     1     -13.590  13.396  72.258  1.00  0.00    -0.703 C  
HETATM    2  C   UNL     1     -13.333  14.397  71.150  1.00  0.00    -0.392 C  
ENDROOT
BRANCH   2   3
HETATM    3  C   UNL     1     -11.939  14.220  70.555  1.00  0.00    -0.402 C  
BRANCH   3   4
HETATM    4  C   UNL     1     -11.791  12.879  69.845  1.00  0.00    -0.373 C  
BRANCH   4   5
HETATM    5  C   UNL     1     -11.436  13.091  68.400  1.00  0.00    -0.310 C  
HETATM    6  N   UNL     1     -12.277  13.705  67.622  1.00  0.00    -0.277 NA 
HETATM    7  C   UNL     1     -11.581  13.800  66.316  1.00  0.00    -0.350 C  
HETATM    8  C   UNL     1     -10.382  12.884  66.497  1.00  0.00    -0.264 C  
HETATM    9  C   UNL     1     -11.117  15.243  66.092  1.00  0.00    -0.280 C  
HETATM   10  O   UNL     1      -9.661  12.431  65.621  1.00  0.00    -0.240 OA 
HETATM   11  N   UNL     1     -10.278  12.678  67.850  1.00  0.00    -0.215 N  
HETATM   12  C   UNL     1     -11.222  15.419  64.586  1.00  0.00    -0.374 C  
HETATM   13  C   UNL     1     -12.512  14.692  64.248  1.00  0.00    -0.267 C  
HETATM   14  C   UNL     1     -12.513  13.459  65.154  1.00  0.00    -0.509 C  
BRANCH  11  15
HETATM   15  C   UNL     1      -9.137  11.982  68.439  1.00  0.00    -0.158 C  
BRANCH  15  16
HETATM   16  C   UNL     1      -9.444  10.525  68.739  1.00  0.00    -0.181 A  
HETATM   17  C   UNL     1      -8.865   9.877  69.829  1.00  0.00    -0.229 A  
HETATM   18  C   UNL     1      -8.936   8.482  69.955  1.00  0.00    -0.142 A  
HETATM   19  C   UNL     1      -9.646   7.682  69.038  1.00  0.00    -0.151 A  
HETATM   20  C   UNL     1     -10.401   8.377  68.083  1.00  0.00    -0.255 A  
HETATM   21  C   UNL     1     -10.262   9.764  67.895  1.00  0.00    -0.237 A  
BRANCH  19  22
HETATM   22  C   UNL     1      -9.522   6.185  69.073  1.00  0.00    -0.138 A  
HETATM   23  C   UNL     1      -9.022   5.519  67.924  1.00  0.00    -0.108 A  
HETATM   24  C   UNL     1      -8.979   4.124  67.809  1.00  0.00    -0.142 A  
HETATM   25  C   UNL     1      -9.395   3.332  68.862  1.00  0.00    -0.232 A  
HETATM   26  C   UNL     1      -9.855   3.940  70.026  1.00  0.00    -0.149 A  
HETATM   27  C   UNL     1      -9.944   5.351  70.149  1.00  0.00    -0.301 A  
BRANCH  27  28
HETATM   28  C   UNL     1     -10.524   5.829  71.404  1.00  0.00    -0.238 A  
HETATM   29  N   UNL     1     -11.759   6.365  71.497  1.00  0.00    -0.318 NA 
HETATM   30  N   UNL     1     -11.793   6.660  72.804  1.00  0.00    -0.484 NA 
HETATM   31  H   UNL     1     -12.609   7.090  73.239  1.00  0.00     0.000 HD 
HETATM   32  N   UNL     1     -10.697   6.358  73.502  1.00  0.00    -0.269 NA 
HETATM   33  N   UNL     1      -9.859   5.855  72.607  1.00  0.00    -0.164 NA 
ENDBRANCH  27  28
ENDBRANCH  19  22
ENDBRANCH  15  16
ENDBRANCH  11  15
ENDBRANCH   4   5
ENDBRANCH   3   4
ENDBRANCH   2   3
TORSDOF 7
ENDMDL
MODEL       79
REMARK 921   NORMALIZED FREE ENERGY PREDICTED BY IDOCK:   -5.73 KCAL/MOL
REMARK 922        TOTAL FREE ENERGY PREDICTED BY IDOCK:  -10.02 KCAL/MOL
REMARK 923 INTER-LIGAND FREE ENERGY PREDICTED BY IDOCK:   -8.32 KCAL/MOL
REMARK 924 INTRA-LIGAND FREE ENERGY PREDICTED BY IDOCK:   -1.70 KCAL/MOL
REMARK 927      BINDING AFFINITY PREDICTED BY RF-SCORE:    0.00 PKD
ROOT
HETATM    1  C   UNL     1      -6.333  12.629  67.891  1.00  0.00    -0.111 C  
HETATM    2  C   UNL     1      -6.669  13.102  69.291  1.00  0.00    -0.061 C  
ENDROOT
BRANCH   2   3
HETATM    3  C   UNL     1      -7.057  14.578  69.299  1.00  0.00    -0.140 C  
BRANCH   3   4
HETATM    4  C   UNL     1      -6.885  15.218  67.926  1.00  0.00    -0.167 C  
BRANCH   4   5
HETATM    5  C   UNL     1      -8.068  16.088  67.605  1.00  0.00    -0.149 C  
HETATM    6  N   UNL     1      -8.081  17.320  68.017  1.00  0.00    -0.214 NA 
HETATM    7  C   UNL     1      -9.336  17.888  67.467  1.00  0.00    -0.253 C  
HETATM    8  C   UNL     1     -10.075  16.662  66.960  1.00  0.00    -0.281 C  
HETATM    9  C   UNL     1      -9.000  18.826  66.302  1.00  0.00    -0.244 C  
HETATM   10  O   UNL     1     -11.258  16.584  66.663  1.00  0.00     0.106 OA 
HETATM   11  N   UNL     1      -9.134  15.664  66.901  1.00  0.00    -0.220 N  
HETATM   12  C   UNL     1     -10.076  19.896  66.387  1.00  0.00    -0.615 C  
HETATM   13  C   UNL     1     -10.210  20.125  67.884  1.00  0.00    -0.501 C  
HETATM   14  C   UNL     1     -10.075  18.733  68.504  1.00  0.00    -0.444 C  
BRANCH  11  15
HETATM   15  C   UNL     1      -9.423  14.367  66.296  1.00  0.00    -0.271 C  
BRANCH  15  16
HETATM   16  C   UNL     1     -10.248  13.476  67.208  1.00  0.00    -0.242 A  
HETATM   17  C   UNL     1     -10.510  13.842  68.527  1.00  0.00    -0.248 A  
HETATM   18  C   UNL     1     -11.038  12.915  69.438  1.00  0.00    -0.131 A  
HETATM   19  C   UNL     1     -11.391  11.606  69.054  1.00  0.00    -0.337 A  
HETATM   20  C   UNL     1     -11.327  11.337  67.680  1.00  0.00    -0.352 A  
HETATM   21  C   UNL     1     -10.715  12.228  66.779  1.00  0.00    -0.272 A  
BRANCH  19  22
HETATM   22  C   UNL     1     -11.745  10.574  70.089  1.00  0.00    -0.410 A  
HETATM   23  C   UNL     1     -12.937  10.749  70.839  1.00  0.00    -0.385 A  
HETATM   24  C   UNL     1     -13.297   9.914  71.904  1.00  0.00    -0.524 A  
HETATM   25  C   UNL     1     -12.497   8.837  72.236  1.00  0.00    -0.455 A  
HETATM   26  C   UNL     1     -11.339   8.601  71.503  1.00  0.00    -0.358 A  
HETATM   27  C   UNL     1     -10.935   9.458  70.445  1.00  0.00    -0.317 A  
BRANCH  27  28
HETATM   28  C   UNL     1      -9.653   9.119  69.828  1.00  0.00    -0.181 A  
HETATM   29  N   UNL     1      -9.485   8.077  68.986  1.00  0.00    -0.151 NA 
HETATM   30  N   UNL     1      -8.171   8.178  68.740  1.00  0.00    -0.123 NA 
HETATM   31  H   UNL     1      -7.687   7.531  68.119  1.00  0.00     0.000 HD 
HETATM   32  N   UNL     1      -7.534   9.177  69.357  1.00  0.00    -0.075 NA 
HETATM   33  N   UNL     1      -8.469   9.768  70.087  1.00  0.00    -0.196 NA 
ENDBRANCH  27  28
ENDBRANCH  19  22
ENDBRANCH  15  16
ENDBRANCH  11  15
ENDBRANCH   4   5
ENDBRANCH   3   4
ENDBRANCH   2   3
TORSDOF 7
ENDMDL
MODEL       80
REMARK 921   NORMALIZED FREE ENERGY PREDICTED BY IDOCK:   -5.72 KCAL/MOL
REMARK 922        TOTAL FREE ENERGY PREDICTED BY IDOCK:  -10.01 KCAL/MOL
REMARK 923 INTER-LIGAND FREE ENERGY PREDICTED BY IDOCK:   -8.82 KCAL/MOL
REMARK 924 INTRA-LIGAND FREE ENERGY PREDICTED BY IDOCK:   -1.19 KCAL/MOL
REMARK 927      BINDING AFFINITY PREDICTED BY RF-SCORE:    0.00 PKD
ROOT
HETATM    1  C   UNL     1     -12.128  11.978  64.056  1.00  0.00    -0.506 C  
HETATM    2  C   UNL     1     -10.665  12.291  63.814  1.00  0.00    -0.494 C  
ENDROOT
BRANCH   2   3
HETATM    3  C   UNL     1      -9.760  11.245  64.458  1.00  0.00    -0.293 C  
BRANCH   3   4
HETATM    4  C   UNL     1      -8.927  11.835  65.591  1.00  0.00     0.045 C  
BRANCH   4   5
HETATM    5  C   UNL     1      -8.573  10.769  66.589  1.00  0.00    -0.143 C  
HETATM    6  N   UNL     1      -7.322  10.510  66.826  1.00  0.00    -0.109 NA 
HETATM    7  C   UNL     1      -7.347   9.480  67.893  1.00  0.00    -0.083 C  
HETATM    8  C   UNL     1      -8.809   9.069  67.941  1.00  0.00    -0.129 C  
HETATM    9  C   UNL     1      -6.931  10.119  69.223  1.00  0.00    -0.068 C  
HETATM   10  O   UNL     1      -9.278   8.074  68.473  1.00  0.00    -0.137 OA 
HETATM   11  N   UNL     1      -9.489  10.052  67.267  1.00  0.00    -0.152 N  
HETATM   12  C   UNL     1      -6.208   8.993  69.945  1.00  0.00    -0.034 C  
HETATM   13  C   UNL     1      -5.414   8.330  68.832  1.00  0.00    -0.035 C  
HETATM   14  C   UNL     1      -6.346   8.358  67.619  1.00  0.00    -0.053 C  
BRANCH  11  15
HETATM   15  C   UNL     1     -10.949  10.102  67.243  1.00  0.00    -0.183 C  
BRANCH  15  16
HETATM   16  C   UNL     1     -11.507  11.109  68.233  1.00  0.00    -0.373 A  
HETATM   17  C   UNL     1     -11.710  12.439  67.872  1.00  0.00    -0.421 A  
HETATM   18  C   UNL     1     -11.971  13.416  68.844  1.00  0.00    -0.362 A  
HETATM   19  C   UNL     1     -12.111  13.096  70.209  1.00  0.00    -0.399 A  
HETATM   20  C   UNL     1     -12.126  11.727  70.514  1.00  0.00    -0.439 A  
HETATM   21  C   UNL     1     -11.774  10.753  69.561  1.00  0.00    -0.384 A  
BRANCH  19  22
HETATM   22  C   UNL     1     -12.171  14.180  71.247  1.00  0.00    -0.419 A  
HETATM   23  C   UNL     1     -13.057  14.019  72.345  1.00  0.00    -0.536 A  
HETATM   24  C   UNL     1     -13.277  15.018  73.301  1.00  0.00    -0.537 A  
HETATM   25  C   UNL     1     -12.583  16.211  73.223  1.00  0.00    -0.623 A  
HETATM   26  C   UNL     1     -11.673  16.399  72.188  1.00  0.00    -0.453 A  
HETATM   27  C   UNL     1     -11.464  15.415  71.186  1.00  0.00    -0.425 A  
BRANCH  27  28
HETATM   28  C   UNL     1     -10.535  15.800  70.124  1.00  0.00    -0.278 A  
HETATM   29  N   UNL     1     -10.770  16.810  69.259  1.00  0.00    -0.340 NA 
HETATM   30  N   UNL     1      -9.672  16.731  68.496  1.00  0.00    -0.239 NA 
HETATM   31  H   UNL     1      -9.509  17.368  67.717  1.00  0.00     0.000 HD 
HETATM   32  N   UNL     1      -8.803  15.769  68.815  1.00  0.00    -0.192 NA 
HETATM   33  N   UNL     1      -9.363  15.140  69.839  1.00  0.00    -0.027 NA 
ENDBRANCH  27  28
ENDBRANCH  19  22
ENDBRANCH  15  16
ENDBRANCH  11  15
ENDBRANCH   4   5
ENDBRANCH   3   4
ENDBRANCH   2   3
TORSDOF 7
ENDMDL
MODEL       81
REMARK 921   NORMALIZED FREE ENERGY PREDICTED BY IDOCK:   -5.71 KCAL/MOL
REMARK 922        TOTAL FREE ENERGY PREDICTED BY IDOCK:  -10.00 KCAL/MOL
REMARK 923 INTER-LIGAND FREE ENERGY PREDICTED BY IDOCK:   -8.54 KCAL/MOL
REMARK 924 INTRA-LIGAND FREE ENERGY PREDICTED BY IDOCK:   -1.46 KCAL/MOL
REMARK 927      BINDING AFFINITY PREDICTED BY RF-SCORE:    0.00 PKD
ROOT
HETATM    1  C   UNL     1     -10.610   4.969  66.763  1.00  0.00    -0.220 C  
HETATM    2  C   UNL     1     -10.074   5.531  68.064  1.00  0.00    -0.221 C  
ENDROOT
BRANCH   2   3
HETATM    3  C   UNL     1     -10.935   6.687  68.566  1.00  0.00    -0.314 C  
BRANCH   3   4
HETATM    4  C   UNL     1     -11.498   6.415  69.956  1.00  0.00    -0.496 C  
BRANCH   4   5
HETATM    5  C   UNL     1     -10.417   6.551  70.992  1.00  0.00    -0.222 C  
HETATM    6  N   UNL     1      -9.578   5.574  71.168  1.00  0.00    -0.159 NA 
HETATM    7  C   UNL     1      -8.628   6.074  72.191  1.00  0.00    -0.128 C  
HETATM    8  C   UNL     1      -9.300   7.340  72.695  1.00  0.00    -0.142 C  
HETATM    9  C   UNL     1      -7.292   6.414  71.519  1.00  0.00    -0.088 C  
HETATM   10  O   UNL     1      -9.036   7.959  73.716  1.00  0.00    -0.261 OA 
HETATM   11  N   UNL     1     -10.259   7.644  71.762  1.00  0.00    -0.187 N  
HETATM   12  C   UNL     1      -6.265   6.090  72.591  1.00  0.00    -0.053 C  
HETATM   13  C   UNL     1      -6.808   4.812  73.208  1.00  0.00    -0.069 C  
HETATM   14  C   UNL     1      -8.324   5.013  73.247  1.00  0.00    -0.107 C  
BRANCH  11  15
HETATM   15  C   UNL     1     -11.009   8.896  71.807  1.00  0.00    -0.361 C  
BRANCH  15  16
HETATM   16  C   UNL     1     -10.811   9.732  70.555  1.00  0.00    -0.387 A  
HETATM   17  C   UNL     1     -11.866  10.448  69.992  1.00  0.00    -0.351 A  
HETATM   18  C   UNL     1     -11.756  11.000  68.708  1.00  0.00    -0.383 A  
HETATM   19  C   UNL     1     -10.565  10.920  67.958  1.00  0.00    -0.239 A  
HETATM   20  C   UNL     1      -9.455  10.393  68.635  1.00  0.00    -0.167 A  
HETATM   21  C   UNL     1      -9.583   9.758  69.883  1.00  0.00    -0.269 A  
BRANCH  19  22
HETATM   22  C   UNL     1     -10.543  11.323  66.511  1.00  0.00    -0.315 A  
HETATM   23  C   UNL     1     -10.246  10.334  65.537  1.00  0.00    -0.308 A  
HETATM   24  C   UNL     1     -10.084  10.627  64.177  1.00  0.00    -0.402 A  
HETATM   25  C   UNL     1     -10.257  11.922  63.726  1.00  0.00    -0.442 A  
HETATM   26  C   UNL     1     -10.590  12.918  64.637  1.00  0.00    -0.384 A  
HETATM   27  C   UNL     1     -10.720  12.651  66.026  1.00  0.00    -0.295 A  
BRANCH  27  28
HETATM   28  C   UNL     1     -10.993  13.820  66.859  1.00  0.00    -0.290 A  
HETATM   29  N   UNL     1     -12.237  14.212  67.207  1.00  0.00    -0.359 NA 
HETATM   30  N   UNL     1     -11.951  15.312  67.918  1.00  0.00    -0.423 NA 
HETATM   31  H   UNL     1     -12.679  15.879  68.351  1.00  0.00     0.000 HD 
HETATM   32  N   UNL     1     -10.657  15.621  68.025  1.00  0.00    -0.263 NA 
HETATM   33  N   UNL     1     -10.032  14.689  67.319  1.00  0.00    -0.234 NA 
ENDBRANCH  27  28
ENDBRANCH  19  22
ENDBRANCH  15  16
ENDBRANCH  11  15
ENDBRANCH   4   5
ENDBRANCH   3   4
ENDBRANCH   2   3
TORSDOF 7
ENDMDL
MODEL       82
REMARK 921   NORMALIZED FREE ENERGY PREDICTED BY IDOCK:   -5.69 KCAL/MOL
REMARK 922        TOTAL FREE ENERGY PREDICTED BY IDOCK:   -9.97 KCAL/MOL
REMARK 923 INTER-LIGAND FREE ENERGY PREDICTED BY IDOCK:   -8.94 KCAL/MOL
REMARK 924 INTRA-LIGAND FREE ENERGY PREDICTED BY IDOCK:   -1.03 KCAL/MOL
REMARK 927      BINDING AFFINITY PREDICTED BY RF-SCORE:    0.00 PKD
ROOT
HETATM    1  C   UNL     1     -10.580  19.678  66.880  1.00  0.00    -0.603 C  
HETATM    2  C   UNL     1     -10.219  18.276  66.432  1.00  0.00    -0.417 C  
ENDROOT
BRANCH   2   3
HETATM    3  C   UNL     1     -10.345  17.278  67.579  1.00  0.00    -0.346 C  
BRANCH   3   4
HETATM    4  C   UNL     1      -9.495  16.034  67.345  1.00  0.00    -0.220 C  
BRANCH   4   5
HETATM    5  C   UNL     1     -10.320  14.951  66.709  1.00  0.00    -0.269 C  
HETATM    6  N   UNL     1     -10.434  14.916  65.415  1.00  0.00    -0.353 NA 
HETATM    7  C   UNL     1     -11.238  13.701  65.140  1.00  0.00    -0.310 C  
HETATM    8  C   UNL     1     -11.741  13.303  66.518  1.00  0.00    -0.377 C  
HETATM    9  C   UNL     1     -10.326  12.607  64.572  1.00  0.00    -0.369 C  
HETATM   10  O   UNL     1     -12.648  12.525  66.775  1.00  0.00    -0.115 OA 
HETATM   11  N   UNL     1     -10.960  13.995  67.408  1.00  0.00    -0.288 N  
HETATM   12  C   UNL     1     -11.234  11.851  63.615  1.00  0.00    -0.522 C  
HETATM   13  C   UNL     1     -12.037  12.963  62.959  1.00  0.00    -0.100 C  
HETATM   14  C   UNL     1     -12.313  13.961  64.086  1.00  0.00    -0.380 C  
BRANCH  11  15
HETATM   15  C   UNL     1     -11.026  13.748  68.846  1.00  0.00    -0.252 C  
BRANCH  15  16
HETATM   16  C   UNL     1     -10.756  12.295  69.194  1.00  0.00    -0.089 A  
HETATM   17  C   UNL     1      -9.582  11.663  68.789  1.00  0.00    -0.083 A  
HETATM   18  C   UNL     1      -9.448  10.270  68.877  1.00  0.00    -0.190 A  
HETATM   19  C   UNL     1     -10.452   9.455  69.438  1.00  0.00    -0.231 A  
HETATM   20  C   UNL     1     -11.521  10.135  70.039  1.00  0.00    -0.344 A  
HETATM   21  C   UNL     1     -11.705  11.520  69.873  1.00  0.00    -0.420 A  
BRANCH  19  22
HETATM   22  C   UNL     1     -10.378   7.959  69.320  1.00  0.00    -0.222 A  
HETATM   23  C   UNL     1     -10.713   7.360  68.078  1.00  0.00    -0.191 A  
HETATM   24  C   UNL     1     -10.791   5.973  67.897  1.00  0.00    -0.378 A  
HETATM   25  C   UNL     1     -10.493   5.123  68.945  1.00  0.00    -0.131 A  
HETATM   26  C   UNL     1     -10.118   5.664  70.170  1.00  0.00    -0.293 A  
HETATM   27  C   UNL     1     -10.071   7.066  70.387  1.00  0.00    -0.198 A  
BRANCH  27  28
HETATM   28  C   UNL     1      -9.739   7.471  71.752  1.00  0.00    -0.160 A  
HETATM   29  N   UNL     1     -10.393   7.020  72.843  1.00  0.00    -0.218 NA 
HETATM   30  N   UNL     1      -9.749   7.695  73.805  1.00  0.00    -0.350 NA 
HETATM   31  H   UNL     1      -9.989   7.591  74.790  1.00  0.00     0.000 HD 
HETATM   32  N   UNL     1      -8.775   8.511  73.396  1.00  0.00    -0.334 NA 
HETATM   33  N   UNL     1      -8.781   8.403  72.075  1.00  0.00    -0.185 NA 
ENDBRANCH  27  28
ENDBRANCH  19  22
ENDBRANCH  15  16
ENDBRANCH  11  15
ENDBRANCH   4   5
ENDBRANCH   3   4
ENDBRANCH   2   3
TORSDOF 7
ENDMDL
MODEL       83
REMARK 921   NORMALIZED FREE ENERGY PREDICTED BY IDOCK:   -5.69 KCAL/MOL
REMARK 922        TOTAL FREE ENERGY PREDICTED BY IDOCK:   -9.97 KCAL/MOL
REMARK 923 INTER-LIGAND FREE ENERGY PREDICTED BY IDOCK:   -8.83 KCAL/MOL
REMARK 924 INTRA-LIGAND FREE ENERGY PREDICTED BY IDOCK:   -1.14 KCAL/MOL
REMARK 927      BINDING AFFINITY PREDICTED BY RF-SCORE:    0.00 PKD
ROOT
HETATM    1  C   UNL     1     -11.134   5.312  73.199  1.00  0.00    -0.384 C  
HETATM    2  C   UNL     1     -10.464   6.563  72.668  1.00  0.00    -0.236 C  
ENDROOT
BRANCH   2   3
HETATM    3  C   UNL     1     -11.474   7.688  72.464  1.00  0.00    -0.405 C  
BRANCH   3   4
HETATM    4  C   UNL     1     -12.178   7.583  71.115  1.00  0.00    -0.330 C  
BRANCH   4   5
HETATM    5  C   UNL     1     -11.201   7.173  70.049  1.00  0.00    -0.238 C  
HETATM    6  N   UNL     1     -11.268   5.975  69.552  1.00  0.00    -0.403 NA 
HETATM    7  C   UNL     1     -10.226   5.946  68.497  1.00  0.00    -0.192 C  
HETATM    8  C   UNL     1      -9.446   7.225  68.749  1.00  0.00    -0.142 C  
HETATM    9  C   UNL     1     -10.897   5.994  67.120  1.00  0.00    -0.414 C  
HETATM   10  O   UNL     1      -8.343   7.514  68.310  1.00  0.00    -0.124 OA 
HETATM   11  N   UNL     1     -10.244   7.987  69.564  1.00  0.00    -0.205 N  
HETATM   12  C   UNL     1      -9.971   5.165  66.245  1.00  0.00    -0.232 C  
HETATM   13  C   UNL     1      -9.583   4.013  67.158  1.00  0.00    -0.231 C  
HETATM   14  C   UNL     1      -9.416   4.651  68.539  1.00  0.00    -0.206 C  
BRANCH  11  15
HETATM   15  C   UNL     1      -9.913   9.371  69.893  1.00  0.00    -0.212 C  
BRANCH  15  16
HETATM   16  C   UNL     1     -10.471  10.354  68.879  1.00  0.00    -0.232 A  
HETATM   17  C   UNL     1     -10.022  10.360  67.559  1.00  0.00    -0.215 A  
HETATM   18  C   UNL     1     -10.337  11.422  66.699  1.00  0.00    -0.272 A  
HETATM   19  C   UNL     1     -11.169  12.488  67.097  1.00  0.00    -0.352 A  
HETATM   20  C   UNL     1     -11.785  12.343  68.348  1.00  0.00    -0.386 A  
HETATM   21  C   UNL     1     -11.403  11.331  69.248  1.00  0.00    -0.354 A  
BRANCH  19  22
HETATM   22  C   UNL     1     -11.309  13.712  66.236  1.00  0.00    -0.325 A  
HETATM   23  C   UNL     1     -12.234  13.680  65.160  1.00  0.00    -0.461 A  
HETATM   24  C   UNL     1     -12.357  14.719  64.230  1.00  0.00    -0.345 A  
HETATM   25  C   UNL     1     -11.585  15.859  64.363  1.00  0.00    -0.234 A  
HETATM   26  C   UNL     1     -10.694  15.953  65.426  1.00  0.00    -0.415 A  
HETATM   27  C   UNL     1     -10.525  14.895  66.358  1.00  0.00    -0.301 A  
BRANCH  27  28
HETATM   28  C   UNL     1      -9.491  15.118  67.367  1.00  0.00    -0.204 A  
HETATM   29  N   UNL     1      -8.171  14.966  67.128  1.00  0.00    -0.208 NA 
HETATM   30  N   UNL     1      -7.674  15.245  68.341  1.00  0.00    -0.120 NA 
HETATM   31  H   UNL     1      -6.673  15.230  68.530  1.00  0.00     0.000 HD 
HETATM   32  N   UNL     1      -8.568  15.544  69.286  1.00  0.00    -0.251 NA 
HETATM   33  N   UNL     1      -9.743  15.431  68.682  1.00  0.00    -0.203 NA 
ENDBRANCH  27  28
ENDBRANCH  19  22
ENDBRANCH  15  16
ENDBRANCH  11  15
ENDBRANCH   4   5
ENDBRANCH   3   4
ENDBRANCH   2   3
TORSDOF 7
ENDMDL
MODEL       84
REMARK 921   NORMALIZED FREE ENERGY PREDICTED BY IDOCK:   -5.67 KCAL/MOL
REMARK 922        TOTAL FREE ENERGY PREDICTED BY IDOCK:   -9.93 KCAL/MOL
REMARK 923 INTER-LIGAND FREE ENERGY PREDICTED BY IDOCK:   -8.63 KCAL/MOL
REMARK 924 INTRA-LIGAND FREE ENERGY PREDICTED BY IDOCK:   -1.30 KCAL/MOL
REMARK 927      BINDING AFFINITY PREDICTED BY RF-SCORE:    0.00 PKD
ROOT
HETATM    1  C   UNL     1      -6.952   7.824  64.904  1.00  0.00    -0.055 C  
HETATM    2  C   UNL     1      -6.216   9.145  65.007  1.00  0.00    -0.065 C  
ENDROOT
BRANCH   2   3
HETATM    3  C   UNL     1      -7.189  10.315  65.112  1.00  0.00    -0.125 C  
BRANCH   3   4
HETATM    4  C   UNL     1      -7.296  10.839  66.539  1.00  0.00    -0.139 C  
BRANCH   4   5
HETATM    5  C   UNL     1      -8.668  11.398  66.788  1.00  0.00    -0.174 C  
HETATM    6  N   UNL     1      -8.791  12.625  67.197  1.00  0.00    -0.197 NA 
HETATM    7  C   UNL     1     -10.255  12.856  67.264  1.00  0.00    -0.234 C  
HETATM    8  C   UNL     1     -10.830  11.460  67.098  1.00  0.00    -0.268 C  
HETATM    9  C   UNL     1     -10.681  13.749  66.094  1.00  0.00    -0.283 C  
HETATM   10  O   UNL     1     -11.972  11.099  67.343  1.00  0.00    -0.532 OA 
HETATM   11  N   UNL     1      -9.802  10.694  66.609  1.00  0.00    -0.194 N  
HETATM   12  C   UNL     1     -11.834  14.557  66.667  1.00  0.00    -0.383 C  
HETATM   13  C   UNL     1     -11.361  14.869  68.078  1.00  0.00    -0.337 C  
HETATM   14  C   UNL     1     -10.652  13.595  68.541  1.00  0.00    -0.259 C  
BRANCH  11  15
HETATM   15  C   UNL     1     -10.011   9.321  66.156  1.00  0.00    -0.277 C  
BRANCH  15  16
HETATM   16  C   UNL     1      -9.943   8.322  67.297  1.00  0.00    -0.289 A  
HETATM   17  C   UNL     1     -10.722   7.165  67.289  1.00  0.00    -0.399 A  
HETATM   18  C   UNL     1     -10.859   6.384  68.446  1.00  0.00    -0.383 A  
HETATM   19  C   UNL     1     -10.170   6.684  69.638  1.00  0.00    -0.213 A  
HETATM   20  C   UNL     1      -9.226   7.716  69.552  1.00  0.00    -0.150 A  
HETATM   21  C   UNL     1      -9.151   8.558  68.427  1.00  0.00    -0.139 A  
BRANCH  19  22
HETATM   22  C   UNL     1     -10.503   5.964  70.915  1.00  0.00    -0.305 A  
HETATM   23  C   UNL     1      -9.786   4.781  71.232  1.00  0.00    -0.245 A  
HETATM   24  C   UNL     1     -10.096   3.973  72.333  1.00  0.00    -0.242 A  
HETATM   25  C   UNL     1     -11.115   4.340  73.192  1.00  0.00    -0.293 A  
HETATM   26  C   UNL     1     -11.819   5.514  72.946  1.00  0.00    -0.134 A  
HETATM   27  C   UNL     1     -11.547   6.327  71.814  1.00  0.00    -0.358 A  
BRANCH  27  28
HETATM   28  C   UNL     1     -12.429   7.482  71.654  1.00  0.00    -0.342 A  
HETATM   29  N   UNL     1     -13.721   7.385  71.272  1.00  0.00    -0.319 NA 
HETATM   30  N   UNL     1     -14.060   8.681  71.246  1.00  0.00    -0.602 NA 
HETATM   31  H   UNL     1     -14.999   8.988  70.994  1.00  0.00     0.000 HD 
HETATM   32  N   UNL     1     -13.096   9.547  71.570  1.00  0.00    -0.368 NA 
HETATM   33  N   UNL     1     -12.032   8.790  71.800  1.00  0.00    -0.324 NA 
ENDBRANCH  27  28
ENDBRANCH  19  22
ENDBRANCH  15  16
ENDBRANCH  11  15
ENDBRANCH   4   5
ENDBRANCH   3   4
ENDBRANCH   2   3
TORSDOF 7
ENDMDL
MODEL       85
REMARK 921   NORMALIZED FREE ENERGY PREDICTED BY IDOCK:   -5.67 KCAL/MOL
REMARK 922        TOTAL FREE ENERGY PREDICTED BY IDOCK:   -9.93 KCAL/MOL
REMARK 923 INTER-LIGAND FREE ENERGY PREDICTED BY IDOCK:   -9.04 KCAL/MOL
REMARK 924 INTRA-LIGAND FREE ENERGY PREDICTED BY IDOCK:   -0.89 KCAL/MOL
REMARK 927      BINDING AFFINITY PREDICTED BY RF-SCORE:    0.00 PKD
ROOT
HETATM    1  C   UNL     1     -12.402   6.947  71.196  1.00  0.00    -0.419 C  
HETATM    2  C   UNL     1     -11.209   7.241  70.310  1.00  0.00    -0.287 C  
ENDROOT
BRANCH   2   3
HETATM    3  C   UNL     1     -11.099   6.228  69.174  1.00  0.00    -0.457 C  
BRANCH   3   4
HETATM    4  C   UNL     1     -10.804   6.901  67.839  1.00  0.00    -0.287 C  
BRANCH   4   5
HETATM    5  C   UNL     1      -9.584   7.772  67.952  1.00  0.00    -0.146 C  
HETATM    6  N   UNL     1      -8.506   7.288  68.492  1.00  0.00    -0.125 NA 
HETATM    7  C   UNL     1      -7.504   8.375  68.370  1.00  0.00    -0.095 C  
HETATM    8  C   UNL     1      -8.341   9.569  67.943  1.00  0.00    -0.115 C  
HETATM    9  C   UNL     1      -6.495   8.014  67.274  1.00  0.00    -0.057 C  
HETATM   10  O   UNL     1      -8.014  10.746  67.969  1.00  0.00    -0.104 OA 
HETATM   11  N   UNL     1      -9.536   9.046  67.518  1.00  0.00    -0.140 N  
HETATM   12  C   UNL     1      -5.198   8.633  67.770  1.00  0.00    -0.035 C  
HETATM   13  C   UNL     1      -5.236   8.351  69.263  1.00  0.00    -0.031 C  
HETATM   14  C   UNL     1      -6.701   8.549  69.659  1.00  0.00    -0.040 C  
BRANCH  11  15
HETATM   15  C   UNL     1     -10.551   9.870  66.867  1.00  0.00    -0.178 C  
BRANCH  15  16
HETATM   16  C   UNL     1     -11.210  10.840  67.831  1.00  0.00    -0.386 A  
HETATM   17  C   UNL     1     -11.543  12.135  67.436  1.00  0.00    -0.410 A  
HETATM   18  C   UNL     1     -11.903  13.105  68.383  1.00  0.00    -0.386 A  
HETATM   19  C   UNL     1     -12.015  12.806  69.756  1.00  0.00    -0.362 A  
HETATM   20  C   UNL     1     -11.895  11.451  70.095  1.00  0.00    -0.440 A  
HETATM   21  C   UNL     1     -11.445  10.493  69.167  1.00  0.00    -0.314 A  
BRANCH  19  22
HETATM   22  C   UNL     1     -12.187  13.905  70.767  1.00  0.00    -0.441 A  
HETATM   23  C   UNL     1     -13.088  13.699  71.844  1.00  0.00    -0.476 A  
HETATM   24  C   UNL     1     -13.410  14.699  72.770  1.00  0.00    -0.593 A  
HETATM   25  C   UNL     1     -12.806  15.939  72.683  1.00  0.00    -0.548 A  
HETATM   26  C   UNL     1     -11.884  16.174  71.669  1.00  0.00    -0.557 A  
HETATM   27  C   UNL     1     -11.573  15.188  70.696  1.00  0.00    -0.351 A  
BRANCH  27  28
HETATM   28  C   UNL     1     -10.647  15.620  69.651  1.00  0.00    -0.283 A  
HETATM   29  N   UNL     1      -9.327  15.334  69.660  1.00  0.00    -0.209 NA 
HETATM   30  N   UNL     1      -8.938  15.963  68.543  1.00  0.00    -0.191 NA 
HETATM   31  H   UNL     1      -7.968  15.953  68.228  1.00  0.00     0.000 HD 
HETATM   32  N   UNL     1      -9.895  16.603  67.866  1.00  0.00    -0.243 NA 
HETATM   33  N   UNL     1     -10.992  16.420  68.587  1.00  0.00    -0.331 NA 
ENDBRANCH  27  28
ENDBRANCH  19  22
ENDBRANCH  15  16
ENDBRANCH  11  15
ENDBRANCH   4   5
ENDBRANCH   3   4
ENDBRANCH   2   3
TORSDOF 7
ENDMDL
MODEL       86
REMARK 921   NORMALIZED FREE ENERGY PREDICTED BY IDOCK:   -5.66 KCAL/MOL
REMARK 922        TOTAL FREE ENERGY PREDICTED BY IDOCK:   -9.93 KCAL/MOL
REMARK 923 INTER-LIGAND FREE ENERGY PREDICTED BY IDOCK:   -8.16 KCAL/MOL
REMARK 924 INTRA-LIGAND FREE ENERGY PREDICTED BY IDOCK:   -1.77 KCAL/MOL
REMARK 927      BINDING AFFINITY PREDICTED BY RF-SCORE:    0.00 PKD
ROOT
HETATM    1  C   UNL     1     -11.029  11.477  63.478  1.00  0.00    -0.453 C  
HETATM    2  C   UNL     1     -12.387  12.148  63.511  1.00  0.00    -0.682 C  
ENDROOT
BRANCH   2   3
HETATM    3  C   UNL     1     -12.689  12.721  64.893  1.00  0.00    -0.479 C  
BRANCH   3   4
HETATM    4  C   UNL     1     -12.001  14.063  65.114  1.00  0.00    -0.392 C  
BRANCH   4   5
HETATM    5  C   UNL     1     -11.519  14.174  66.533  1.00  0.00    -0.358 C  
HETATM    6  N   UNL     1     -12.230  14.837  67.396  1.00  0.00    -0.105 NA 
HETATM    7  C   UNL     1     -11.506  14.678  68.681  1.00  0.00    -0.300 C  
HETATM    8  C   UNL     1     -10.180  14.072  68.256  1.00  0.00    -0.249 C  
HETATM    9  C   UNL     1     -12.274  13.700  69.577  1.00  0.00    -0.316 C  
HETATM   10  O   UNL     1      -9.155  14.002  68.919  1.00  0.00    -0.095 OA 
HETATM   11  N   UNL     1     -10.376  13.618  66.976  1.00  0.00    -0.258 N  
HETATM   12  C   UNL     1     -12.008  14.222  70.980  1.00  0.00    -0.374 C  
HETATM   13  C   UNL     1     -12.087  15.729  70.802  1.00  0.00    -0.448 C  
HETATM   14  C   UNL     1     -11.424  15.996  69.449  1.00  0.00    -0.336 C  
BRANCH  11  15
HETATM   15  C   UNL     1      -9.374  12.815  66.281  1.00  0.00    -0.152 C  
BRANCH  15  16
HETATM   16  C   UNL     1      -9.436  11.349  66.673  1.00  0.00    -0.206 A  
HETATM   17  C   UNL     1     -10.610  10.785  67.170  1.00  0.00    -0.306 A  
HETATM   18  C   UNL     1     -10.599   9.519  67.773  1.00  0.00    -0.318 A  
HETATM   19  C   UNL     1      -9.432   8.733  67.843  1.00  0.00    -0.160 A  
HETATM   20  C   UNL     1      -8.324   9.226  67.140  1.00  0.00    -0.124 A  
HETATM   21  C   UNL     1      -8.302  10.531  66.614  1.00  0.00    -0.131 A  
BRANCH  19  22
HETATM   22  C   UNL     1      -9.398   7.486  68.682  1.00  0.00    -0.143 A  
HETATM   23  C   UNL     1     -10.323   6.449  68.391  1.00  0.00    -0.228 A  
HETATM   24  C   UNL     1     -10.455   5.302  69.182  1.00  0.00    -0.227 A  
HETATM   25  C   UNL     1      -9.632   5.122  70.279  1.00  0.00    -0.249 A  
HETATM   26  C   UNL     1      -8.682   6.092  70.579  1.00  0.00    -0.138 A  
HETATM   27  C   UNL     1      -8.558   7.281  69.814  1.00  0.00    -0.141 A  
BRANCH  27  28
HETATM   28  C   UNL     1      -7.567   8.236  70.309  1.00  0.00    -0.072 A  
HETATM   29  N   UNL     1      -7.874   9.282  71.106  1.00  0.00    -0.329 NA 
HETATM   30  N   UNL     1      -6.665   9.843  71.240  1.00  0.00    -0.322 NA 
HETATM   31  H   UNL     1      -6.518  10.682  71.800  1.00  0.00     0.000 HD 
HETATM   32  N   UNL     1      -5.663   9.238  70.597  1.00  0.00    -0.037 NA 
HETATM   33  N   UNL     1      -6.236   8.224  69.966  1.00  0.00    -0.034 NA 
ENDBRANCH  27  28
ENDBRANCH  19  22
ENDBRANCH  15  16
ENDBRANCH  11  15
ENDBRANCH   4   5
ENDBRANCH   3   4
ENDBRANCH   2   3
TORSDOF 7
ENDMDL
MODEL       87
REMARK 921   NORMALIZED FREE ENERGY PREDICTED BY IDOCK:   -5.57 KCAL/MOL
REMARK 922        TOTAL FREE ENERGY PREDICTED BY IDOCK:   -9.79 KCAL/MOL
REMARK 923 INTER-LIGAND FREE ENERGY PREDICTED BY IDOCK:   -8.15 KCAL/MOL
REMARK 924 INTRA-LIGAND FREE ENERGY PREDICTED BY IDOCK:   -1.64 KCAL/MOL
REMARK 927      BINDING AFFINITY PREDICTED BY RF-SCORE:    0.00 PKD
ROOT
HETATM    1  C   UNL     1      -8.578   4.660  65.553  1.00  0.00    -0.127 C  
HETATM    2  C   UNL     1      -7.442   5.409  66.220  1.00  0.00    -0.087 C  
ENDROOT
BRANCH   2   3
HETATM    3  C   UNL     1      -7.526   5.303  67.740  1.00  0.00    -0.076 C  
BRANCH   3   4
HETATM    4  C   UNL     1      -7.654   6.672  68.399  1.00  0.00    -0.104 C  
BRANCH   4   5
HETATM    5  C   UNL     1      -8.823   6.689  69.343  1.00  0.00    -0.134 C  
HETATM    6  N   UNL     1      -8.625   6.446  70.604  1.00  0.00    -0.138 NA 
HETATM    7  C   UNL     1      -9.958   6.617  71.234  1.00  0.00    -0.180 C  
HETATM    8  C   UNL     1     -10.894   6.703  70.040  1.00  0.00    -0.280 C  
HETATM    9  C   UNL     1      -9.980   7.931  72.022  1.00  0.00    -0.251 C  
HETATM   10  O   UNL     1     -12.110   6.584  70.047  1.00  0.00    -0.282 OA 
HETATM   11  N   UNL     1     -10.087   6.947  68.957  1.00  0.00    -0.165 N  
HETATM   12  C   UNL     1     -10.902   7.626  73.192  1.00  0.00    -0.440 C  
HETATM   13  C   UNL     1     -10.510   6.208  73.572  1.00  0.00    -0.279 C  
HETATM   14  C   UNL     1     -10.255   5.504  72.238  1.00  0.00    -0.244 C  
BRANCH  11  15
HETATM   15  C   UNL     1     -10.637   7.264  67.642  1.00  0.00    -0.246 C  
BRANCH  15  16
HETATM   16  C   UNL     1     -10.504   8.738  67.302  1.00  0.00    -0.353 A  
HETATM   17  C   UNL     1     -11.057   9.720  68.122  1.00  0.00    -0.169 A  
HETATM   18  C   UNL     1     -11.164  11.047  67.682  1.00  0.00    -0.373 A  
HETATM   19  C   UNL     1     -10.662  11.465  66.433  1.00  0.00    -0.325 A  
HETATM   20  C   UNL     1      -9.914  10.511  65.728  1.00  0.00    -0.318 A  
HETATM   21  C   UNL     1      -9.882   9.160  66.120  1.00  0.00    -0.363 A  
BRANCH  19  22
HETATM   22  C   UNL     1     -10.983  12.832  65.898  1.00  0.00    -0.303 A  
HETATM   23  C   UNL     1     -11.915  12.940  64.832  1.00  0.00    -0.437 A  
HETATM   24  C   UNL     1     -12.194  14.149  64.184  1.00  0.00    -0.423 A  
HETATM   25  C   UNL     1     -11.583  15.315  64.605  1.00  0.00    -0.333 A  
HETATM   26  C   UNL     1     -10.693  15.266  65.673  1.00  0.00    -0.376 A  
HETATM   27  C   UNL     1     -10.365  14.045  66.319  1.00  0.00    -0.294 A  
BRANCH  27  28
HETATM   28  C   UNL     1      -9.354  14.151  67.369  1.00  0.00    -0.215 A  
HETATM   29  N   UNL     1      -9.649  14.208  68.685  1.00  0.00    -0.207 NA 
HETATM   30  N   UNL     1      -8.419  14.331  69.201  1.00  0.00    -0.359 NA 
HETATM   31  H   UNL     1      -8.259  14.398  70.206  1.00  0.00     0.000 HD 
HETATM   32  N   UNL     1      -7.414  14.359  68.323  1.00  0.00    -0.112 NA 
HETATM   33  N   UNL     1      -8.004  14.280  67.138  1.00  0.00    -0.159 NA 
ENDBRANCH  27  28
ENDBRANCH  19  22
ENDBRANCH  15  16
ENDBRANCH  11  15
ENDBRANCH   4   5
ENDBRANCH   3   4
ENDBRANCH   2   3
TORSDOF 7
ENDMDL
MODEL       88
REMARK 921   NORMALIZED FREE ENERGY PREDICTED BY IDOCK:   -5.56 KCAL/MOL
REMARK 922        TOTAL FREE ENERGY PREDICTED BY IDOCK:   -9.78 KCAL/MOL
REMARK 923 INTER-LIGAND FREE ENERGY PREDICTED BY IDOCK:   -8.26 KCAL/MOL
REMARK 924 INTRA-LIGAND FREE ENERGY PREDICTED BY IDOCK:   -1.53 KCAL/MOL
REMARK 927      BINDING AFFINITY PREDICTED BY RF-SCORE:    0.00 PKD
ROOT
HETATM    1  C   UNL     1      -7.888   9.023  66.170  1.00  0.00    -0.102 C  
HETATM    2  C   UNL     1      -8.524   7.840  66.870  1.00  0.00    -0.125 C  
ENDROOT
BRANCH   2   3
HETATM    3  C   UNL     1     -10.047   7.931  66.840  1.00  0.00    -0.362 C  
BRANCH   3   4
HETATM    4  C   UNL     1     -10.690   7.044  67.900  1.00  0.00    -0.274 C  
BRANCH   4   5
HETATM    5  C   UNL     1     -10.262   7.479  69.274  1.00  0.00    -0.201 C  
HETATM    6  N   UNL     1      -9.306   6.837  69.875  1.00  0.00    -0.157 NA 
HETATM    7  C   UNL     1      -9.103   7.570  71.148  1.00  0.00    -0.147 C  
HETATM    8  C   UNL     1     -10.302   8.501  71.204  1.00  0.00    -0.215 C  
HETATM    9  C   UNL     1      -7.805   8.380  71.065  1.00  0.00    -0.106 C  
HETATM   10  O   UNL     1     -10.716   9.112  72.178  1.00  0.00    -0.288 OA 
HETATM   11  N   UNL     1     -10.817   8.514  69.932  1.00  0.00    -0.230 N  
HETATM   12  C   UNL     1      -7.284   8.363  72.493  1.00  0.00    -0.114 C  
HETATM   13  C   UNL     1      -7.581   6.943  72.945  1.00  0.00    -0.085 C  
HETATM   14  C   UNL     1      -8.943   6.615  72.330  1.00  0.00    -0.134 C  
BRANCH  11  15
HETATM   15  C   UNL     1     -11.884   9.432  69.542  1.00  0.00     0.549 C  
BRANCH  15  16
HETATM   16  C   UNL     1     -11.347  10.776  69.080  1.00  0.00    -0.349 A  
HETATM   17  C   UNL     1     -11.861  11.969  69.584  1.00  0.00    -0.401 A  
HETATM   18  C   UNL     1     -11.558  13.196  68.976  1.00  0.00    -0.360 A  
HETATM   19  C   UNL     1     -10.674  13.291  67.882  1.00  0.00    -0.252 A  
HETATM   20  C   UNL     1     -10.000  12.110  67.540  1.00  0.00    -0.202 A  
HETATM   21  C   UNL     1     -10.367  10.865  68.084  1.00  0.00    -0.202 A  
BRANCH  19  22
HETATM   22  C   UNL     1     -10.539  14.578  67.117  1.00  0.00    -0.274 A  
HETATM   23  C   UNL     1      -9.990  15.706  67.781  1.00  0.00    -0.223 A  
HETATM   24  C   UNL     1      -9.931  16.978  67.200  1.00  0.00    -0.281 A  
HETATM   25  C   UNL     1     -10.380  17.167  65.906  1.00  0.00    -0.294 A  
HETATM   26  C   UNL     1     -10.888  16.082  65.201  1.00  0.00    -0.411 A  
HETATM   27  C   UNL     1     -10.994  14.792  65.784  1.00  0.00    -0.334 A  
BRANCH  27  28
HETATM   28  C   UNL     1     -11.624  13.779  64.939  1.00  0.00    -0.351 A  
HETATM   29  N   UNL     1     -12.899  13.365  65.097  1.00  0.00    -0.716 NA 
HETATM   30  N   UNL     1     -12.972  12.440  64.131  1.00  0.00    -0.753 NA 
HETATM   31  H   UNL     1     -13.824  11.909  63.955  1.00  0.00     0.000 HD 
HETATM   32  N   UNL     1     -11.863  12.255  63.411  1.00  0.00    -0.480 NA 
HETATM   33  N   UNL     1     -10.977  13.085  63.944  1.00  0.00    -0.383 NA 
ENDBRANCH  27  28
ENDBRANCH  19  22
ENDBRANCH  15  16
ENDBRANCH  11  15
ENDBRANCH   4   5
ENDBRANCH   3   4
ENDBRANCH   2   3
TORSDOF 7
ENDMDL
MODEL       89
REMARK 921   NORMALIZED FREE ENERGY PREDICTED BY IDOCK:   -5.55 KCAL/MOL
REMARK 922        TOTAL FREE ENERGY PREDICTED BY IDOCK:   -9.76 KCAL/MOL
REMARK 923 INTER-LIGAND FREE ENERGY PREDICTED BY IDOCK:   -8.06 KCAL/MOL
REMARK 924 INTRA-LIGAND FREE ENERGY PREDICTED BY IDOCK:   -1.70 KCAL/MOL
REMARK 927      BINDING AFFINITY PREDICTED BY RF-SCORE:    0.00 PKD
ROOT
HETATM    1  C   UNL     1      -9.097   5.860  66.519  1.00  0.00    -0.149 C  
HETATM    2  C   UNL     1     -10.455   5.467  67.065  1.00  0.00    -0.336 C  
ENDROOT
BRANCH   2   3
HETATM    3  C   UNL     1     -11.075   6.601  67.877  1.00  0.00    -0.310 C  
BRANCH   3   4
HETATM    4  C   UNL     1     -11.238   6.225  69.345  1.00  0.00    -0.489 C  
BRANCH   4   5
HETATM    5  C   UNL     1     -10.106   6.789  70.157  1.00  0.00    -0.178 C  
HETATM    6  N   UNL     1      -8.985   6.135  70.226  1.00  0.00    -0.151 NA 
HETATM    7  C   UNL     1      -8.091   7.004  71.030  1.00  0.00    -0.105 C  
HETATM    8  C   UNL     1      -9.039   8.054  71.583  1.00  0.00    -0.150 C  
HETATM    9  C   UNL     1      -7.055   7.656  70.107  1.00  0.00    -0.059 C  
HETATM   10  O   UNL     1      -8.825   8.827  72.505  1.00  0.00    -0.402 OA 
HETATM   11  N   UNL     1     -10.180   7.954  70.828  1.00  0.00    -0.194 N  
HETATM   12  C   UNL     1      -5.821   7.773  70.988  1.00  0.00    -0.034 C  
HETATM   13  C   UNL     1      -5.829   6.463  71.758  1.00  0.00    -0.036 C  
HETATM   14  C   UNL     1      -7.305   6.200  72.065  1.00  0.00    -0.093 C  
BRANCH  11  15
HETATM   15  C   UNL     1     -11.270   8.919  70.946  1.00  0.00    -0.279 C  
BRANCH  15  16
HETATM   16  C   UNL     1     -11.110  10.088  69.990  1.00  0.00    -0.350 A  
HETATM   17  C   UNL     1     -11.862  11.252  70.142  1.00  0.00    -0.449 A  
HETATM   18  C   UNL     1     -11.909  12.215  69.124  1.00  0.00    -0.361 A  
HETATM   19  C   UNL     1     -11.155  12.091  67.940  1.00  0.00    -0.289 A  
HETATM   20  C   UNL     1     -10.240  11.029  67.910  1.00  0.00    -0.207 A  
HETATM   21  C   UNL     1     -10.254  10.013  68.884  1.00  0.00    -0.206 A  
BRANCH  19  22
HETATM   22  C   UNL     1     -11.391  13.019  66.781  1.00  0.00    -0.365 A  
HETATM   23  C   UNL     1     -12.271  12.602  65.749  1.00  0.00    -0.427 A  
HETATM   24  C   UNL     1     -12.468  13.335  64.572  1.00  0.00    -0.381 A  
HETATM   25  C   UNL     1     -11.823  14.545  64.398  1.00  0.00    -0.419 A  
HETATM   26  C   UNL     1     -10.983  15.015  65.402  1.00  0.00    -0.380 A  
HETATM   27  C   UNL     1     -10.738  14.269  66.585  1.00  0.00    -0.290 A  
BRANCH  27  28
HETATM   28  C   UNL     1      -9.768  14.864  67.503  1.00  0.00    -0.212 A  
HETATM   29  N   UNL     1     -10.100  15.746  68.469  1.00  0.00    -0.212 NA 
HETATM   30  N   UNL     1      -8.891  16.001  68.987  1.00  0.00    -0.233 NA 
HETATM   31  H   UNL     1      -8.763  16.645  69.767  1.00  0.00     0.000 HD 
HETATM   32  N   UNL     1      -7.864  15.361  68.422  1.00  0.00    -0.125 NA 
HETATM   33  N   UNL     1      -8.410  14.654  67.443  1.00  0.00    -0.192 NA 
ENDBRANCH  27  28
ENDBRANCH  19  22
ENDBRANCH  15  16
ENDBRANCH  11  15
ENDBRANCH   4   5
ENDBRANCH   3   4
ENDBRANCH   2   3
TORSDOF 7
ENDMDL
MODEL       90
REMARK 921   NORMALIZED FREE ENERGY PREDICTED BY IDOCK:   -5.52 KCAL/MOL
REMARK 922        TOTAL FREE ENERGY PREDICTED BY IDOCK:   -9.72 KCAL/MOL
REMARK 923 INTER-LIGAND FREE ENERGY PREDICTED BY IDOCK:   -8.42 KCAL/MOL
REMARK 924 INTRA-LIGAND FREE ENERGY PREDICTED BY IDOCK:   -1.30 KCAL/MOL
REMARK 927      BINDING AFFINITY PREDICTED BY RF-SCORE:    0.00 PKD
ROOT
HETATM    1  C   UNL     1     -11.444   6.972  70.102  1.00  0.00    -0.302 C  
HETATM    2  C   UNL     1     -10.378   6.067  69.517  1.00  0.00    -0.295 C  
ENDROOT
BRANCH   2   3
HETATM    3  C   UNL     1      -9.469   6.830  68.558  1.00  0.00    -0.131 C  
BRANCH   3   4
HETATM    4  C   UNL     1      -9.000   8.154  69.152  1.00  0.00    -0.144 C  
BRANCH   4   5
HETATM    5  C   UNL     1      -8.536   9.079  68.062  1.00  0.00    -0.129 C  
HETATM    6  N   UNL     1      -7.262   9.251  67.874  1.00  0.00    -0.079 NA 
HETATM    7  C   UNL     1      -7.174  10.148  66.696  1.00  0.00    -0.105 C  
HETATM    8  C   UNL     1      -8.607  10.618  66.513  1.00  0.00    -0.142 C  
HETATM    9  C   UNL     1      -6.719   9.340  65.476  1.00  0.00    -0.073 C  
HETATM   10  O   UNL     1      -8.993  11.564  65.844  1.00  0.00    -0.204 OA 
HETATM   11  N   UNL     1      -9.374   9.752  67.252  1.00  0.00    -0.137 N  
HETATM   12  C   UNL     1      -5.899  10.339  64.675  1.00  0.00    -0.133 C  
HETATM   13  C   UNL     1      -5.134  11.090  65.752  1.00  0.00    -0.124 C  
HETATM   14  C   UNL     1      -6.132  11.247  66.901  1.00  0.00    -0.120 C  
BRANCH  11  15
HETATM   15  C   UNL     1     -10.833   9.773  67.193  1.00  0.00    -0.136 C  
BRANCH  15  16
HETATM   16  C   UNL     1     -11.435  10.776  68.161  1.00  0.00    -0.346 A  
HETATM   17  C   UNL     1     -11.805  12.052  67.740  1.00  0.00    -0.308 A  
HETATM   18  C   UNL     1     -12.110  13.056  68.671  1.00  0.00    -0.189 A  
HETATM   19  C   UNL     1     -12.126  12.810  70.058  1.00  0.00    -0.355 A  
HETATM   20  C   UNL     1     -11.971  11.470  70.441  1.00  0.00    -0.459 A  
HETATM   21  C   UNL     1     -11.575  10.480  69.523  1.00  0.00    -0.332 A  
BRANCH  19  22
HETATM   22  C   UNL     1     -12.239  13.947  71.035  1.00  0.00    -0.421 A  
HETATM   23  C   UNL     1     -13.121  13.806  72.138  1.00  0.00    -0.497 A  
HETATM   24  C   UNL     1     -13.389  14.846  73.037  1.00  0.00    -0.556 A  
HETATM   25  C   UNL     1     -12.749  16.063  72.895  1.00  0.00    -0.563 A  
HETATM   26  C   UNL     1     -11.844  16.234  71.853  1.00  0.00    -0.538 A  
HETATM   27  C   UNL     1     -11.587  15.207  70.907  1.00  0.00    -0.380 A  
BRANCH  27  28
HETATM   28  C   UNL     1     -10.672  15.574  69.827  1.00  0.00    -0.295 A  
HETATM   29  N   UNL     1      -9.361  15.252  69.820  1.00  0.00    -0.164 NA 
HETATM   30  N   UNL     1      -8.980  15.828  68.672  1.00  0.00    -0.192 NA 
HETATM   31  H   UNL     1      -8.018  15.780  68.338  1.00  0.00     0.000 HD 
HETATM   32  N   UNL     1      -9.933  16.469  67.992  1.00  0.00    -0.239 NA 
HETATM   33  N   UNL     1     -11.019  16.343  68.741  1.00  0.00    -0.332 NA 
ENDBRANCH  27  28
ENDBRANCH  19  22
ENDBRANCH  15  16
ENDBRANCH  11  15
ENDBRANCH   4   5
ENDBRANCH   3   4
ENDBRANCH   2   3
TORSDOF 7
ENDMDL
MODEL       91
REMARK 921   NORMALIZED FREE ENERGY PREDICTED BY IDOCK:   -5.51 KCAL/MOL
REMARK 922        TOTAL FREE ENERGY PREDICTED BY IDOCK:   -9.71 KCAL/MOL
REMARK 923 INTER-LIGAND FREE ENERGY PREDICTED BY IDOCK:   -8.00 KCAL/MOL
REMARK 924 INTRA-LIGAND FREE ENERGY PREDICTED BY IDOCK:   -1.72 KCAL/MOL
REMARK 927      BINDING AFFINITY PREDICTED BY RF-SCORE:    0.00 PKD
ROOT
HETATM    1  C   UNL     1     -12.748  11.955  63.825  1.00  0.00    -0.466 C  
HETATM    2  C   UNL     1     -11.235  11.924  63.733  1.00  0.00    -0.519 C  
ENDROOT
BRANCH   2   3
HETATM    3  C   UNL     1     -10.635  13.301  63.997  1.00  0.00    -0.217 C  
BRANCH   3   4
HETATM    4  C   UNL     1     -11.464  14.100  64.996  1.00  0.00    -0.352 C  
BRANCH   4   5
HETATM    5  C   UNL     1     -10.565  14.890  65.905  1.00  0.00    -0.325 C  
HETATM    6  N   UNL     1      -9.980  15.958  65.450  1.00  0.00    -0.440 NA 
HETATM    7  C   UNL     1      -9.248  16.511  66.616  1.00  0.00    -0.250 C  
HETATM    8  C   UNL     1      -9.335  15.393  67.640  1.00  0.00    -0.203 C  
HETATM    9  C   UNL     1      -9.978  17.758  67.127  1.00  0.00    -0.322 C  
HETATM   10  O   UNL     1      -8.666  15.269  68.655  1.00  0.00    -0.164 OA 
HETATM   11  N   UNL     1     -10.324  14.557  67.188  1.00  0.00    -0.264 N  
HETATM   12  C   UNL     1      -8.853  18.641  67.641  1.00  0.00    -0.292 C  
HETATM   13  C   UNL     1      -7.764  18.445  66.600  1.00  0.00    -0.258 C  
HETATM   14  C   UNL     1      -7.838  16.961  66.235  1.00  0.00    -0.346 C  
BRANCH  11  15
HETATM   15  C   UNL     1     -10.824  13.446  67.994  1.00  0.00    -0.247 C  
BRANCH  15  16
HETATM   16  C   UNL     1     -10.327  12.101  67.493  1.00  0.00    -0.219 A  
HETATM   17  C   UNL     1     -11.217  11.081  67.164  1.00  0.00    -0.290 A  
HETATM   18  C   UNL     1     -10.764   9.770  66.957  1.00  0.00    -0.236 A  
HETATM   19  C   UNL     1      -9.395   9.436  67.001  1.00  0.00    -0.185 A  
HETATM   20  C   UNL     1      -8.509  10.516  67.111  1.00  0.00    -0.127 A  
HETATM   21  C   UNL     1      -8.959  11.815  67.409  1.00  0.00    -0.173 A  
BRANCH  19  22
HETATM   22  C   UNL     1      -8.959   7.998  66.994  1.00  0.00    -0.156 A  
HETATM   23  C   UNL     1      -8.167   7.536  65.910  1.00  0.00    -0.134 A  
HETATM   24  C   UNL     1      -7.808   6.192  65.747  1.00  0.00    -0.105 A  
HETATM   25  C   UNL     1      -8.191   5.256  66.689  1.00  0.00    -0.108 A  
HETATM   26  C   UNL     1      -8.933   5.669  67.791  1.00  0.00    -0.107 A  
HETATM   27  C   UNL     1      -9.341   7.019  67.956  1.00  0.00    -0.127 A  
BRANCH  27  28
HETATM   28  C   UNL     1     -10.184   7.273  69.123  1.00  0.00    -0.197 A  
HETATM   29  N   UNL     1     -11.329   6.603  69.376  1.00  0.00    -0.299 NA 
HETATM   30  N   UNL     1     -11.721   7.215  70.502  1.00  0.00    -0.451 NA 
HETATM   31  H   UNL     1     -12.576   6.951  70.990  1.00  0.00     0.000 HD 
HETATM   32  N   UNL     1     -10.925   8.190  70.947  1.00  0.00    -0.238 NA 
HETATM   33  N   UNL     1      -9.952   8.262  70.050  1.00  0.00    -0.186 NA 
ENDBRANCH  27  28
ENDBRANCH  19  22
ENDBRANCH  15  16
ENDBRANCH  11  15
ENDBRANCH   4   5
ENDBRANCH   3   4
ENDBRANCH   2   3
TORSDOF 7
ENDMDL
MODEL       92
REMARK 921   NORMALIZED FREE ENERGY PREDICTED BY IDOCK:   -5.49 KCAL/MOL
REMARK 922        TOTAL FREE ENERGY PREDICTED BY IDOCK:   -9.68 KCAL/MOL
REMARK 923 INTER-LIGAND FREE ENERGY PREDICTED BY IDOCK:   -8.55 KCAL/MOL
REMARK 924 INTRA-LIGAND FREE ENERGY PREDICTED BY IDOCK:   -1.13 KCAL/MOL
REMARK 927      BINDING AFFINITY PREDICTED BY RF-SCORE:    0.00 PKD
ROOT
HETATM    1  C   UNL     1     -10.753   5.315  73.744  1.00  0.00    -0.343 C  
HETATM    2  C   UNL     1     -11.368   5.932  72.504  1.00  0.00    -0.352 C  
ENDROOT
BRANCH   2   3
HETATM    3  C   UNL     1     -10.447   6.984  71.893  1.00  0.00    -0.223 C  
BRANCH   3   4
HETATM    4  C   UNL     1     -10.648   7.110  70.387  1.00  0.00    -0.242 C  
BRANCH   4   5
HETATM    5  C   UNL     1      -9.798   6.105  69.662  1.00  0.00    -0.161 C  
HETATM    6  N   UNL     1     -10.219   4.881  69.547  1.00  0.00    -0.222 NA 
HETATM    7  C   UNL     1      -9.185   4.202  68.729  1.00  0.00    -0.146 C  
HETATM    8  C   UNL     1      -8.050   5.213  68.701  1.00  0.00    -0.086 C  
HETATM    9  C   UNL     1      -9.728   3.974  67.313  1.00  0.00    -0.199 C  
HETATM   10  O   UNL     1      -6.890   5.010  68.376  1.00  0.00    -0.053 OA 
HETATM   11  N   UNL     1      -8.605   6.399  69.112  1.00  0.00    -0.124 N  
HETATM   12  C   UNL     1      -9.071   2.671  66.888  1.00  0.00    -0.161 C  
HETATM   13  C   UNL     1      -9.125   1.834  68.155  1.00  0.00    -0.199 C  
HETATM   14  C   UNL     1      -8.838   2.823  69.287  1.00  0.00    -0.152 C  
BRANCH  11  15
HETATM   15  C   UNL     1      -7.864   7.657  69.055  1.00  0.00    -0.119 C  
BRANCH  15  16
HETATM   16  C   UNL     1      -8.435   8.615  68.024  1.00  0.00    -0.127 A  
HETATM   17  C   UNL     1      -8.136   9.975  68.062  1.00  0.00    -0.112 A  
HETATM   18  C   UNL     1      -8.860  10.892  67.285  1.00  0.00    -0.134 A  
HETATM   19  C   UNL     1      -9.865  10.482  66.387  1.00  0.00    -0.260 A  
HETATM   20  C   UNL     1      -9.990   9.098  66.204  1.00  0.00    -0.338 A  
HETATM   21  C   UNL     1      -9.334   8.179  67.044  1.00  0.00    -0.197 A  
BRANCH  19  22
HETATM   22  C   UNL     1     -10.768  11.493  65.736  1.00  0.00    -0.325 A  
HETATM   23  C   UNL     1     -10.777  11.578  64.319  1.00  0.00    -0.416 A  
HETATM   24  C   UNL     1     -11.489  12.560  63.620  1.00  0.00    -0.568 A  
HETATM   25  C   UNL     1     -12.261  13.476  64.310  1.00  0.00    -0.450 A  
HETATM   26  C   UNL     1     -12.316  13.406  65.698  1.00  0.00    -0.521 A  
HETATM   27  C   UNL     1     -11.571  12.443  66.429  1.00  0.00    -0.442 A  
BRANCH  27  28
HETATM   28  C   UNL     1     -11.674  12.554  67.883  1.00  0.00    -0.359 A  
HETATM   29  N   UNL     1     -11.195  13.603  68.586  1.00  0.00    -0.261 NA 
HETATM   30  N   UNL     1     -11.501  13.216  69.832  1.00  0.00    -0.508 NA 
HETATM   31  H   UNL     1     -11.281  13.790  70.645  1.00  0.00     0.000 HD 
HETATM   32  N   UNL     1     -12.112  12.034  69.946  1.00  0.00    -0.290 NA 
HETATM   33  N   UNL     1     -12.197  11.582  68.703  1.00  0.00    -0.461 NA 
ENDBRANCH  27  28
ENDBRANCH  19  22
ENDBRANCH  15  16
ENDBRANCH  11  15
ENDBRANCH   4   5
ENDBRANCH   3   4
ENDBRANCH   2   3
TORSDOF 7
ENDMDL
MODEL       93
REMARK 921   NORMALIZED FREE ENERGY PREDICTED BY IDOCK:   -5.46 KCAL/MOL
REMARK 922        TOTAL FREE ENERGY PREDICTED BY IDOCK:   -9.64 KCAL/MOL
REMARK 923 INTER-LIGAND FREE ENERGY PREDICTED BY IDOCK:   -8.53 KCAL/MOL
REMARK 924 INTRA-LIGAND FREE ENERGY PREDICTED BY IDOCK:   -1.11 KCAL/MOL
REMARK 927      BINDING AFFINITY PREDICTED BY RF-SCORE:    0.00 PKD
ROOT
HETATM    1  C   UNL     1      -8.355  16.047  66.332  1.00  0.00    -0.344 C  
HETATM    2  C   UNL     1      -9.587  15.187  66.532  1.00  0.00    -0.293 C  
ENDROOT
BRANCH   2   3
HETATM    3  C   UNL     1      -9.693  14.697  67.973  1.00  0.00    -0.216 C  
BRANCH   3   4
HETATM    4  C   UNL     1     -10.664  13.529  68.105  1.00  0.00    -0.265 C  
BRANCH   4   5
HETATM    5  C   UNL     1     -11.431  13.632  69.394  1.00  0.00    -0.286 C  
HETATM    6  N   UNL     1     -11.365  14.729  70.087  1.00  0.00    -0.258 NA 
HETATM    7  C   UNL     1     -12.283  14.508  71.231  1.00  0.00    -0.355 C  
HETATM    8  C   UNL     1     -12.589  13.022  71.143  1.00  0.00    -0.297 C  
HETATM    9  C   UNL     1     -13.561  15.327  71.021  1.00  0.00    -0.486 C  
HETATM   10  O   UNL     1     -13.086  12.319  72.011  1.00  0.00    -0.435 OA 
HETATM   11  N   UNL     1     -12.197  12.640  69.885  1.00  0.00    -0.221 N  
HETATM   12  C   UNL     1     -13.975  15.706  72.434  1.00  0.00    -0.602 C  
HETATM   13  C   UNL     1     -12.648  16.026  73.102  1.00  0.00    -0.625 C  
HETATM   14  C   UNL     1     -11.671  14.987  72.546  1.00  0.00    -0.398 C  
BRANCH  11  15
HETATM   15  C   UNL     1     -12.488  11.309  69.358  1.00  0.00    -0.008 C  
BRANCH  15  16
HETATM   16  C   UNL     1     -11.291  10.380  69.447  1.00  0.00    -0.310 A  
HETATM   17  C   UNL     1     -10.782   9.749  68.313  1.00  0.00    -0.277 A  
HETATM   18  C   UNL     1      -9.858   8.700  68.427  1.00  0.00    -0.189 A  
HETATM   19  C   UNL     1      -9.350   8.283  69.674  1.00  0.00    -0.158 A  
HETATM   20  C   UNL     1      -9.705   9.079  70.772  1.00  0.00    -0.306 A  
HETATM   21  C   UNL     1     -10.699  10.070  70.677  1.00  0.00    -0.325 A  
BRANCH  19  22
HETATM   22  C   UNL     1      -8.536   7.024  69.786  1.00  0.00    -0.141 A  
HETATM   23  C   UNL     1      -7.529   6.781  68.816  1.00  0.00    -0.096 A  
HETATM   24  C   UNL     1      -6.798   5.588  68.760  1.00  0.00    -0.059 A  
HETATM   25  C   UNL     1      -7.014   4.601  69.703  1.00  0.00    -0.049 A  
HETATM   26  C   UNL     1      -7.963   4.812  70.699  1.00  0.00    -0.073 A  
HETATM   27  C   UNL     1      -8.743   5.997  70.751  1.00  0.00    -0.135 A  
BRANCH  27  28
HETATM   28  C   UNL     1      -9.751   6.029  71.809  1.00  0.00    -0.151 A  
HETATM   29  N   UNL     1     -11.059   5.768  71.599  1.00  0.00    -0.254 NA 
HETATM   30  N   UNL     1     -11.542   5.957  72.835  1.00  0.00    -0.504 NA 
HETATM   31  H   UNL     1     -12.531   5.838  73.052  1.00  0.00     0.000 HD 
HETATM   32  N   UNL     1     -10.652   6.312  73.765  1.00  0.00    -0.275 NA 
HETATM   33  N   UNL     1      -9.502   6.396  73.110  1.00  0.00    -0.138 NA 
ENDBRANCH  27  28
ENDBRANCH  19  22
ENDBRANCH  15  16
ENDBRANCH  11  15
ENDBRANCH   4   5
ENDBRANCH   3   4
ENDBRANCH   2   3
TORSDOF 7
ENDMDL
MODEL       94
REMARK 921   NORMALIZED FREE ENERGY PREDICTED BY IDOCK:   -5.46 KCAL/MOL
REMARK 922        TOTAL FREE ENERGY PREDICTED BY IDOCK:   -9.64 KCAL/MOL
REMARK 923 INTER-LIGAND FREE ENERGY PREDICTED BY IDOCK:   -8.74 KCAL/MOL
REMARK 924 INTRA-LIGAND FREE ENERGY PREDICTED BY IDOCK:   -0.89 KCAL/MOL
REMARK 927      BINDING AFFINITY PREDICTED BY RF-SCORE:    0.00 PKD
ROOT
HETATM    1  C   UNL     1      -8.338  18.129  66.829  1.00  0.00    -0.270 C  
HETATM    2  C   UNL     1      -9.524  18.770  67.521  1.00  0.00    -0.326 C  
ENDROOT
BRANCH   2   3
HETATM    3  C   UNL     1     -10.120  17.841  68.574  1.00  0.00    -0.377 C  
BRANCH   3   4
HETATM    4  C   UNL     1     -10.838  16.653  67.943  1.00  0.00    -0.321 C  
BRANCH   4   5
HETATM    5  C   UNL     1     -11.422  15.770  69.010  1.00  0.00    -0.391 C  
HETATM    6  N   UNL     1     -11.496  16.212  70.230  1.00  0.00    -0.343 NA 
HETATM    7  C   UNL     1     -12.178  15.129  70.981  1.00  0.00    -0.334 C  
HETATM    8  C   UNL     1     -12.171  13.971  69.998  1.00  0.00    -0.352 C  
HETATM    9  C   UNL     1     -13.618  15.556  71.289  1.00  0.00    -0.520 C  
HETATM   10  O   UNL     1     -12.382  12.793  70.245  1.00  0.00    -0.287 OA 
HETATM   11  N   UNL     1     -11.885  14.528  68.777  1.00  0.00    -0.319 N  
HETATM   12  C   UNL     1     -13.903  14.899  72.630  1.00  0.00    -0.516 C  
HETATM   13  C   UNL     1     -12.595  15.082  73.382  1.00  0.00    -0.641 C  
HETATM   14  C   UNL     1     -11.507  14.867  72.328  1.00  0.00    -0.159 C  
BRANCH  11  15
HETATM   15  C   UNL     1     -11.957  13.753  67.540  1.00  0.00    -0.376 C  
BRANCH  15  16
HETATM   16  C   UNL     1     -11.000  12.574  67.543  1.00  0.00    -0.288 A  
HETATM   17  C   UNL     1      -9.620  12.765  67.600  1.00  0.00    -0.192 A  
HETATM   18  C   UNL     1      -8.737  11.708  67.339  1.00  0.00    -0.155 A  
HETATM   19  C   UNL     1      -9.191  10.399  67.079  1.00  0.00    -0.165 A  
HETATM   20  C   UNL     1     -10.567  10.188  67.249  1.00  0.00    -0.321 A  
HETATM   21  C   UNL     1     -11.464  11.259  67.419  1.00  0.00    -0.300 A  
BRANCH  19  22
HETATM   22  C   UNL     1      -8.241   9.342  66.590  1.00  0.00    -0.112 A  
HETATM   23  C   UNL     1      -7.717   8.417  67.530  1.00  0.00    -0.099 A  
HETATM   24  C   UNL     1      -6.737   7.471  67.203  1.00  0.00    -0.067 A  
HETATM   25  C   UNL     1      -6.270   7.382  65.905  1.00  0.00    -0.041 A  
HETATM   26  C   UNL     1      -6.785   8.241  64.940  1.00  0.00    -0.067 A  
HETATM   27  C   UNL     1      -7.750   9.233  65.258  1.00  0.00    -0.103 A  
BRANCH  27  28
HETATM   28  C   UNL     1      -8.128  10.108  64.149  1.00  0.00    -0.158 A  
HETATM   29  N   UNL     1      -7.235  10.680  63.313  1.00  0.00     0.046 NA 
HETATM   30  N   UNL     1      -8.060  11.384  62.527  1.00  0.00    -0.568 NA 
HETATM   31  H   UNL     1      -7.715  11.954  61.755  1.00  0.00     0.000 HD 
HETATM   32  N   UNL     1      -9.361  11.295  62.812  1.00  0.00    -0.358 NA 
HETATM   33  N   UNL     1      -9.416  10.505  63.875  1.00  0.00    -0.267 NA 
ENDBRANCH  27  28
ENDBRANCH  19  22
ENDBRANCH  15  16
ENDBRANCH  11  15
ENDBRANCH   4   5
ENDBRANCH   3   4
ENDBRANCH   2   3
TORSDOF 7
ENDMDL
MODEL       95
REMARK 921   NORMALIZED FREE ENERGY PREDICTED BY IDOCK:   -5.45 KCAL/MOL
REMARK 922        TOTAL FREE ENERGY PREDICTED BY IDOCK:   -9.62 KCAL/MOL
REMARK 923 INTER-LIGAND FREE ENERGY PREDICTED BY IDOCK:   -8.39 KCAL/MOL
REMARK 924 INTRA-LIGAND FREE ENERGY PREDICTED BY IDOCK:   -1.24 KCAL/MOL
REMARK 927      BINDING AFFINITY PREDICTED BY RF-SCORE:    0.00 PKD
ROOT
HETATM    1  C   UNL     1      -8.893   2.171  65.150  1.00  0.00    -0.122 C  
HETATM    2  C   UNL     1      -9.033   2.811  66.516  1.00  0.00    -0.159 C  
ENDROOT
BRANCH   2   3
HETATM    3  C   UNL     1      -8.539   4.254  66.507  1.00  0.00    -0.112 C  
BRANCH   3   4
HETATM    4  C   UNL     1      -9.680   5.247  66.700  1.00  0.00    -0.177 C  
BRANCH   4   5
HETATM    5  C   UNL     1      -9.674   5.781  68.104  1.00  0.00    -0.125 C  
HETATM    6  N   UNL     1     -10.485   5.271  68.982  1.00  0.00    -0.180 NA 
HETATM    7  C   UNL     1     -10.160   5.973  70.248  1.00  0.00    -0.194 C  
HETATM    8  C   UNL     1      -9.259   7.108  69.790  1.00  0.00    -0.143 C  
HETATM    9  C   UNL     1      -9.390   5.023  71.171  1.00  0.00    -0.199 C  
HETATM   10  O   UNL     1      -8.949   8.105  70.424  1.00  0.00    -0.142 OA 
HETATM   11  N   UNL     1      -8.864   6.773  68.519  1.00  0.00    -0.124 N  
HETATM   12  C   UNL     1      -9.834   5.444  72.562  1.00  0.00    -0.192 C  
HETATM   13  C   UNL     1     -11.317   5.717  72.377  1.00  0.00    -0.327 C  
HETATM   14  C   UNL     1     -11.421   6.386  71.005  1.00  0.00    -0.394 C  
BRANCH  11  15
HETATM   15  C   UNL     1      -7.848   7.539  67.801  1.00  0.00    -0.117 C  
BRANCH  15  16
HETATM   16  C   UNL     1      -8.431   8.751  67.096  1.00  0.00    -0.110 A  
HETATM   17  C   UNL     1      -8.278  10.033  67.622  1.00  0.00    -0.114 A  
HETATM   18  C   UNL     1      -9.028  11.108  67.124  1.00  0.00    -0.145 A  
HETATM   19  C   UNL     1      -9.911  10.964  66.035  1.00  0.00    -0.290 A  
HETATM   20  C   UNL     1      -9.878   9.722  65.385  1.00  0.00    -0.365 A  
HETATM   21  C   UNL     1      -9.200   8.618  65.934  1.00  0.00    -0.264 A  
BRANCH  19  22
HETATM   22  C   UNL     1     -10.858  12.071  65.667  1.00  0.00    -0.325 A  
HETATM   23  C   UNL     1     -10.904  12.501  64.315  1.00  0.00    -0.400 A  
HETATM   24  C   UNL     1     -11.661  13.599  63.889  1.00  0.00    -0.363 A  
HETATM   25  C   UNL     1     -12.443  14.291  64.796  1.00  0.00    -0.390 A  
HETATM   26  C   UNL     1     -12.463  13.881  66.124  1.00  0.00    -0.478 A  
HETATM   27  C   UNL     1     -11.673  12.795  66.585  1.00  0.00    -0.459 A  
BRANCH  27  28
HETATM   28  C   UNL     1     -11.744  12.542  68.023  1.00  0.00    -0.355 A  
HETATM   29  N   UNL     1     -11.225  13.373  68.952  1.00  0.00    -0.264 NA 
HETATM   30  N   UNL     1     -11.516  12.694  70.070  1.00  0.00    -0.529 NA 
HETATM   31  H   UNL     1     -11.265  13.043  70.994  1.00  0.00     0.000 HD 
HETATM   32  N   UNL     1     -12.155  11.534  69.902  1.00  0.00    -0.319 NA 
HETATM   33  N   UNL     1     -12.277  11.407  68.588  1.00  0.00    -0.510 NA 
ENDBRANCH  27  28
ENDBRANCH  19  22
ENDBRANCH  15  16
ENDBRANCH  11  15
ENDBRANCH   4   5
ENDBRANCH   3   4
ENDBRANCH   2   3
TORSDOF 7
ENDMDL
MODEL       96
REMARK 921   NORMALIZED FREE ENERGY PREDICTED BY IDOCK:   -5.44 KCAL/MOL
REMARK 922        TOTAL FREE ENERGY PREDICTED BY IDOCK:   -9.61 KCAL/MOL
REMARK 923 INTER-LIGAND FREE ENERGY PREDICTED BY IDOCK:   -8.17 KCAL/MOL
REMARK 924 INTRA-LIGAND FREE ENERGY PREDICTED BY IDOCK:   -1.44 KCAL/MOL
REMARK 927      BINDING AFFINITY PREDICTED BY RF-SCORE:    0.00 PKD
ROOT
HETATM    1  C   UNL     1     -12.534  12.036  63.439  1.00  0.00    -0.625 C  
HETATM    2  C   UNL     1     -11.729  13.318  63.518  1.00  0.00    -0.390 C  
ENDROOT
BRANCH   2   3
HETATM    3  C   UNL     1     -12.352  14.304  64.503  1.00  0.00    -0.432 C  
BRANCH   3   4
HETATM    4  C   UNL     1     -12.332  13.769  65.931  1.00  0.00    -0.516 C  
BRANCH   4   5
HETATM    5  C   UNL     1     -10.986  14.005  66.557  1.00  0.00    -0.306 C  
HETATM    6  N   UNL     1     -10.660  15.206  66.930  1.00  0.00    -0.291 NA 
HETATM    7  C   UNL     1      -9.326  15.055  67.560  1.00  0.00    -0.195 C  
HETATM    8  C   UNL     1      -8.925  13.639  67.181  1.00  0.00    -0.231 C  
HETATM    9  C   UNL     1      -9.466  15.179  69.081  1.00  0.00    -0.221 C  
HETATM   10  O   UNL     1      -7.808  13.148  67.243  1.00  0.00    -0.168 OA 
HETATM   11  N   UNL     1     -10.080  13.030  66.762  1.00  0.00    -0.242 N  
HETATM   12  C   UNL     1      -8.160  15.831  69.505  1.00  0.00    -0.137 C  
HETATM   13  C   UNL     1      -7.921  16.857  68.409  1.00  0.00    -0.232 C  
HETATM   14  C   UNL     1      -8.367  16.161  67.121  1.00  0.00    -0.225 C  
BRANCH  11  15
HETATM   15  C   UNL     1     -10.136  11.599  66.474  1.00  0.00    -0.207 C  
BRANCH  15  16
HETATM   16  C   UNL     1     -10.031  10.753  67.731  1.00  0.00    -0.195 A  
HETATM   17  C   UNL     1      -9.277   9.581  67.749  1.00  0.00    -0.136 A  
HETATM   18  C   UNL     1      -9.389   8.672  68.811  1.00  0.00    -0.142 A  
HETATM   19  C   UNL     1     -10.204   8.926  69.932  1.00  0.00    -0.209 A  
HETATM   20  C   UNL     1     -10.773  10.206  69.992  1.00  0.00    -0.356 A  
HETATM   21  C   UNL     1     -10.739  11.083  68.892  1.00  0.00    -0.249 A  
BRANCH  19  22
HETATM   22  C   UNL     1     -10.474   7.847  70.942  1.00  0.00    -0.217 A  
HETATM   23  C   UNL     1     -11.754   7.233  70.951  1.00  0.00    -0.348 A  
HETATM   24  C   UNL     1     -12.147   6.305  71.923  1.00  0.00    -0.311 A  
HETATM   25  C   UNL     1     -11.257   5.917  72.907  1.00  0.00    -0.291 A  
HETATM   26  C   UNL     1      -9.977   6.461  72.914  1.00  0.00    -0.186 A  
HETATM   27  C   UNL     1      -9.570   7.433  71.962  1.00  0.00    -0.177 A  
BRANCH  27  28
HETATM   28  C   UNL     1      -8.222   7.964  72.156  1.00  0.00    -0.125 A  
HETATM   29  N   UNL     1      -7.880   8.771  73.183  1.00  0.00    -0.387 NA 
HETATM   30  N   UNL     1      -6.591   8.994  72.893  1.00  0.00    -0.318 NA 
HETATM   31  H   UNL     1      -5.999   9.580  73.481  1.00  0.00     0.000 HD 
HETATM   32  N   UNL     1      -6.128   8.404  71.788  1.00  0.00    -0.047 NA 
HETATM   33  N   UNL     1      -7.176   7.767  71.286  1.00  0.00    -0.060 NA 
ENDBRANCH  27  28
ENDBRANCH  19  22
ENDBRANCH  15  16
ENDBRANCH  11  15
ENDBRANCH   4   5
ENDBRANCH   3   4
ENDBRANCH   2   3
TORSDOF 7
ENDMDL
MODEL       97
REMARK 921   NORMALIZED FREE ENERGY PREDICTED BY IDOCK:   -5.44 KCAL/MOL
REMARK 922        TOTAL FREE ENERGY PREDICTED BY IDOCK:   -9.61 KCAL/MOL
REMARK 923 INTER-LIGAND FREE ENERGY PREDICTED BY IDOCK:   -8.37 KCAL/MOL
REMARK 924 INTRA-LIGAND FREE ENERGY PREDICTED BY IDOCK:   -1.24 KCAL/MOL
REMARK 927      BINDING AFFINITY PREDICTED BY RF-SCORE:    0.00 PKD
ROOT
HETATM    1  C   UNL     1     -13.019  10.274  71.745  1.00  0.00    -0.574 C  
HETATM    2  C   UNL     1     -12.962  11.782  71.602  1.00  0.00    -0.467 C  
ENDROOT
BRANCH   2   3
HETATM    3  C   UNL     1     -12.170  12.192  70.364  1.00  0.00    -0.378 C  
BRANCH   3   4
HETATM    4  C   UNL     1     -11.903  11.006  69.443  1.00  0.00    -0.407 C  
BRANCH   4   5
HETATM    5  C   UNL     1     -11.403  11.486  68.109  1.00  0.00    -0.298 C  
HETATM    6  N   UNL     1     -12.173  12.226  67.369  1.00  0.00    -0.388 NA 
HETATM    7  C   UNL     1     -11.345  12.567  66.187  1.00  0.00    -0.343 C  
HETATM    8  C   UNL     1     -10.147  11.644  66.328  1.00  0.00    -0.221 C  
HETATM    9  C   UNL     1     -10.903  14.031  66.284  1.00  0.00    -0.291 C  
HETATM   10  O   UNL     1      -9.324  11.368  65.468  1.00  0.00    -0.221 OA 
HETATM   11  N   UNL     1     -10.181  11.192  67.623  1.00  0.00    -0.178 N  
HETATM   12  C   UNL     1     -10.851  14.483  64.833  1.00  0.00    -0.436 C  
HETATM   13  C   UNL     1     -12.077  13.819  64.228  1.00  0.00    -0.481 C  
HETATM   14  C   UNL     1     -12.138  12.439  64.887  1.00  0.00    -0.470 C  
BRANCH  11  15
HETATM   15  C   UNL     1      -9.090  10.409  68.196  1.00  0.00    -0.142 C  
BRANCH  15  16
HETATM   16  C   UNL     1      -9.190   8.936  67.841  1.00  0.00    -0.148 A  
HETATM   17  C   UNL     1     -10.411   8.266  67.886  1.00  0.00    -0.278 A  
HETATM   18  C   UNL     1     -10.465   6.866  67.818  1.00  0.00    -0.279 A  
HETATM   19  C   UNL     1      -9.310   6.080  67.633  1.00  0.00    -0.112 A  
HETATM   20  C   UNL     1      -8.129   6.788  67.368  1.00  0.00    -0.118 A  
HETATM   21  C   UNL     1      -8.052   8.184  67.525  1.00  0.00    -0.123 A  
BRANCH  19  22
HETATM   22  C   UNL     1      -9.369   4.586  67.783  1.00  0.00    -0.180 A  
HETATM   23  C   UNL     1      -9.223   4.029  69.080  1.00  0.00    -0.217 A  
HETATM   24  C   UNL     1      -9.144   2.651  69.314  1.00  0.00    -0.188 A  
HETATM   25  C   UNL     1      -9.253   1.765  68.259  1.00  0.00    -0.228 A  
HETATM   26  C   UNL     1      -9.438   2.263  66.973  1.00  0.00     0.079 A  
HETATM   27  C   UNL     1      -9.481   3.657  66.708  1.00  0.00    -0.203 A  
BRANCH  27  28
HETATM   28  C   UNL     1      -9.600   4.016  65.296  1.00  0.00    -0.185 A  
HETATM   29  N   UNL     1     -10.765   3.983  64.615  1.00  0.00    -0.219 NA 
HETATM   30  N   UNL     1     -10.342   4.355  63.399  1.00  0.00    -0.408 NA 
HETATM   31  H   UNL     1     -10.981   4.444  62.609  1.00  0.00     0.000 HD 
HETATM   32  N   UNL     1      -9.035   4.602  63.283  1.00  0.00    -0.136 NA 
HETATM   33  N   UNL     1      -8.541   4.354  64.488  1.00  0.00    -0.129 NA 
ENDBRANCH  27  28
ENDBRANCH  19  22
ENDBRANCH  15  16
ENDBRANCH  11  15
ENDBRANCH   4   5
ENDBRANCH   3   4
ENDBRANCH   2   3
TORSDOF 7
ENDMDL
MODEL       98
REMARK 921   NORMALIZED FREE ENERGY PREDICTED BY IDOCK:   -5.43 KCAL/MOL
REMARK 922        TOTAL FREE ENERGY PREDICTED BY IDOCK:   -9.60 KCAL/MOL
REMARK 923 INTER-LIGAND FREE ENERGY PREDICTED BY IDOCK:   -8.40 KCAL/MOL
REMARK 924 INTRA-LIGAND FREE ENERGY PREDICTED BY IDOCK:   -1.21 KCAL/MOL
REMARK 927      BINDING AFFINITY PREDICTED BY RF-SCORE:    0.00 PKD
ROOT
HETATM    1  C   UNL     1     -10.454   9.811  70.189  1.00  0.00    -0.338 C  
HETATM    2  C   UNL     1     -10.116   8.867  69.054  1.00  0.00    -0.205 C  
ENDROOT
BRANCH   2   3
HETATM    3  C   UNL     1     -10.590   9.420  67.713  1.00  0.00    -0.317 C  
BRANCH   3   4
HETATM    4  C   UNL     1      -9.672  10.523  67.198  1.00  0.00    -0.202 C  
BRANCH   4   5
HETATM    5  C   UNL     1      -9.230  10.219  65.794  1.00  0.00    -0.175 C  
HETATM    6  N   UNL     1      -8.073   9.661  65.598  1.00  0.00    -0.114 NA 
HETATM    7  C   UNL     1      -8.002   9.445  64.132  1.00  0.00    -0.134 C  
HETATM    8  C   UNL     1      -9.183  10.245  63.610  1.00  0.00    -0.280 C  
HETATM    9  C   UNL     1      -8.193   7.955  63.829  1.00  0.00    -0.011 C  
HETATM   10  O   UNL     1      -9.387  10.589  62.455  1.00  0.00    -0.265 OA 
HETATM   11  N   UNL     1      -9.972  10.493  64.704  1.00  0.00    -0.331 N  
HETATM   12  C   UNL     1      -7.328   7.730  62.600  1.00  0.00    -0.098 C  
HETATM   13  C   UNL     1      -6.094   8.567  62.896  1.00  0.00    -0.086 C  
HETATM   14  C   UNL     1      -6.634   9.830  63.571  1.00  0.00    -0.117 C  
BRANCH  11  15
HETATM   15  C   UNL     1     -11.297  11.097  64.579  1.00  0.00     0.124 C  
BRANCH  15  16
HETATM   16  C   UNL     1     -11.301  12.564  64.972  1.00  0.00    -0.353 A  
HETATM   17  C   UNL     1     -10.388  13.460  64.419  1.00  0.00    -0.347 A  
HETATM   18  C   UNL     1     -10.217  14.740  64.967  1.00  0.00    -0.379 A  
HETATM   19  C   UNL     1     -10.997  15.204  66.044  1.00  0.00    -0.332 A  
HETATM   20  C   UNL     1     -12.054  14.370  66.433  1.00  0.00    -0.390 A  
HETATM   21  C   UNL     1     -12.173  13.053  65.952  1.00  0.00    -0.493 A  
BRANCH  19  22
HETATM   22  C   UNL     1     -10.646  16.485  66.747  1.00  0.00    -0.224 A  
HETATM   23  C   UNL     1     -10.174  17.576  65.971  1.00  0.00    -0.306 A  
HETATM   24  C   UNL     1      -9.709  18.769  66.537  1.00  0.00    -0.380 A  
HETATM   25  C   UNL     1      -9.738  18.940  67.909  1.00  0.00    -0.376 A  
HETATM   26  C   UNL     1     -10.231  17.914  68.708  1.00  0.00    -0.362 A  
HETATM   27  C   UNL     1     -10.671  16.681  68.158  1.00  0.00    -0.349 A  
BRANCH  27  28
HETATM   28  C   UNL     1     -11.084  15.677  69.138  1.00  0.00    -0.284 A  
HETATM   29  N   UNL     1     -10.371  14.563  69.408  1.00  0.00    -0.141 NA 
HETATM   30  N   UNL     1     -11.168  13.984  70.316  1.00  0.00    -0.479 NA 
HETATM   31  H   UNL     1     -10.930  13.094  70.754  1.00  0.00     0.000 HD 
HETATM   32  N   UNL     1     -12.292  14.640  70.615  1.00  0.00    -0.309 NA 
HETATM   33  N   UNL     1     -12.267  15.714  69.838  1.00  0.00    -0.346 NA 
ENDBRANCH  27  28
ENDBRANCH  19  22
ENDBRANCH  15  16
ENDBRANCH  11  15
ENDBRANCH   4   5
ENDBRANCH   3   4
ENDBRANCH   2   3
TORSDOF 7
ENDMDL
MODEL       99
REMARK 921   NORMALIZED FREE ENERGY PREDICTED BY IDOCK:   -5.43 KCAL/MOL
REMARK 922        TOTAL FREE ENERGY PREDICTED BY IDOCK:   -9.59 KCAL/MOL
REMARK 923 INTER-LIGAND FREE ENERGY PREDICTED BY IDOCK:   -8.09 KCAL/MOL
REMARK 924 INTRA-LIGAND FREE ENERGY PREDICTED BY IDOCK:   -1.50 KCAL/MOL
REMARK 927      BINDING AFFINITY PREDICTED BY RF-SCORE:    0.00 PKD
ROOT
HETATM    1  C   UNL     1      -5.417   9.088  74.256  1.00  0.00    -0.126 C  
HETATM    2  C   UNL     1      -5.285   8.331  72.950  1.00  0.00    -0.039 C  
ENDROOT
BRANCH   2   3
HETATM    3  C   UNL     1      -6.379   8.731  71.964  1.00  0.00    -0.069 C  
BRANCH   3   4
HETATM    4  C   UNL     1      -6.491   7.743  70.808  1.00  0.00    -0.038 C  
BRANCH   4   5
HETATM    5  C   UNL     1      -7.933   7.415  70.541  1.00  0.00    -0.099 C  
HETATM    6  N   UNL     1      -8.731   7.192  71.542  1.00  0.00    -0.120 NA 
HETATM    7  C   UNL     1     -10.062   6.980  70.922  1.00  0.00    -0.193 C  
HETATM    8  C   UNL     1      -9.736   6.851  69.444  1.00  0.00    -0.157 C  
HETATM    9  C   UNL     1     -10.938   8.213  71.167  1.00  0.00    -0.271 C  
HETATM   10  O   UNL     1     -10.462   6.410  68.565  1.00  0.00    -0.179 OA 
HETATM   11  N   UNL     1      -8.461   7.338  69.304  1.00  0.00    -0.132 N  
HETATM   12  C   UNL     1     -12.338   7.635  71.288  1.00  0.00    -0.334 C  
HETATM   13  C   UNL     1     -12.111   6.361  72.086  1.00  0.00    -0.316 C  
HETATM   14  C   UNL     1     -10.794   5.796  71.551  1.00  0.00    -0.316 C  
BRANCH  11  15
HETATM   15  C   UNL     1      -7.851   7.539  67.992  1.00  0.00    -0.121 C  
BRANCH  15  16
HETATM   16  C   UNL     1      -8.401   8.764  67.284  1.00  0.00    -0.104 A  
HETATM   17  C   UNL     1      -8.190  10.045  67.791  1.00  0.00    -0.113 A  
HETATM   18  C   UNL     1      -8.908  11.142  67.293  1.00  0.00    -0.144 A  
HETATM   19  C   UNL     1      -9.816  11.019  66.222  1.00  0.00    -0.257 A  
HETATM   20  C   UNL     1      -9.841   9.770  65.586  1.00  0.00    -0.371 A  
HETATM   21  C   UNL     1      -9.195   8.647  66.136  1.00  0.00    -0.271 A  
BRANCH  19  22
HETATM   22  C   UNL     1     -10.727  12.157  65.857  1.00  0.00    -0.302 A  
HETATM   23  C   UNL     1     -10.684  12.660  64.530  1.00  0.00    -0.368 A  
HETATM   24  C   UNL     1     -11.402  13.790  64.119  1.00  0.00    -0.277 A  
HETATM   25  C   UNL     1     -12.232  14.442  65.012  1.00  0.00    -0.418 A  
HETATM   26  C   UNL     1     -12.338  13.961  66.313  1.00  0.00    -0.489 A  
HETATM   27  C   UNL     1     -11.589  12.841  66.761  1.00  0.00    -0.431 A  
BRANCH  27  28
HETATM   28  C   UNL     1     -11.753  12.512  68.177  1.00  0.00    -0.348 A  
HETATM   29  N   UNL     1     -11.434  13.359  69.179  1.00  0.00    -0.283 NA 
HETATM   30  N   UNL     1     -11.729  12.594  70.240  1.00  0.00    -0.552 NA 
HETATM   31  H   UNL     1     -11.609  12.929  71.196  1.00  0.00     0.000 HD 
HETATM   32  N   UNL     1     -12.188  11.370  69.971  1.00  0.00    -0.311 NA 
HETATM   33  N   UNL     1     -12.175  11.292  68.648  1.00  0.00    -0.542 NA 
ENDBRANCH  27  28
ENDBRANCH  19  22
ENDBRANCH  15  16
ENDBRANCH  11  15
ENDBRANCH   4   5
ENDBRANCH   3   4
ENDBRANCH   2   3
TORSDOF 7
ENDMDL
MODEL      100
REMARK 921   NORMALIZED FREE ENERGY PREDICTED BY IDOCK:   -5.42 KCAL/MOL
REMARK 922        TOTAL FREE ENERGY PREDICTED BY IDOCK:   -9.59 KCAL/MOL
REMARK 923 INTER-LIGAND FREE ENERGY PREDICTED BY IDOCK:   -8.02 KCAL/MOL
REMARK 924 INTRA-LIGAND FREE ENERGY PREDICTED BY IDOCK:   -1.57 KCAL/MOL
REMARK 927      BINDING AFFINITY PREDICTED BY RF-SCORE:    0.00 PKD
ROOT
HETATM    1  C   UNL     1      -8.097   9.487  64.534  1.00  0.00    -0.142 C  
HETATM    2  C   UNL     1      -9.409   9.954  63.938  1.00  0.00    -0.262 C  
ENDROOT
BRANCH   2   3
HETATM    3  C   UNL     1      -9.538  11.473  64.002  1.00  0.00    -0.189 C  
BRANCH   3   4
HETATM    4  C   UNL     1     -10.830  11.905  64.686  1.00  0.00    -0.363 C  
BRANCH   4   5
HETATM    5  C   UNL     1     -10.581  13.100  65.563  1.00  0.00    -0.288 C  
HETATM    6  N   UNL     1      -9.693  13.978  65.205  1.00  0.00    -0.124 NA 
HETATM    7  C   UNL     1      -9.766  15.033  66.245  1.00  0.00    -0.291 C  
HETATM    8  C   UNL     1     -10.628  14.397  67.321  1.00  0.00    -0.279 C  
HETATM    9  C   UNL     1     -10.465  16.268  65.665  1.00  0.00    -0.386 C  
HETATM   10  O   UNL     1     -10.756  14.767  68.479  1.00  0.00    -0.235 OA 
HETATM   11  N   UNL     1     -11.236  13.324  66.719  1.00  0.00    -0.296 N  
HETATM   12  C   UNL     1      -9.784  17.427  66.376  1.00  0.00    -0.303 C  
HETATM   13  C   UNL     1      -8.328  16.994  66.412  1.00  0.00    -0.319 C  
HETATM   14  C   UNL     1      -8.376  15.489  66.685  1.00  0.00    -0.286 C  
BRANCH  11  15
HETATM   15  C   UNL     1     -12.281  12.554  67.387  1.00  0.00     0.189 C  
BRANCH  15  16
HETATM   16  C   UNL     1     -11.712  11.494  68.314  1.00  0.00    -0.371 A  
HETATM   17  C   UNL     1     -11.064  10.368  67.810  1.00  0.00    -0.365 A  
HETATM   18  C   UNL     1     -10.775   9.274  68.638  1.00  0.00    -0.180 A  
HETATM   19  C   UNL     1     -11.058   9.284  70.018  1.00  0.00    -0.228 A  
HETATM   20  C   UNL     1     -11.502  10.508  70.539  1.00  0.00    -0.433 A  
HETATM   21  C   UNL     1     -11.879  11.575  69.702  1.00  0.00    -0.421 A  
BRANCH  19  22
HETATM   22  C   UNL     1     -10.942   8.026  70.833  1.00  0.00    -0.260 A  
HETATM   23  C   UNL     1     -12.125   7.301  71.131  1.00  0.00    -0.376 A  
HETATM   24  C   UNL     1     -12.142   6.186  71.979  1.00  0.00    -0.256 A  
HETATM   25  C   UNL     1     -10.964   5.721  72.531  1.00  0.00    -0.309 A  
HETATM   26  C   UNL     1      -9.772   6.375  72.234  1.00  0.00    -0.158 A  
HETATM   27  C   UNL     1      -9.737   7.530  71.409  1.00  0.00    -0.180 A  
BRANCH  27  28
HETATM   28  C   UNL     1      -8.420   8.146  71.261  1.00  0.00    -0.132 A  
HETATM   29  N   UNL     1      -7.845   8.913  72.211  1.00  0.00    -0.358 NA 
HETATM   30  N   UNL     1      -6.704   9.246  71.592  1.00  0.00    -0.297 NA 
HETATM   31  H   UNL     1      -6.002   9.838  72.035  1.00  0.00     0.000 HD 
HETATM   32  N   UNL     1      -6.541   8.758  70.360  1.00  0.00    -0.039 NA 
HETATM   33  N   UNL     1      -7.653   8.077  70.121  1.00  0.00    -0.080 NA 
ENDBRANCH  27  28
ENDBRANCH  19  22
ENDBRANCH  15  16
ENDBRANCH  11  15
ENDBRANCH   4   5
ENDBRANCH   3   4
ENDBRANCH   2   3
TORSDOF 7
ENDMDL
MODEL      101
REMARK 921   NORMALIZED FREE ENERGY PREDICTED BY IDOCK:   -5.41 KCAL/MOL
REMARK 922        TOTAL FREE ENERGY PREDICTED BY IDOCK:   -9.56 KCAL/MOL
REMARK 923 INTER-LIGAND FREE ENERGY PREDICTED BY IDOCK:   -8.25 KCAL/MOL
REMARK 924 INTRA-LIGAND FREE ENERGY PREDICTED BY IDOCK:   -1.32 KCAL/MOL
REMARK 927      BINDING AFFINITY PREDICTED BY RF-SCORE:    0.00 PKD
ROOT
HETATM    1  C   UNL     1     -12.891   8.828  72.113  1.00  0.00    -0.456 C  
HETATM    2  C   UNL     1     -11.800   7.935  72.667  1.00  0.00    -0.352 C  
ENDROOT
BRANCH   2   3
HETATM    3  C   UNL     1     -11.676   6.645  71.860  1.00  0.00    -0.355 C  
BRANCH   3   4
HETATM    4  C   UNL     1     -11.761   6.904  70.360  1.00  0.00    -0.377 C  
BRANCH   4   5
HETATM    5  C   UNL     1     -10.427   6.661  69.713  1.00  0.00    -0.211 C  
HETATM    6  N   UNL     1     -10.233   5.561  69.048  1.00  0.00    -0.211 NA 
HETATM    7  C   UNL     1      -8.862   5.691  68.497  1.00  0.00    -0.108 C  
HETATM    8  C   UNL     1      -8.309   6.900  69.231  1.00  0.00    -0.129 C  
HETATM    9  C   UNL     1      -8.946   5.975  66.993  1.00  0.00    -0.113 C  
HETATM   10  O   UNL     1      -7.139   7.241  69.313  1.00  0.00    -0.074 OA 
HETATM   11  N   UNL     1      -9.400   7.529  69.777  1.00  0.00    -0.151 N  
HETATM   12  C   UNL     1      -7.711   5.287  66.433  1.00  0.00    -0.092 C  
HETATM   13  C   UNL     1      -7.651   3.996  67.232  1.00  0.00    -0.073 C  
HETATM   14  C   UNL     1      -8.067   4.395  68.649  1.00  0.00    -0.077 C  
BRANCH  11  15
HETATM   15  C   UNL     1      -9.294   8.835  70.422  1.00  0.00    -0.180 C  
BRANCH  15  16
HETATM   16  C   UNL     1      -9.690   9.970  69.494  1.00  0.00    -0.253 A  
HETATM   17  C   UNL     1     -11.024  10.346  69.344  1.00  0.00    -0.296 A  
HETATM   18  C   UNL     1     -11.416  11.203  68.305  1.00  0.00    -0.373 A  
HETATM   19  C   UNL     1     -10.486  11.776  67.416  1.00  0.00    -0.238 A  
HETATM   20  C   UNL     1      -9.136  11.561  67.726  1.00  0.00    -0.165 A  
HETATM   21  C   UNL     1      -8.741  10.632  68.706  1.00  0.00    -0.157 A  
BRANCH  19  22
HETATM   22  C   UNL     1     -10.952  12.508  66.188  1.00  0.00    -0.318 A  
HETATM   23  C   UNL     1     -11.790  13.641  66.353  1.00  0.00    -0.433 A  
HETATM   24  C   UNL     1     -12.374  14.320  65.277  1.00  0.00    -0.427 A  
HETATM   25  C   UNL     1     -12.107  13.919  63.982  1.00  0.00    -0.437 A  
HETATM   26  C   UNL     1     -11.257  12.839  63.769  1.00  0.00    -0.496 A  
HETATM   27  C   UNL     1     -10.686  12.111  64.846  1.00  0.00    -0.336 A  
BRANCH  27  28
HETATM   28  C   UNL     1      -9.883  10.954  64.455  1.00  0.00    -0.300 A  
HETATM   29  N   UNL     1      -9.845   9.802  65.158  1.00  0.00    -0.294 NA 
HETATM   30  N   UNL     1      -8.968   9.103  64.424  1.00  0.00    -0.410 NA 
HETATM   31  H   UNL     1      -8.695   8.152  64.670  1.00  0.00     0.000 HD 
HETATM   32  N   UNL     1      -8.472   9.726  63.353  1.00  0.00    -0.169 NA 
HETATM   33  N   UNL     1      -9.025  10.930  63.380  1.00  0.00    -0.188 NA 
ENDBRANCH  27  28
ENDBRANCH  19  22
ENDBRANCH  15  16
ENDBRANCH  11  15
ENDBRANCH   4   5
ENDBRANCH   3   4
ENDBRANCH   2   3
TORSDOF 7
ENDMDL
MODEL      102
REMARK 921   NORMALIZED FREE ENERGY PREDICTED BY IDOCK:   -5.39 KCAL/MOL
REMARK 922        TOTAL FREE ENERGY PREDICTED BY IDOCK:   -9.54 KCAL/MOL
REMARK 923 INTER-LIGAND FREE ENERGY PREDICTED BY IDOCK:   -8.46 KCAL/MOL
REMARK 924 INTRA-LIGAND FREE ENERGY PREDICTED BY IDOCK:   -1.08 KCAL/MOL
REMARK 927      BINDING AFFINITY PREDICTED BY RF-SCORE:    0.00 PKD
ROOT
HETATM    1  C   UNL     1      -7.645  17.364  67.666  1.00  0.00    -0.199 C  
HETATM    2  C   UNL     1      -7.982  16.692  68.981  1.00  0.00    -0.208 C  
ENDROOT
BRANCH   2   3
HETATM    3  C   UNL     1      -9.128  15.698  68.819  1.00  0.00    -0.208 C  
BRANCH   3   4
HETATM    4  C   UNL     1      -8.622  14.289  68.534  1.00  0.00    -0.175 C  
BRANCH   4   5
HETATM    5  C   UNL     1      -9.541  13.590  67.571  1.00  0.00    -0.221 C  
HETATM    6  N   UNL     1      -9.210  13.515  66.317  1.00  0.00    -0.123 NA 
HETATM    7  C   UNL     1     -10.288  12.711  65.691  1.00  0.00    -0.273 C  
HETATM    8  C   UNL     1     -11.345  12.645  66.780  1.00  0.00    -0.320 C  
HETATM    9  C   UNL     1      -9.757  11.307  65.380  1.00  0.00    -0.271 C  
HETATM   10  O   UNL     1     -12.516  12.319  66.653  1.00  0.00    -0.300 OA 
HETATM   11  N   UNL     1     -10.707  13.023  67.935  1.00  0.00    -0.230 N  
HETATM   12  C   UNL     1     -10.506  10.918  64.116  1.00  0.00    -0.397 C  
HETATM   13  C   UNL     1     -10.519  12.211  63.317  1.00  0.00    -0.360 C  
HETATM   14  C   UNL     1     -10.737  13.310  64.359  1.00  0.00    -0.432 C  
BRANCH  11  15
HETATM   15  C   UNL     1     -11.353  12.923  69.241  1.00  0.00    -0.243 C  
BRANCH  15  16
HETATM   16  C   UNL     1     -11.483  11.484  69.710  1.00  0.00    -0.362 A  
HETATM   17  C   UNL     1     -12.165  11.168  70.884  1.00  0.00    -0.468 A  
HETATM   18  C   UNL     1     -12.063   9.890  71.452  1.00  0.00    -0.501 A  
HETATM   19  C   UNL     1     -11.334   8.853  70.836  1.00  0.00    -0.336 A  
HETATM   20  C   UNL     1     -10.847   9.132  69.551  1.00  0.00    -0.194 A  
HETATM   21  C   UNL     1     -10.867  10.434  69.019  1.00  0.00    -0.273 A  
BRANCH  19  22
HETATM   22  C   UNL     1     -11.061   7.570  71.570  1.00  0.00    -0.263 A  
HETATM   23  C   UNL     1     -12.158   6.730  71.895  1.00  0.00    -0.375 A  
HETATM   24  C   UNL     1     -12.028   5.575  72.677  1.00  0.00    -0.106 A  
HETATM   25  C   UNL     1     -10.782   5.187  73.132  1.00  0.00    -0.318 A  
HETATM   26  C   UNL     1      -9.671   5.956  72.803  1.00  0.00    -0.167 A  
HETATM   27  C   UNL     1      -9.785   7.151  72.045  1.00  0.00    -0.173 A  
BRANCH  27  28
HETATM   28  C   UNL     1      -8.535   7.886  71.855  1.00  0.00    -0.122 A  
HETATM   29  N   UNL     1      -7.993   8.689  72.796  1.00  0.00    -0.393 NA 
HETATM   30  N   UNL     1      -6.914   9.134  72.137  1.00  0.00    -0.313 NA 
HETATM   31  H   UNL     1      -6.251   9.780  72.563  1.00  0.00     0.000 HD 
HETATM   32  N   UNL     1      -6.759   8.680  70.892  1.00  0.00    -0.046 NA 
HETATM   33  N   UNL     1      -7.813   7.904  70.685  1.00  0.00    -0.093 NA 
ENDBRANCH  27  28
ENDBRANCH  19  22
ENDBRANCH  15  16
ENDBRANCH  11  15
ENDBRANCH   4   5
ENDBRANCH   3   4
ENDBRANCH   2   3
TORSDOF 7
ENDMDL
MODEL      103
REMARK 921   NORMALIZED FREE ENERGY PREDICTED BY IDOCK:   -5.38 KCAL/MOL
REMARK 922        TOTAL FREE ENERGY PREDICTED BY IDOCK:   -9.53 KCAL/MOL
REMARK 923 INTER-LIGAND FREE ENERGY PREDICTED BY IDOCK:   -8.44 KCAL/MOL
REMARK 924 INTRA-LIGAND FREE ENERGY PREDICTED BY IDOCK:   -1.09 KCAL/MOL
REMARK 927      BINDING AFFINITY PREDICTED BY RF-SCORE:    0.00 PKD
ROOT
HETATM    1  C   UNL     1      -9.346  19.679  68.140  1.00  0.00    -0.433 C  
HETATM    2  C   UNL     1      -9.393  18.168  68.237  1.00  0.00    -0.312 C  
ENDROOT
BRANCH   2   3
HETATM    3  C   UNL     1     -10.790  17.636  67.932  1.00  0.00    -0.245 C  
BRANCH   3   4
HETATM    4  C   UNL     1     -10.790  16.125  67.725  1.00  0.00    -0.318 C  
BRANCH   4   5
HETATM    5  C   UNL     1     -11.395  15.436  68.916  1.00  0.00    -0.314 C  
HETATM    6  N   UNL     1     -11.402  16.043  70.066  1.00  0.00    -0.342 NA 
HETATM    7  C   UNL     1     -12.127  15.120  70.973  1.00  0.00    -0.333 C  
HETATM    8  C   UNL     1     -12.225  13.842  70.158  1.00  0.00    -0.356 C  
HETATM    9  C   UNL     1     -13.526  15.681  71.253  1.00  0.00    -0.439 C  
HETATM   10  O   UNL     1     -12.501  12.725  70.569  1.00  0.00    -0.289 OA 
HETATM   11  N   UNL     1     -11.943  14.207  68.866  1.00  0.00    -0.347 N  
HETATM   12  C   UNL     1     -13.809  15.232  72.677  1.00  0.00    -0.585 C  
HETATM   13  C   UNL     1     -12.468  15.426  73.367  1.00  0.00    -0.633 C  
HETATM   14  C   UNL     1     -11.430  14.998  72.328  1.00  0.00    -0.304 C  
BRANCH  11  15
HETATM   15  C   UNL     1     -12.103  13.279  67.750  1.00  0.00    -0.237 C  
BRANCH  15  16
HETATM   16  C   UNL     1     -10.843  12.474  67.485  1.00  0.00    -0.264 A  
HETATM   17  C   UNL     1     -10.571  11.957  66.219  1.00  0.00    -0.289 A  
HETATM   18  C   UNL     1      -9.559  11.005  66.035  1.00  0.00    -0.249 A  
HETATM   19  C   UNL     1      -8.729  10.579  67.091  1.00  0.00    -0.130 A  
HETATM   20  C   UNL     1      -8.876  11.277  68.298  1.00  0.00    -0.158 A  
HETATM   21  C   UNL     1      -9.946  12.165  68.514  1.00  0.00    -0.180 A  
BRANCH  19  22
HETATM   22  C   UNL     1      -7.806   9.406  66.915  1.00  0.00    -0.105 A  
HETATM   23  C   UNL     1      -6.507   9.640  66.392  1.00  0.00    -0.070 A  
HETATM   24  C   UNL     1      -5.615   8.607  66.079  1.00  0.00    -0.042 A  
HETATM   25  C   UNL     1      -5.970   7.293  66.317  1.00  0.00    -0.036 A  
HETATM   26  C   UNL     1      -7.217   7.017  66.867  1.00  0.00    -0.077 A  
HETATM   27  C   UNL     1      -8.152   8.046  67.156  1.00  0.00    -0.117 A  
BRANCH  27  28
HETATM   28  C   UNL     1      -9.447   7.584  67.654  1.00  0.00    -0.138 A  
HETATM   29  N   UNL     1     -10.426   7.109  66.855  1.00  0.00    -0.298 NA 
HETATM   30  N   UNL     1     -11.379   6.864  67.764  1.00  0.00    -0.556 NA 
HETATM   31  H   UNL     1     -12.287   6.481  67.504  1.00  0.00     0.000 HD 
HETATM   32  N   UNL     1     -11.069   7.150  69.030  1.00  0.00    -0.081 NA 
HETATM   33  N   UNL     1      -9.842   7.647  68.969  1.00  0.00    -0.164 NA 
ENDBRANCH  27  28
ENDBRANCH  19  22
ENDBRANCH  15  16
ENDBRANCH  11  15
ENDBRANCH   4   5
ENDBRANCH   3   4
ENDBRANCH   2   3
TORSDOF 7
ENDMDL
MODEL      104
REMARK 921   NORMALIZED FREE ENERGY PREDICTED BY IDOCK:   -5.38 KCAL/MOL
REMARK 922        TOTAL FREE ENERGY PREDICTED BY IDOCK:   -9.53 KCAL/MOL
REMARK 923 INTER-LIGAND FREE ENERGY PREDICTED BY IDOCK:   -7.85 KCAL/MOL
REMARK 924 INTRA-LIGAND FREE ENERGY PREDICTED BY IDOCK:   -1.68 KCAL/MOL
REMARK 927      BINDING AFFINITY PREDICTED BY RF-SCORE:    0.00 PKD
ROOT
HETATM    1  C   UNL     1      -7.580   9.958  65.466  1.00  0.00    -0.125 C  
HETATM    2  C   UNL     1      -7.035  10.436  66.796  1.00  0.00    -0.103 C  
ENDROOT
BRANCH   2   3
HETATM    3  C   UNL     1      -7.287  11.927  66.996  1.00  0.00    -0.118 C  
BRANCH   3   4
HETATM    4  C   UNL     1      -8.360  12.186  68.047  1.00  0.00    -0.167 C  
BRANCH   4   5
HETATM    5  C   UNL     1      -9.332  13.222  67.556  1.00  0.00    -0.218 C  
HETATM    6  N   UNL     1      -9.064  14.480  67.732  1.00  0.00    -0.185 NA 
HETATM    7  C   UNL     1     -10.179  15.200  67.071  1.00  0.00    -0.262 C  
HETATM    8  C   UNL     1     -11.183  14.095  66.791  1.00  0.00    -0.323 C  
HETATM    9  C   UNL     1      -9.680  15.811  65.757  1.00  0.00    -0.372 C  
HETATM   10  O   UNL     1     -12.362  14.227  66.499  1.00  0.00    -0.445 OA 
HETATM   11  N   UNL     1     -10.486  12.921  66.930  1.00  0.00    -0.245 N  
HETATM   12  C   UNL     1     -10.494  17.088  65.629  1.00  0.00    -0.229 C  
HETATM   13  C   UNL     1     -10.531  17.612  67.055  1.00  0.00    -0.305 C  
HETATM   14  C   UNL     1     -10.686  16.362  67.924  1.00  0.00    -0.332 C  
BRANCH  11  15
HETATM   15  C   UNL     1     -11.069  11.631  66.572  1.00  0.00    -0.301 C  
BRANCH  15  16
HETATM   16  C   UNL     1     -11.082  10.660  67.739  1.00  0.00    -0.385 A  
HETATM   17  C   UNL     1     -11.569  11.042  68.988  1.00  0.00    -0.392 A  
HETATM   18  C   UNL     1     -11.342  10.247  70.121  1.00  0.00    -0.388 A  
HETATM   19  C   UNL     1     -10.680   9.005  70.045  1.00  0.00    -0.247 A  
HETATM   20  C   UNL     1     -10.401   8.544  68.751  1.00  0.00    -0.233 A  
HETATM   21  C   UNL     1     -10.542   9.373  67.623  1.00  0.00    -0.333 A  
BRANCH  19  22
HETATM   22  C   UNL     1     -10.259   8.284  71.294  1.00  0.00    -0.253 A  
HETATM   23  C   UNL     1     -11.266   7.820  72.180  1.00  0.00    -0.348 A  
HETATM   24  C   UNL     1     -10.981   7.244  73.424  1.00  0.00    -0.289 A  
HETATM   25  C   UNL     1      -9.668   7.067  73.817  1.00  0.00    -0.311 A  
HETATM   26  C   UNL     1      -8.646   7.468  72.964  1.00  0.00    -0.185 A  
HETATM   27  C   UNL     1      -8.912   8.091  71.716  1.00  0.00    -0.194 A  
BRANCH  27  28
HETATM   28  C   UNL     1      -7.729   8.526  70.976  1.00  0.00    -0.097 A  
HETATM   29  N   UNL     1      -7.124   9.717  71.173  1.00  0.00    -0.316 NA 
HETATM   30  N   UNL     1      -6.149   9.644  70.257  1.00  0.00    -0.055 NA 
HETATM   31  H   UNL     1      -5.474  10.397  70.126  1.00  0.00     0.000 HD 
HETATM   32  N   UNL     1      -6.113   8.528  69.525  1.00  0.00    -0.036 NA 
HETATM   33  N   UNL     1      -7.146   7.815  69.954  1.00  0.00    -0.061 NA 
ENDBRANCH  27  28
ENDBRANCH  19  22
ENDBRANCH  15  16
ENDBRANCH  11  15
ENDBRANCH   4   5
ENDBRANCH   3   4
ENDBRANCH   2   3
TORSDOF 7
ENDMDL
MODEL      105
REMARK 921   NORMALIZED FREE ENERGY PREDICTED BY IDOCK:   -5.36 KCAL/MOL
REMARK 922        TOTAL FREE ENERGY PREDICTED BY IDOCK:   -9.49 KCAL/MOL
REMARK 923 INTER-LIGAND FREE ENERGY PREDICTED BY IDOCK:   -8.21 KCAL/MOL
REMARK 924 INTRA-LIGAND FREE ENERGY PREDICTED BY IDOCK:   -1.29 KCAL/MOL
REMARK 927      BINDING AFFINITY PREDICTED BY RF-SCORE:    0.00 PKD
ROOT
HETATM    1  C   UNL     1      -7.779  16.591  66.964  1.00  0.00    -0.244 C  
HETATM    2  C   UNL     1      -9.179  16.018  67.062  1.00  0.00    -0.229 C  
ENDROOT
BRANCH   2   3
HETATM    3  C   UNL     1      -9.303  15.057  68.240  1.00  0.00    -0.192 C  
BRANCH   3   4
HETATM    4  C   UNL     1     -10.457  14.077  68.054  1.00  0.00    -0.241 C  
BRANCH   4   5
HETATM    5  C   UNL     1     -11.280  13.997  69.309  1.00  0.00    -0.261 C  
HETATM    6  N   UNL     1     -11.352  15.033  70.089  1.00  0.00    -0.256 NA 
HETATM    7  C   UNL     1     -12.288  14.628  71.167  1.00  0.00    -0.335 C  
HETATM    8  C   UNL     1     -12.440  13.133  70.946  1.00  0.00    -0.323 C  
HETATM    9  C   UNL     1     -13.632  15.335  70.962  1.00  0.00    -0.486 C  
HETATM   10  O   UNL     1     -12.898  12.315  71.730  1.00  0.00    -0.331 OA 
HETATM   11  N   UNL     1     -11.962  12.897  69.682  1.00  0.00    -0.312 N  
HETATM   12  C   UNL     1     -14.137  15.552  72.380  1.00  0.00    -0.627 C  
HETATM   13  C   UNL     1     -12.877  15.942  73.133  1.00  0.00    -0.643 C  
HETATM   14  C   UNL     1     -11.780  15.052  72.544  1.00  0.00    -0.398 C  
BRANCH  11  15
HETATM   15  C   UNL     1     -12.097  11.594  69.037  1.00  0.00    -0.225 C  
BRANCH  15  16
HETATM   16  C   UNL     1     -11.117  10.574  69.588  1.00  0.00    -0.338 A  
HETATM   17  C   UNL     1      -9.781  10.571  69.192  1.00  0.00    -0.226 A  
HETATM   18  C   UNL     1      -8.945   9.485  69.490  1.00  0.00    -0.187 A  
HETATM   19  C   UNL     1      -9.388   8.387  70.255  1.00  0.00    -0.167 A  
HETATM   20  C   UNL     1     -10.661   8.519  70.827  1.00  0.00    -0.244 A  
HETATM   21  C   UNL     1     -11.534   9.559  70.458  1.00  0.00    -0.337 A  
BRANCH  19  22
HETATM   22  C   UNL     1      -8.547   7.147  70.372  1.00  0.00    -0.142 A  
HETATM   23  C   UNL     1      -7.703   7.006  71.504  1.00  0.00    -0.090 A  
HETATM   24  C   UNL     1      -6.795   5.950  71.651  1.00  0.00    -0.068 A  
HETATM   25  C   UNL     1      -6.723   4.963  70.687  1.00  0.00    -0.036 A  
HETATM   26  C   UNL     1      -7.560   5.037  69.579  1.00  0.00    -0.057 A  
HETATM   27  C   UNL     1      -8.460   6.119  69.390  1.00  0.00    -0.120 A  
BRANCH  27  28
HETATM   28  C   UNL     1      -9.210   6.090  68.136  1.00  0.00    -0.116 A  
HETATM   29  N   UNL     1      -8.792   6.695  67.003  1.00  0.00    -0.112 NA 
HETATM   30  N   UNL     1      -9.815   6.408  66.187  1.00  0.00    -0.395 NA 
HETATM   31  H   UNL     1      -9.832   6.717  65.215  1.00  0.00     0.000 HD 
HETATM   32  N   UNL     1     -10.809   5.695  66.720  1.00  0.00    -0.274 NA 
HETATM   33  N   UNL     1     -10.449   5.513  67.983  1.00  0.00    -0.195 NA 
ENDBRANCH  27  28
ENDBRANCH  19  22
ENDBRANCH  15  16
ENDBRANCH  11  15
ENDBRANCH   4   5
ENDBRANCH   3   4
ENDBRANCH   2   3
TORSDOF 7
ENDMDL
MODEL      106
REMARK 921   NORMALIZED FREE ENERGY PREDICTED BY IDOCK:   -5.35 KCAL/MOL
REMARK 922        TOTAL FREE ENERGY PREDICTED BY IDOCK:   -9.49 KCAL/MOL
REMARK 923 INTER-LIGAND FREE ENERGY PREDICTED BY IDOCK:   -8.37 KCAL/MOL
REMARK 924 INTRA-LIGAND FREE ENERGY PREDICTED BY IDOCK:   -1.12 KCAL/MOL
REMARK 927      BINDING AFFINITY PREDICTED BY RF-SCORE:    0.00 PKD
ROOT
HETATM    1  C   UNL     1      -7.987  16.163  66.509  1.00  0.00    -0.294 C  
HETATM    2  C   UNL     1      -9.319  16.885  66.486  1.00  0.00    -0.293 C  
ENDROOT
BRANCH   2   3
HETATM    3  C   UNL     1     -10.122  16.605  67.753  1.00  0.00    -0.275 C  
BRANCH   3   4
HETATM    4  C   UNL     1     -11.081  15.434  67.571  1.00  0.00    -0.315 C  
BRANCH   4   5
HETATM    5  C   UNL     1     -11.628  14.997  68.901  1.00  0.00    -0.326 C  
HETATM    6  N   UNL     1     -11.749  15.869  69.857  1.00  0.00    -0.336 NA 
HETATM    7  C   UNL     1     -12.376  15.120  70.973  1.00  0.00    -0.347 C  
HETATM    8  C   UNL     1     -12.283  13.675  70.513  1.00  0.00    -0.368 C  
HETATM    9  C   UNL     1     -13.844  15.542  71.104  1.00  0.00    -0.348 C  
HETATM   10  O   UNL     1     -12.426  12.673  71.197  1.00  0.00    -0.348 OA 
HETATM   11  N   UNL     1     -12.011  13.734  69.169  1.00  0.00    -0.350 N  
HETATM   12  C   UNL     1     -14.110  15.437  72.597  1.00  0.00    -0.519 C  
HETATM   13  C   UNL     1     -12.828  15.976  73.209  1.00  0.00    -0.649 C  
HETATM   14  C   UNL     1     -11.712  15.439  72.311  1.00  0.00    -0.564 C  
BRANCH  11  15
HETATM   15  C   UNL     1     -12.016  12.539  68.328  1.00  0.00    -0.221 C  
BRANCH  15  16
HETATM   16  C   UNL     1     -10.943  11.545  68.735  1.00  0.00    -0.271 A  
HETATM   17  C   UNL     1      -9.594  11.802  68.498  1.00  0.00    -0.173 A  
HETATM   18  C   UNL     1      -8.635  10.787  68.629  1.00  0.00    -0.151 A  
HETATM   19  C   UNL     1      -8.971   9.491  69.068  1.00  0.00    -0.144 A  
HETATM   20  C   UNL     1     -10.290   9.323  69.512  1.00  0.00    -0.223 A  
HETATM   21  C   UNL     1     -11.274  10.306  69.298  1.00  0.00    -0.281 A  
BRANCH  19  22
HETATM   22  C   UNL     1      -7.970   8.373  68.989  1.00  0.00    -0.111 A  
HETATM   23  C   UNL     1      -7.721   7.776  67.726  1.00  0.00    -0.122 A  
HETATM   24  C   UNL     1      -6.900   6.653  67.562  1.00  0.00    -0.076 A  
HETATM   25  C   UNL     1      -6.255   6.105  68.655  1.00  0.00    -0.036 A  
HETATM   26  C   UNL     1      -6.437   6.681  69.907  1.00  0.00    -0.044 A  
HETATM   27  C   UNL     1      -7.296   7.795  70.103  1.00  0.00    -0.071 A  
BRANCH  27  28
HETATM   28  C   UNL     1      -7.440   8.230  71.491  1.00  0.00    -0.090 A  
HETATM   29  N   UNL     1      -6.543   9.017  72.122  1.00  0.00    -0.281 NA 
HETATM   30  N   UNL     1      -7.103   9.091  73.337  1.00  0.00    -0.248 NA 
HETATM   31  H   UNL     1      -6.681   9.628  74.094  1.00  0.00     0.000 HD 
HETATM   32  N   UNL     1      -8.246   8.421  73.498  1.00  0.00    -0.374 NA 
HETATM   33  N   UNL     1      -8.456   7.833  72.329  1.00  0.00    -0.118 NA 
ENDBRANCH  27  28
ENDBRANCH  19  22
ENDBRANCH  15  16
ENDBRANCH  11  15
ENDBRANCH   4   5
ENDBRANCH   3   4
ENDBRANCH   2   3
TORSDOF 7
ENDMDL
MODEL      107
REMARK 921   NORMALIZED FREE ENERGY PREDICTED BY IDOCK:   -5.30 KCAL/MOL
REMARK 922        TOTAL FREE ENERGY PREDICTED BY IDOCK:   -9.42 KCAL/MOL
REMARK 923 INTER-LIGAND FREE ENERGY PREDICTED BY IDOCK:   -8.04 KCAL/MOL
REMARK 924 INTRA-LIGAND FREE ENERGY PREDICTED BY IDOCK:   -1.38 KCAL/MOL
REMARK 927      BINDING AFFINITY PREDICTED BY RF-SCORE:    0.00 PKD
ROOT
HETATM    1  C   UNL     1      -7.675  16.261  67.083  1.00  0.00    -0.223 C  
HETATM    2  C   UNL     1      -9.072  15.679  67.171  1.00  0.00    -0.227 C  
ENDROOT
BRANCH   2   3
HETATM    3  C   UNL     1      -9.197  14.713  68.345  1.00  0.00    -0.197 C  
BRANCH   3   4
HETATM    4  C   UNL     1     -10.359  13.743  68.161  1.00  0.00    -0.252 C  
BRANCH   4   5
HETATM    5  C   UNL     1     -11.238  13.744  69.380  1.00  0.00    -0.207 C  
HETATM    6  N   UNL     1     -11.273  14.800  70.137  1.00  0.00    -0.240 NA 
HETATM    7  C   UNL     1     -12.279  14.481  71.180  1.00  0.00    -0.345 C  
HETATM    8  C   UNL     1     -12.521  12.995  70.981  1.00  0.00    -0.296 C  
HETATM    9  C   UNL     1     -13.563  15.271  70.904  1.00  0.00    -0.402 C  
HETATM   10  O   UNL     1     -13.065  12.226  71.760  1.00  0.00    -0.425 OA 
HETATM   11  N   UNL     1     -12.007  12.701  69.744  1.00  0.00    -0.317 N  
HETATM   12  C   UNL     1     -14.112  15.551  72.294  1.00  0.00    -0.637 C  
HETATM   13  C   UNL     1     -12.861  15.873  73.094  1.00  0.00    -0.643 C  
HETATM   14  C   UNL     1     -11.802  14.901  72.570  1.00  0.00    -0.337 C  
BRANCH  11  15
HETATM   15  C   UNL     1     -12.202  11.395  69.118  1.00  0.00    -0.175 C  
BRANCH  15  16
HETATM   16  C   UNL     1     -11.348  10.316  69.759  1.00  0.00    -0.334 A  
HETATM   17  C   UNL     1     -11.929   9.258  70.457  1.00  0.00    -0.115 A  
HETATM   18  C   UNL     1     -11.150   8.416  71.264  1.00  0.00    -0.307 A  
HETATM   19  C   UNL     1      -9.750   8.551  71.355  1.00  0.00    -0.287 A  
HETATM   20  C   UNL     1      -9.170   9.475  70.474  1.00  0.00    -0.284 A  
HETATM   21  C   UNL     1      -9.950  10.381  69.733  1.00  0.00    -0.167 A  
BRANCH  19  22
HETATM   22  C   UNL     1      -8.973   7.784  72.388  1.00  0.00    -0.202 A  
HETATM   23  C   UNL     1      -8.600   8.448  73.586  1.00  0.00    -0.153 A  
HETATM   24  C   UNL     1      -7.777   7.865  74.557  1.00  0.00    -0.254 A  
HETATM   25  C   UNL     1      -7.326   6.569  74.389  1.00  0.00    -0.099 A  
HETATM   26  C   UNL     1      -7.700   5.863  73.251  1.00  0.00    -0.098 A  
HETATM   27  C   UNL     1      -8.500   6.449  72.235  1.00  0.00    -0.110 A  
BRANCH  27  28
HETATM   28  C   UNL     1      -8.736   5.603  71.067  1.00  0.00    -0.134 A  
HETATM   29  N   UNL     1      -7.959   5.624  69.963  1.00  0.00    -0.089 NA 
HETATM   30  N   UNL     1      -8.598   4.724  69.203  1.00  0.00    -0.080 NA 
HETATM   31  H   UNL     1      -8.272   4.477  68.269  1.00  0.00     0.000 HD 
HETATM   32  N   UNL     1      -9.686   4.168  69.741  1.00  0.00    -0.215 NA 
HETATM   33  N   UNL     1      -9.806   4.751  70.926  1.00  0.00    -0.195 NA 
ENDBRANCH  27  28
ENDBRANCH  19  22
ENDBRANCH  15  16
ENDBRANCH  11  15
ENDBRANCH   4   5
ENDBRANCH   3   4
ENDBRANCH   2   3
TORSDOF 7
ENDMDL
MODEL      108
REMARK 921   NORMALIZED FREE ENERGY PREDICTED BY IDOCK:   -5.29 KCAL/MOL
REMARK 922        TOTAL FREE ENERGY PREDICTED BY IDOCK:   -9.40 KCAL/MOL
REMARK 923 INTER-LIGAND FREE ENERGY PREDICTED BY IDOCK:   -8.16 KCAL/MOL
REMARK 924 INTRA-LIGAND FREE ENERGY PREDICTED BY IDOCK:   -1.24 KCAL/MOL
REMARK 927      BINDING AFFINITY PREDICTED BY RF-SCORE:    0.00 PKD
ROOT
HETATM    1  C   UNL     1      -7.943   3.246  64.768  1.00  0.00    -0.086 C  
HETATM    2  C   UNL     1      -8.932   4.393  64.809  1.00  0.00    -0.149 C  
ENDROOT
BRANCH   2   3
HETATM    3  C   UNL     1     -10.082   4.100  65.768  1.00  0.00    -0.179 C  
BRANCH   3   4
HETATM    4  C   UNL     1     -10.558   5.358  66.486  1.00  0.00    -0.353 C  
BRANCH   4   5
HETATM    5  C   UNL     1      -9.763   5.572  67.743  1.00  0.00    -0.130 C  
HETATM    6  N   UNL     1     -10.062   4.890  68.808  1.00  0.00    -0.137 NA 
HETATM    7  C   UNL     1      -9.047   5.295  69.812  1.00  0.00    -0.116 C  
HETATM    8  C   UNL     1      -8.379   6.494  69.160  1.00  0.00    -0.119 C  
HETATM    9  C   UNL     1      -8.035   4.159  69.996  1.00  0.00    -0.055 C  
HETATM   10  O   UNL     1      -7.666   7.326  69.702  1.00  0.00    -0.100 OA 
HETATM   11  N   UNL     1      -8.740   6.442  67.837  1.00  0.00    -0.116 N  
HETATM   12  C   UNL     1      -7.643   4.269  71.461  1.00  0.00    -0.068 C  
HETATM   13  C   UNL     1      -8.963   4.589  72.143  1.00  0.00    -0.145 C  
HETATM   14  C   UNL     1      -9.676   5.543  71.182  1.00  0.00    -0.226 C  
BRANCH  11  15
HETATM   15  C   UNL     1      -8.154   7.337  66.843  1.00  0.00    -0.120 C  
BRANCH  15  16
HETATM   16  C   UNL     1      -8.892   8.661  66.752  1.00  0.00    -0.152 A  
HETATM   17  C   UNL     1      -8.227   9.834  66.399  1.00  0.00    -0.120 A  
HETATM   18  C   UNL     1      -8.838  11.085  66.569  1.00  0.00    -0.173 A  
HETATM   19  C   UNL     1     -10.162  11.215  67.034  1.00  0.00    -0.251 A  
HETATM   20  C   UNL     1     -10.880  10.018  67.168  1.00  0.00    -0.240 A  
HETATM   21  C   UNL     1     -10.248   8.763  67.087  1.00  0.00    -0.346 A  
BRANCH  19  22
HETATM   22  C   UNL     1     -10.711  12.561  67.413  1.00  0.00    -0.254 A  
HETATM   23  C   UNL     1     -10.532  13.015  68.746  1.00  0.00    -0.186 A  
HETATM   24  C   UNL     1     -11.105  14.196  69.233  1.00  0.00    -0.286 A  
HETATM   25  C   UNL     1     -11.849  15.000  68.390  1.00  0.00    -0.298 A  
HETATM   26  C   UNL     1     -12.017  14.618  67.064  1.00  0.00    -0.301 A  
HETATM   27  C   UNL     1     -11.479  13.405  66.559  1.00  0.00    -0.372 A  
BRANCH  27  28
HETATM   28  C   UNL     1     -11.814  13.109  65.167  1.00  0.00    -0.359 A  
HETATM   29  N   UNL     1     -11.056  13.499  64.120  1.00  0.00    -0.338 NA 
HETATM   30  N   UNL     1     -11.791  13.026  63.104  1.00  0.00    -0.853 NA 
HETATM   31  H   UNL     1     -11.506  13.141  62.132  1.00  0.00     0.000 HD 
HETATM   32  N   UNL     1     -12.919  12.395  63.440  1.00  0.00    -0.690 NA 
HETATM   33  N   UNL     1     -12.964  12.473  64.762  1.00  0.00    -0.842 NA 
ENDBRANCH  27  28
ENDBRANCH  19  22
ENDBRANCH  15  16
ENDBRANCH  11  15
ENDBRANCH   4   5
ENDBRANCH   3   4
ENDBRANCH   2   3
TORSDOF 7
ENDMDL
MODEL      109
REMARK 921   NORMALIZED FREE ENERGY PREDICTED BY IDOCK:   -5.28 KCAL/MOL
REMARK 922        TOTAL FREE ENERGY PREDICTED BY IDOCK:   -9.39 KCAL/MOL
REMARK 923 INTER-LIGAND FREE ENERGY PREDICTED BY IDOCK:   -8.69 KCAL/MOL
REMARK 924 INTRA-LIGAND FREE ENERGY PREDICTED BY IDOCK:   -0.70 KCAL/MOL
REMARK 927      BINDING AFFINITY PREDICTED BY RF-SCORE:    0.00 PKD
ROOT
HETATM    1  C   UNL     1     -13.668  13.857  72.542  1.00  0.00    -0.665 C  
HETATM    2  C   UNL     1     -14.126  12.468  72.147  1.00  0.00     0.175 C  
ENDROOT
BRANCH   2   3
HETATM    3  C   UNL     1     -13.047  11.732  71.357  1.00  0.00    -0.322 C  
BRANCH   3   4
HETATM    4  C   UNL     1     -13.479  10.317  70.988  1.00  0.00    -0.172 C  
BRANCH   4   5
HETATM    5  C   UNL     1     -12.307   9.379  71.058  1.00  0.00    -0.258 C  
HETATM    6  N   UNL     1     -12.056   8.758  72.172  1.00  0.00    -0.367 NA 
HETATM    7  C   UNL     1     -10.901   7.881  71.861  1.00  0.00    -0.243 C  
HETATM    8  C   UNL     1     -10.447   8.379  70.500  1.00  0.00    -0.207 C  
HETATM    9  C   UNL     1     -11.381   6.428  71.762  1.00  0.00    -0.337 C  
HETATM   10  O   UNL     1      -9.381   8.149  69.949  1.00  0.00    -0.158 OA 
HETATM   11  N   UNL     1     -11.487   9.135  70.019  1.00  0.00    -0.093 N  
HETATM   12  C   UNL     1     -10.196   5.628  72.276  1.00  0.00    -0.241 C  
HETATM   13  C   UNL     1      -9.699   6.468  73.441  1.00  0.00    -0.186 C  
HETATM   14  C   UNL     1      -9.851   7.916  72.970  1.00  0.00    -0.355 C  
BRANCH  11  15
HETATM   15  C   UNL     1     -11.498   9.650  68.653  1.00  0.00     0.291 C  
BRANCH  15  16
HETATM   16  C   UNL     1     -11.040  11.096  68.579  1.00  0.00    -0.298 A  
HETATM   17  C   UNL     1     -11.960  12.142  68.540  1.00  0.00    -0.273 A  
HETATM   18  C   UNL     1     -11.554  13.444  68.209  1.00  0.00    -0.379 A  
HETATM   19  C   UNL     1     -10.204  13.770  67.971  1.00  0.00    -0.248 A  
HETATM   20  C   UNL     1      -9.277  12.752  68.236  1.00  0.00    -0.186 A  
HETATM   21  C   UNL     1      -9.683  11.426  68.477  1.00  0.00    -0.199 A  
BRANCH  19  22
HETATM   22  C   UNL     1      -9.829  15.112  67.409  1.00  0.00    -0.224 A  
HETATM   23  C   UNL     1      -9.103  16.012  68.231  1.00  0.00    -0.191 A  
HETATM   24  C   UNL     1      -8.807  17.326  67.848  1.00  0.00    -0.235 A  
HETATM   25  C   UNL     1      -9.190  17.783  66.601  1.00  0.00    -0.280 A  
HETATM   26  C   UNL     1      -9.867  16.923  65.743  1.00  0.00    -0.166 A  
HETATM   27  C   UNL     1     -10.211  15.600  66.126  1.00  0.00    -0.327 A  
BRANCH  27  28
HETATM   28  C   UNL     1     -10.993  14.853  65.142  1.00  0.00    -0.399 A  
HETATM   29  N   UNL     1     -12.030  15.382  64.458  1.00  0.00    -0.306 NA 
HETATM   30  N   UNL     1     -12.411  14.317  63.739  1.00  0.00    -1.063 NA 
HETATM   31  H   UNL     1     -13.192  14.359  63.086  1.00  0.00     0.000 HD 
HETATM   32  N   UNL     1     -11.706  13.200  63.929  1.00  0.00    -0.440 NA 
HETATM   33  N   UNL     1     -10.813  13.521  64.855  1.00  0.00    -0.341 NA 
ENDBRANCH  27  28
ENDBRANCH  19  22
ENDBRANCH  15  16
ENDBRANCH  11  15
ENDBRANCH   4   5
ENDBRANCH   3   4
ENDBRANCH   2   3
TORSDOF 7
ENDMDL
MODEL      110
REMARK 921   NORMALIZED FREE ENERGY PREDICTED BY IDOCK:   -5.26 KCAL/MOL
REMARK 922        TOTAL FREE ENERGY PREDICTED BY IDOCK:   -9.36 KCAL/MOL
REMARK 923 INTER-LIGAND FREE ENERGY PREDICTED BY IDOCK:   -7.97 KCAL/MOL
REMARK 924 INTRA-LIGAND FREE ENERGY PREDICTED BY IDOCK:   -1.39 KCAL/MOL
REMARK 927      BINDING AFFINITY PREDICTED BY RF-SCORE:    0.00 PKD
ROOT
HETATM    1  C   UNL     1     -10.639   7.246  73.221  1.00  0.00    -0.428 C  
HETATM    2  C   UNL     1      -9.843   8.370  72.588  1.00  0.00    -0.329 C  
ENDROOT
BRANCH   2   3
HETATM    3  C   UNL     1      -8.423   7.923  72.253  1.00  0.00    -0.185 C  
BRANCH   3   4
HETATM    4  C   UNL     1      -7.936   8.519  70.937  1.00  0.00    -0.120 C  
BRANCH   4   5
HETATM    5  C   UNL     1      -7.979   7.484  69.848  1.00  0.00    -0.123 C  
HETATM    6  N   UNL     1      -6.899   6.826  69.553  1.00  0.00    -0.053 NA 
HETATM    7  C   UNL     1      -7.319   5.859  68.510  1.00  0.00    -0.085 C  
HETATM    8  C   UNL     1      -8.711   6.340  68.137  1.00  0.00    -0.115 C  
HETATM    9  C   UNL     1      -7.388   4.454  69.120  1.00  0.00    -0.055 C  
HETATM   10  O   UNL     1      -9.358   6.030  67.147  1.00  0.00    -0.115 OA 
HETATM   11  N   UNL     1      -9.090   7.188  69.147  1.00  0.00    -0.137 N  
HETATM   12  C   UNL     1      -6.990   3.548  67.966  1.00  0.00    -0.050 C  
HETATM   13  C   UNL     1      -5.867   4.323  67.298  1.00  0.00    -0.023 C  
HETATM   14  C   UNL     1      -6.309   5.786  67.367  1.00  0.00    -0.042 C  
BRANCH  11  15
HETATM   15  C   UNL     1     -10.445   7.726  69.235  1.00  0.00    -0.217 C  
BRANCH  15  16
HETATM   16  C   UNL     1     -10.552   9.120  68.643  1.00  0.00    -0.207 A  
HETATM   17  C   UNL     1     -10.441   9.331  67.270  1.00  0.00    -0.334 A  
HETATM   18  C   UNL     1     -10.276  10.624  66.752  1.00  0.00    -0.284 A  
HETATM   19  C   UNL     1     -10.284  11.767  67.576  1.00  0.00    -0.214 A  
HETATM   20  C   UNL     1     -10.620  11.546  68.919  1.00  0.00    -0.236 A  
HETATM   21  C   UNL     1     -10.695  10.249  69.459  1.00  0.00    -0.280 A  
BRANCH  19  22
HETATM   22  C   UNL     1      -9.888  13.109  67.027  1.00  0.00    -0.244 A  
HETATM   23  C   UNL     1      -8.918  13.869  67.731  1.00  0.00    -0.188 A  
HETATM   24  C   UNL     1      -8.568  15.176  67.372  1.00  0.00    -0.201 A  
HETATM   25  C   UNL     1      -9.143  15.765  66.262  1.00  0.00    -0.373 A  
HETATM   26  C   UNL     1     -10.069  15.043  65.516  1.00  0.00    -0.400 A  
HETATM   27  C   UNL     1     -10.468  13.731  65.884  1.00  0.00    -0.300 A  
BRANCH  27  28
HETATM   28  C   UNL     1     -11.509  13.141  65.044  1.00  0.00    -0.308 A  
HETATM   29  N   UNL     1     -12.804  13.050  65.415  1.00  0.00    -0.643 NA 
HETATM   30  N   UNL     1     -13.316  12.424  64.346  1.00  0.00    -0.606 NA 
HETATM   31  H   UNL     1     -14.306  12.190  64.281  1.00  0.00     0.000 HD 
HETATM   32  N   UNL     1     -12.453  12.127  63.372  1.00  0.00    -0.655 NA 
HETATM   33  N   UNL     1     -11.281  12.551  63.823  1.00  0.00    -0.427 NA 
ENDBRANCH  27  28
ENDBRANCH  19  22
ENDBRANCH  15  16
ENDBRANCH  11  15
ENDBRANCH   4   5
ENDBRANCH   3   4
ENDBRANCH   2   3
TORSDOF 7
ENDMDL
MODEL      111
REMARK 921   NORMALIZED FREE ENERGY PREDICTED BY IDOCK:   -5.26 KCAL/MOL
REMARK 922        TOTAL FREE ENERGY PREDICTED BY IDOCK:   -9.36 KCAL/MOL
REMARK 923 INTER-LIGAND FREE ENERGY PREDICTED BY IDOCK:   -8.09 KCAL/MOL
REMARK 924 INTRA-LIGAND FREE ENERGY PREDICTED BY IDOCK:   -1.27 KCAL/MOL
REMARK 927      BINDING AFFINITY PREDICTED BY RF-SCORE:    0.00 PKD
ROOT
HETATM    1  C   UNL     1     -10.118  11.792  63.332  1.00  0.00    -0.470 C  
HETATM    2  C   UNL     1      -9.925  12.031  64.816  1.00  0.00    -0.241 C  
ENDROOT
BRANCH   2   3
HETATM    3  C   UNL     1     -10.671  10.992  65.647  1.00  0.00    -0.217 C  
BRANCH   3   4
HETATM    4  C   UNL     1      -9.879   9.696  65.781  1.00  0.00    -0.373 C  
BRANCH   4   5
HETATM    5  C   UNL     1      -9.677   9.356  67.231  1.00  0.00    -0.165 C  
HETATM    6  N   UNL     1     -10.549   8.606  67.835  1.00  0.00    -0.199 NA 
HETATM    7  C   UNL     1     -10.003   8.421  69.202  1.00  0.00    -0.196 C  
HETATM    8  C   UNL     1      -8.870   9.431  69.259  1.00  0.00    -0.150 C  
HETATM    9  C   UNL     1      -9.452   6.997  69.338  1.00  0.00    -0.145 C  
HETATM   10  O   UNL     1      -8.294   9.837  70.258  1.00  0.00    -0.189 OA 
HETATM   11  N   UNL     1      -8.628   9.787  67.956  1.00  0.00    -0.122 N  
HETATM   12  C   UNL     1      -9.714   6.654  70.796  1.00  0.00    -0.190 C  
HETATM   13  C   UNL     1     -11.090   7.250  71.042  1.00  0.00    -0.281 C  
HETATM   14  C   UNL     1     -11.087   8.570  70.268  1.00  0.00    -0.222 C  
BRANCH  11  15
HETATM   15  C   UNL     1      -7.487  10.619  67.583  1.00  0.00    -0.091 C  
BRANCH  15  16
HETATM   16  C   UNL     1      -7.740  12.093  67.844  1.00  0.00    -0.134 A  
HETATM   17  C   UNL     1      -8.950  12.534  68.378  1.00  0.00    -0.130 A  
HETATM   18  C   UNL     1      -9.284  13.896  68.374  1.00  0.00    -0.194 A  
HETATM   19  C   UNL     1      -8.397  14.883  67.900  1.00  0.00    -0.149 A  
HETATM   20  C   UNL     1      -7.107  14.437  67.578  1.00  0.00    -0.197 A  
HETATM   21  C   UNL     1      -6.797  13.068  67.494  1.00  0.00    -0.156 A  
BRANCH  19  22
HETATM   22  C   UNL     1      -8.862  16.299  67.704  1.00  0.00    -0.195 A  
HETATM   23  C   UNL     1      -8.205  17.332  68.422  1.00  0.00    -0.260 A  
HETATM   24  C   UNL     1      -8.635  18.665  68.403  1.00  0.00    -0.366 A  
HETATM   25  C   UNL     1      -9.718  19.029  67.626  1.00  0.00    -0.373 A  
HETATM   26  C   UNL     1     -10.367  18.058  66.871  1.00  0.00    -0.377 A  
HETATM   27  C   UNL     1      -9.974  16.695  66.906  1.00  0.00    -0.272 A  
BRANCH  27  28
HETATM   28  C   UNL     1     -10.809  15.788  66.121  1.00  0.00    -0.240 A  
HETATM   29  N   UNL     1     -10.777  15.726  64.772  1.00  0.00    -0.526 NA 
HETATM   30  N   UNL     1     -11.719  14.799  64.553  1.00  0.00    -0.571 NA 
HETATM   31  H   UNL     1     -11.964  14.491  63.612  1.00  0.00     0.000 HD 
HETATM   32  N   UNL     1     -12.317  14.302  65.638  1.00  0.00    -0.420 NA 
HETATM   33  N   UNL     1     -11.766  14.956  66.651  1.00  0.00    -0.280 NA 
ENDBRANCH  27  28
ENDBRANCH  19  22
ENDBRANCH  15  16
ENDBRANCH  11  15
ENDBRANCH   4   5
ENDBRANCH   3   4
ENDBRANCH   2   3
TORSDOF 7
ENDMDL
MODEL      112
REMARK 921   NORMALIZED FREE ENERGY PREDICTED BY IDOCK:   -5.26 KCAL/MOL
REMARK 922        TOTAL FREE ENERGY PREDICTED BY IDOCK:   -9.35 KCAL/MOL
REMARK 923 INTER-LIGAND FREE ENERGY PREDICTED BY IDOCK:   -7.85 KCAL/MOL
REMARK 924 INTRA-LIGAND FREE ENERGY PREDICTED BY IDOCK:   -1.51 KCAL/MOL
REMARK 927      BINDING AFFINITY PREDICTED BY RF-SCORE:    0.00 PKD
ROOT
HETATM    1  C   UNL     1     -13.081  14.282  71.328  1.00  0.00    -0.425 C  
HETATM    2  C   UNL     1     -11.728  14.107  70.668  1.00  0.00    -0.259 C  
ENDROOT
BRANCH   2   3
HETATM    3  C   UNL     1     -11.868  13.548  69.255  1.00  0.00    -0.392 C  
BRANCH   3   4
HETATM    4  C   UNL     1     -12.379  14.600  68.276  1.00  0.00     0.041 C  
BRANCH   4   5
HETATM    5  C   UNL     1     -11.263  15.524  67.876  1.00  0.00    -0.325 C  
HETATM    6  N   UNL     1     -10.931  16.500  68.667  1.00  0.00    -0.344 NA 
HETATM    7  C   UNL     1      -9.772  17.145  68.003  1.00  0.00    -0.274 C  
HETATM    8  C   UNL     1      -9.768  16.509  66.624  1.00  0.00    -0.260 C  
HETATM    9  C   UNL     1      -8.488  16.782  68.759  1.00  0.00    -0.253 C  
HETATM   10  O   UNL     1      -9.170  16.901  65.633  1.00  0.00    -0.512 OA 
HETATM   11  N   UNL     1     -10.571  15.402  66.727  1.00  0.00    -0.305 N  
HETATM   12  C   UNL     1      -7.620  18.019  68.597  1.00  0.00    -0.297 C  
HETATM   13  C   UNL     1      -8.616  19.156  68.753  1.00  0.00    -0.370 C  
HETATM   14  C   UNL     1      -9.878  18.669  68.037  1.00  0.00    -0.378 C  
BRANCH  11  15
HETATM   15  C   UNL     1     -10.684  14.426  65.646  1.00  0.00    -0.320 C  
BRANCH  15  16
HETATM   16  C   UNL     1     -10.326  13.022  66.097  1.00  0.00    -0.285 A  
HETATM   17  C   UNL     1      -9.175  12.776  66.843  1.00  0.00    -0.229 A  
HETATM   18  C   UNL     1      -8.708  11.467  67.034  1.00  0.00    -0.169 A  
HETATM   19  C   UNL     1      -9.406  10.345  66.546  1.00  0.00    -0.193 A  
HETATM   20  C   UNL     1     -10.669  10.606  65.997  1.00  0.00    -0.127 A  
HETATM   21  C   UNL     1     -11.100  11.916  65.722  1.00  0.00    -0.367 A  
BRANCH  19  22
HETATM   22  C   UNL     1      -8.775   8.980  66.572  1.00  0.00    -0.144 A  
HETATM   23  C   UNL     1      -8.542   8.319  65.339  1.00  0.00    -0.176 A  
HETATM   24  C   UNL     1      -8.071   7.002  65.257  1.00  0.00    -0.134 A  
HETATM   25  C   UNL     1      -7.771   6.304  66.412  1.00  0.00    -0.099 A  
HETATM   26  C   UNL     1      -7.944   6.927  67.643  1.00  0.00    -0.113 A  
HETATM   27  C   UNL     1      -8.457   8.246  67.751  1.00  0.00    -0.131 A  
BRANCH  27  28
HETATM   28  C   UNL     1      -8.656   8.724  69.118  1.00  0.00    -0.128 A  
HETATM   29  N   UNL     1      -7.663   9.227  69.883  1.00  0.00    -0.088 NA 
HETATM   30  N   UNL     1      -8.336   9.477  71.014  1.00  0.00    -0.340 NA 
HETATM   31  H   UNL     1      -7.882   9.880  71.834  1.00  0.00     0.000 HD 
HETATM   32  N   UNL     1      -9.634   9.169  71.005  1.00  0.00    -0.274 NA 
HETATM   33  N   UNL     1      -9.846   8.651  69.803  1.00  0.00    -0.180 NA 
ENDBRANCH  27  28
ENDBRANCH  19  22
ENDBRANCH  15  16
ENDBRANCH  11  15
ENDBRANCH   4   5
ENDBRANCH   3   4
ENDBRANCH   2   3
TORSDOF 7
ENDMDL
MODEL      113
REMARK 921   NORMALIZED FREE ENERGY PREDICTED BY IDOCK:   -5.25 KCAL/MOL
REMARK 922        TOTAL FREE ENERGY PREDICTED BY IDOCK:   -9.35 KCAL/MOL
REMARK 923 INTER-LIGAND FREE ENERGY PREDICTED BY IDOCK:   -8.68 KCAL/MOL
REMARK 924 INTRA-LIGAND FREE ENERGY PREDICTED BY IDOCK:   -0.67 KCAL/MOL
REMARK 927      BINDING AFFINITY PREDICTED BY RF-SCORE:    0.00 PKD
ROOT
HETATM    1  C   UNL     1     -13.181  15.760  73.086  1.00  0.00    -0.694 C  
HETATM    2  C   UNL     1     -14.224  15.235  72.121  1.00  0.00    -0.667 C  
ENDROOT
BRANCH   2   3
HETATM    3  C   UNL     1     -13.783  13.917  71.491  1.00  0.00    -0.323 C  
BRANCH   3   4
HETATM    4  C   UNL     1     -12.275  13.868  71.275  1.00  0.00    -0.353 C  
BRANCH   4   5
HETATM    5  C   UNL     1     -11.963  13.398  69.882  1.00  0.00    -0.338 C  
HETATM    6  N   UNL     1     -11.559  14.259  68.997  1.00  0.00    -0.285 NA 
HETATM    7  C   UNL     1     -11.280  13.450  67.785  1.00  0.00    -0.279 C  
HETATM    8  C   UNL     1     -11.882  12.098  68.128  1.00  0.00    -0.299 C  
HETATM    9  C   UNL     1      -9.764  13.324  67.598  1.00  0.00    -0.219 C  
HETATM   10  O   UNL     1     -12.134  11.186  67.355  1.00  0.00    -0.349 OA 
HETATM   11  N   UNL     1     -12.076  12.116  69.486  1.00  0.00    -0.244 N  
HETATM   12  C   UNL     1      -9.596  13.280  66.087  1.00  0.00    -0.211 C  
HETATM   13  C   UNL     1     -10.609  14.305  65.604  1.00  0.00    -0.328 C  
HETATM   14  C   UNL     1     -11.819  14.120  66.522  1.00  0.00    -0.439 C  
BRANCH  11  15
HETATM   15  C   UNL     1     -12.484  10.923  70.223  1.00  0.00    -0.303 C  
BRANCH  15  16
HETATM   16  C   UNL     1     -11.298  10.155  70.780  1.00  0.00    -0.436 A  
HETATM   17  C   UNL     1     -10.040  10.243  70.187  1.00  0.00    -0.099 A  
HETATM   18  C   UNL     1      -9.019   9.345  70.530  1.00  0.00    -0.303 A  
HETATM   19  C   UNL     1      -9.188   8.366  71.529  1.00  0.00    -0.257 A  
HETATM   20  C   UNL     1     -10.381   8.445  72.262  1.00  0.00    -0.403 A  
HETATM   21  C   UNL     1     -11.441   9.280  71.863  1.00  0.00    -0.382 A  
BRANCH  19  22
HETATM   22  C   UNL     1      -8.163   7.284  71.722  1.00  0.00    -0.105 A  
HETATM   23  C   UNL     1      -6.857   7.489  71.204  1.00  0.00    -0.050 A  
HETATM   24  C   UNL     1      -5.865   6.501  71.224  1.00  0.00    -0.028 A  
HETATM   25  C   UNL     1      -6.125   5.275  71.807  1.00  0.00    -0.026 A  
HETATM   26  C   UNL     1      -7.378   5.043  72.366  1.00  0.00    -0.092 A  
HETATM   27  C   UNL     1      -8.410   6.016  72.321  1.00  0.00    -0.113 A  
BRANCH  27  28
HETATM   28  C   UNL     1      -9.691   5.587  72.880  1.00  0.00    -0.154 A  
HETATM   29  N   UNL     1      -9.978   5.624  74.199  1.00  0.00    -0.202 NA 
HETATM   30  N   UNL     1     -11.216   5.111  74.189  1.00  0.00    -0.313 NA 
HETATM   31  H   UNL     1     -11.758   4.992  75.044  1.00  0.00     0.000 HD 
HETATM   32  N   UNL     1     -11.698   4.764  72.993  1.00  0.00    -0.194 NA 
HETATM   33  N   UNL     1     -10.714   5.032  72.146  1.00  0.00    -0.194 NA 
ENDBRANCH  27  28
ENDBRANCH  19  22
ENDBRANCH  15  16
ENDBRANCH  11  15
ENDBRANCH   4   5
ENDBRANCH   3   4
ENDBRANCH   2   3
TORSDOF 7
ENDMDL
MODEL      114
REMARK 921   NORMALIZED FREE ENERGY PREDICTED BY IDOCK:   -5.25 KCAL/MOL
REMARK 922        TOTAL FREE ENERGY PREDICTED BY IDOCK:   -9.34 KCAL/MOL
REMARK 923 INTER-LIGAND FREE ENERGY PREDICTED BY IDOCK:   -7.91 KCAL/MOL
REMARK 924 INTRA-LIGAND FREE ENERGY PREDICTED BY IDOCK:   -1.43 KCAL/MOL
REMARK 927      BINDING AFFINITY PREDICTED BY RF-SCORE:    0.00 PKD
ROOT
HETATM    1  C   UNL     1     -12.174  12.650  65.445  1.00  0.00    -0.517 C  
HETATM    2  C   UNL     1     -11.918  13.239  66.817  1.00  0.00    -0.438 C  
ENDROOT
BRANCH   2   3
HETATM    3  C   UNL     1     -11.602  12.150  67.838  1.00  0.00    -0.413 C  
BRANCH   3   4
HETATM    4  C   UNL     1     -11.086  10.879  67.171  1.00  0.00    -0.308 C  
BRANCH   4   5
HETATM    5  C   UNL     1      -9.585  10.834  67.227  1.00  0.00    -0.160 C  
HETATM    6  N   UNL     1      -8.934  11.860  67.688  1.00  0.00    -0.163 NA 
HETATM    7  C   UNL     1      -7.511  11.444  67.666  1.00  0.00    -0.103 C  
HETATM    8  C   UNL     1      -7.540  10.159  66.856  1.00  0.00    -0.100 C  
HETATM    9  C   UNL     1      -7.045  11.159  69.098  1.00  0.00    -0.116 C  
HETATM   10  O   UNL     1      -6.588   9.587  66.346  1.00  0.00    -0.069 OA 
HETATM   11  N   UNL     1      -8.857   9.775  66.824  1.00  0.00    -0.137 N  
HETATM   12  C   UNL     1      -5.581  11.571  69.083  1.00  0.00    -0.048 C  
HETATM   13  C   UNL     1      -5.594  12.835  68.240  1.00  0.00    -0.070 C  
HETATM   14  C   UNL     1      -6.607  12.553  67.129  1.00  0.00    -0.061 C  
BRANCH  11  15
HETATM   15  C   UNL     1      -9.271   8.485  66.278  1.00  0.00    -0.207 C  
BRANCH  15  16
HETATM   16  C   UNL     1      -9.506   7.449  67.362  1.00  0.00    -0.170 A  
HETATM   17  C   UNL     1     -10.788   6.980  67.645  1.00  0.00    -0.312 A  
HETATM   18  C   UNL     1     -11.040   6.233  68.805  1.00  0.00    -0.424 A  
HETATM   19  C   UNL     1     -10.012   5.863  69.695  1.00  0.00    -0.234 A  
HETATM   20  C   UNL     1      -8.708   6.154  69.273  1.00  0.00    -0.122 A  
HETATM   21  C   UNL     1      -8.457   6.979  68.162  1.00  0.00    -0.129 A  
BRANCH  19  22
HETATM   22  C   UNL     1     -10.339   5.257  71.031  1.00  0.00    -0.298 A  
HETATM   23  C   UNL     1      -9.786   3.990  71.353  1.00  0.00    -0.253 A  
HETATM   24  C   UNL     1     -10.120   3.286  72.517  1.00  0.00    -0.229 A  
HETATM   25  C   UNL     1     -10.992   3.842  73.433  1.00  0.00    -0.327 A  
HETATM   26  C   UNL     1     -11.528   5.101  73.181  1.00  0.00    -0.348 A  
HETATM   27  C   UNL     1     -11.234   5.815  71.989  1.00  0.00    -0.307 A  
BRANCH  27  28
HETATM   28  C   UNL     1     -11.940   7.086  71.838  1.00  0.00    -0.320 A  
HETATM   29  N   UNL     1     -13.235   7.179  71.468  1.00  0.00    -0.384 NA 
HETATM   30  N   UNL     1     -13.382   8.511  71.445  1.00  0.00    -0.493 NA 
HETATM   31  H   UNL     1     -14.269   8.952  71.202  1.00  0.00     0.000 HD 
HETATM   32  N   UNL     1     -12.300   9.226  71.762  1.00  0.00    -0.355 NA 
HETATM   33  N   UNL     1     -11.356   8.322  71.982  1.00  0.00    -0.301 NA 
ENDBRANCH  27  28
ENDBRANCH  19  22
ENDBRANCH  15  16
ENDBRANCH  11  15
ENDBRANCH   4   5
ENDBRANCH   3   4
ENDBRANCH   2   3
TORSDOF 7
ENDMDL
MODEL      115
REMARK 921   NORMALIZED FREE ENERGY PREDICTED BY IDOCK:   -5.24 KCAL/MOL
REMARK 922        TOTAL FREE ENERGY PREDICTED BY IDOCK:   -9.33 KCAL/MOL
REMARK 923 INTER-LIGAND FREE ENERGY PREDICTED BY IDOCK:   -8.95 KCAL/MOL
REMARK 924 INTRA-LIGAND FREE ENERGY PREDICTED BY IDOCK:   -0.39 KCAL/MOL
REMARK 927      BINDING AFFINITY PREDICTED BY RF-SCORE:    0.00 PKD
ROOT
HETATM    1  C   UNL     1     -14.403  14.631  71.605  1.00  0.00    -0.601 C  
HETATM    2  C   UNL     1     -13.277  15.623  71.396  1.00  0.00    -0.540 C  
ENDROOT
BRANCH   2   3
HETATM    3  C   UNL     1     -12.755  15.577  69.964  1.00  0.00    -0.149 C  
BRANCH   3   4
HETATM    4  C   UNL     1     -11.232  15.516  69.916  1.00  0.00    -0.322 C  
BRANCH   4   5
HETATM    5  C   UNL     1     -10.720  16.238  68.701  1.00  0.00    -0.309 C  
HETATM    6  N   UNL     1     -10.096  17.368  68.849  1.00  0.00    -0.331 NA 
HETATM    7  C   UNL     1      -9.676  17.749  67.478  1.00  0.00    -0.284 C  
HETATM    8  C   UNL     1     -10.439  16.771  66.601  1.00  0.00    -0.258 C  
HETATM    9  C   UNL     1      -8.166  17.528  67.331  1.00  0.00    -0.217 C  
HETATM   10  O   UNL     1     -10.627  16.853  65.396  1.00  0.00    -0.579 OA 
HETATM   11  N   UNL     1     -10.867  15.777  67.445  1.00  0.00    -0.317 N  
HETATM   12  C   UNL     1      -7.740  18.628  66.373  1.00  0.00    -0.292 C  
HETATM   13  C   UNL     1      -8.563  19.819  66.834  1.00  0.00    -0.380 C  
HETATM   14  C   UNL     1      -9.926  19.230  67.202  1.00  0.00    -0.452 C  
BRANCH  11  15
HETATM   15  C   UNL     1     -11.497  14.558  66.943  1.00  0.00    -0.364 C  
BRANCH  15  16
HETATM   16  C   UNL     1     -10.904  13.306  67.564  1.00  0.00    -0.276 A  
HETATM   17  C   UNL     1      -9.618  13.308  68.103  1.00  0.00    -0.227 A  
HETATM   18  C   UNL     1      -8.975  12.106  68.433  1.00  0.00    -0.146 A  
HETATM   19  C   UNL     1      -9.613  10.856  68.305  1.00  0.00    -0.169 A  
HETATM   20  C   UNL     1     -10.975  10.900  67.976  1.00  0.00    -0.317 A  
HETATM   21  C   UNL     1     -11.597  12.090  67.556  1.00  0.00    -0.401 A  
BRANCH  19  22
HETATM   22  C   UNL     1      -8.833   9.580  68.455  1.00  0.00    -0.124 A  
HETATM   23  C   UNL     1      -7.668   9.402  67.665  1.00  0.00    -0.088 A  
HETATM   24  C   UNL     1      -6.938   8.207  67.641  1.00  0.00    -0.078 A  
HETATM   25  C   UNL     1      -7.321   7.149  68.444  1.00  0.00    -0.100 A  
HETATM   26  C   UNL     1      -8.433   7.291  69.267  1.00  0.00    -0.133 A  
HETATM   27  C   UNL     1      -9.210   8.480  69.278  1.00  0.00    -0.153 A  
BRANCH  27  28
HETATM   28  C   UNL     1     -10.393   8.440  70.136  1.00  0.00    -0.211 A  
HETATM   29  N   UNL     1     -10.658   9.366  71.082  1.00  0.00    -0.320 NA 
HETATM   30  N   UNL     1     -11.795   8.870  71.590  1.00  0.00    -0.320 NA 
HETATM   31  H   UNL     1     -12.295   9.333  72.348  1.00  0.00     0.000 HD 
HETATM   32  N   UNL     1     -12.234   7.733  71.045  1.00  0.00    -0.261 NA 
HETATM   33  N   UNL     1     -11.323   7.427  70.132  1.00  0.00    -0.224 NA 
ENDBRANCH  27  28
ENDBRANCH  19  22
ENDBRANCH  15  16
ENDBRANCH  11  15
ENDBRANCH   4   5
ENDBRANCH   3   4
ENDBRANCH   2   3
TORSDOF 7
ENDMDL
MODEL      116
REMARK 921   NORMALIZED FREE ENERGY PREDICTED BY IDOCK:   -5.23 KCAL/MOL
REMARK 922        TOTAL FREE ENERGY PREDICTED BY IDOCK:   -9.32 KCAL/MOL
REMARK 923 INTER-LIGAND FREE ENERGY PREDICTED BY IDOCK:   -8.00 KCAL/MOL
REMARK 924 INTRA-LIGAND FREE ENERGY PREDICTED BY IDOCK:   -1.32 KCAL/MOL
REMARK 927      BINDING AFFINITY PREDICTED BY RF-SCORE:    0.00 PKD
ROOT
HETATM    1  C   UNL     1      -6.013   7.292  66.309  1.00  0.00    -0.036 C  
HETATM    2  C   UNL     1      -6.604   7.676  67.650  1.00  0.00    -0.062 C  
ENDROOT
BRANCH   2   3
HETATM    3  C   UNL     1      -7.557   6.602  68.165  1.00  0.00    -0.104 C  
BRANCH   3   4
HETATM    4  C   UNL     1      -8.975   7.136  68.338  1.00  0.00    -0.125 C  
BRANCH   4   5
HETATM    5  C   UNL     1      -9.393   7.048  69.779  1.00  0.00    -0.146 C  
HETATM    6  N   UNL     1     -10.052   6.006  70.187  1.00  0.00    -0.184 NA 
HETATM    7  C   UNL     1     -10.228   6.219  71.645  1.00  0.00    -0.194 C  
HETATM    8  C   UNL     1      -9.800   7.664  71.835  1.00  0.00    -0.165 C  
HETATM    9  C   UNL     1      -9.288   5.281  72.411  1.00  0.00    -0.157 C  
HETATM   10  O   UNL     1     -10.014   8.375  72.806  1.00  0.00    -0.284 OA 
HETATM   11  N   UNL     1      -9.119   8.000  70.691  1.00  0.00    -0.151 N  
HETATM   12  C   UNL     1     -10.065   4.958  73.676  1.00  0.00    -0.203 C  
HETATM   13  C   UNL     1     -11.488   4.794  73.168  1.00  0.00    -0.348 C  
HETATM   14  C   UNL     1     -11.646   5.877  72.098  1.00  0.00    -0.314 C  
BRANCH  11  15
HETATM   15  C   UNL     1      -8.401   9.265  70.565  1.00  0.00    -0.205 C  
BRANCH  15  16
HETATM   16  C   UNL     1      -9.057  10.203  69.567  1.00  0.00    -0.213 A  
HETATM   17  C   UNL     1     -10.442  10.247  69.422  1.00  0.00    -0.259 A  
HETATM   18  C   UNL     1     -11.031  10.907  68.334  1.00  0.00    -0.288 A  
HETATM   19  C   UNL     1     -10.266  11.610  67.382  1.00  0.00    -0.226 A  
HETATM   20  C   UNL     1      -8.900  11.738  67.673  1.00  0.00    -0.162 A  
HETATM   21  C   UNL     1      -8.293  11.004  68.709  1.00  0.00    -0.144 A  
BRANCH  19  22
HETATM   22  C   UNL     1     -10.898  12.118  66.116  1.00  0.00    -0.317 A  
HETATM   23  C   UNL     1     -11.814  13.198  66.203  1.00  0.00    -0.453 A  
HETATM   24  C   UNL     1     -12.545  13.668  65.105  1.00  0.00    -0.474 A  
HETATM   25  C   UNL     1     -12.357  13.102  63.858  1.00  0.00    -0.439 A  
HETATM   26  C   UNL     1     -11.438  12.067  63.716  1.00  0.00    -0.547 A  
HETATM   27  C   UNL     1     -10.715  11.550  64.822  1.00  0.00    -0.366 A  
BRANCH  27  28
HETATM   28  C   UNL     1      -9.851  10.410  64.519  1.00  0.00    -0.339 A  
HETATM   29  N   UNL     1      -9.693   9.354  65.346  1.00  0.00    -0.249 NA 
HETATM   30  N   UNL     1      -8.806   8.633  64.646  1.00  0.00    -0.412 NA 
HETATM   31  H   UNL     1      -8.453   7.738  64.983  1.00  0.00     0.000 HD 
HETATM   32  N   UNL     1      -8.412   9.156  63.483  1.00  0.00    -0.197 NA 
HETATM   33  N   UNL     1      -9.050  10.316  63.406  1.00  0.00    -0.237 NA 
ENDBRANCH  27  28
ENDBRANCH  19  22
ENDBRANCH  15  16
ENDBRANCH  11  15
ENDBRANCH   4   5
ENDBRANCH   3   4
ENDBRANCH   2   3
TORSDOF 7
ENDMDL
MODEL      117
REMARK 921   NORMALIZED FREE ENERGY PREDICTED BY IDOCK:   -5.23 KCAL/MOL
REMARK 922        TOTAL FREE ENERGY PREDICTED BY IDOCK:   -9.32 KCAL/MOL
REMARK 923 INTER-LIGAND FREE ENERGY PREDICTED BY IDOCK:   -7.96 KCAL/MOL
REMARK 924 INTRA-LIGAND FREE ENERGY PREDICTED BY IDOCK:   -1.35 KCAL/MOL
REMARK 927      BINDING AFFINITY PREDICTED BY RF-SCORE:    0.00 PKD
ROOT
HETATM    1  C   UNL     1     -12.129  15.732  71.119  1.00  0.00    -0.475 C  
HETATM    2  C   UNL     1     -12.107  14.217  71.159  1.00  0.00    -0.409 C  
ENDROOT
BRANCH   2   3
HETATM    3  C   UNL     1     -12.246  13.624  69.761  1.00  0.00    -0.350 C  
BRANCH   3   4
HETATM    4  C   UNL     1     -11.174  14.150  68.812  1.00  0.00    -0.294 C  
BRANCH   4   5
HETATM    5  C   UNL     1     -11.067  13.263  67.603  1.00  0.00    -0.269 C  
HETATM    6  N   UNL     1     -11.834  13.490  66.579  1.00  0.00    -0.377 NA 
HETATM    7  C   UNL     1     -11.414  12.492  65.565  1.00  0.00    -0.350 C  
HETATM    8  C   UNL     1     -10.516  11.556  66.357  1.00  0.00    -0.250 C  
HETATM    9  C   UNL     1     -10.611  13.194  64.465  1.00  0.00    -0.425 C  
HETATM   10  O   UNL     1     -10.142  10.440  66.028  1.00  0.00    -0.230 OA 
HETATM   11  N   UNL     1     -10.209  12.230  67.512  1.00  0.00    -0.202 N  
HETATM   12  C   UNL     1     -10.957  12.403  63.214  1.00  0.00    -0.325 C  
HETATM   13  C   UNL     1     -12.442  12.129  63.386  1.00  0.00    -0.625 C  
HETATM   14  C   UNL     1     -12.615  11.843  64.879  1.00  0.00     0.351 C  
BRANCH  11  15
HETATM   15  C   UNL     1      -9.221  11.724  68.461  1.00  0.00    -0.151 C  
BRANCH  15  16
HETATM   16  C   UNL     1      -9.706  10.483  69.190  1.00  0.00    -0.226 A  
HETATM   17  C   UNL     1     -10.691  10.563  70.172  1.00  0.00    -0.232 A  
HETATM   18  C   UNL     1     -10.950   9.477  71.021  1.00  0.00    -0.424 A  
HETATM   19  C   UNL     1     -10.285   8.242  70.880  1.00  0.00    -0.224 A  
HETATM   20  C   UNL     1      -9.466   8.118  69.749  1.00  0.00    -0.159 A  
HETATM   21  C   UNL     1      -9.134   9.227  68.951  1.00  0.00    -0.139 A  
BRANCH  19  22
HETATM   22  C   UNL     1     -10.421   7.176  71.931  1.00  0.00    -0.220 A  
HETATM   23  C   UNL     1     -11.541   6.307  71.874  1.00  0.00    -0.369 A  
HETATM   24  C   UNL     1     -11.824   5.361  72.867  1.00  0.00    -0.150 A  
HETATM   25  C   UNL     1     -10.969   5.214  73.943  1.00  0.00    -0.220 A  
HETATM   26  C   UNL     1      -9.835   6.015  74.021  1.00  0.00    -0.215 A  
HETATM   27  C   UNL     1      -9.550   7.008  73.046  1.00  0.00    -0.182 A  
BRANCH  27  28
HETATM   28  C   UNL     1      -8.365   7.819  73.317  1.00  0.00    -0.164 A  
HETATM   29  N   UNL     1      -8.304   8.745  74.297  1.00  0.00    -0.094 NA 
HETATM   30  N   UNL     1      -7.062   9.212  74.108  1.00  0.00    -0.279 NA 
HETATM   31  H   UNL     1      -6.666   9.946  74.696  1.00  0.00     0.000 HD 
HETATM   32  N   UNL     1      -6.374   8.660  73.107  1.00  0.00    -0.209 NA 
HETATM   33  N   UNL     1      -7.213   7.788  72.567  1.00  0.00    -0.078 NA 
ENDBRANCH  27  28
ENDBRANCH  19  22
ENDBRANCH  15  16
ENDBRANCH  11  15
ENDBRANCH   4   5
ENDBRANCH   3   4
ENDBRANCH   2   3
TORSDOF 7
ENDMDL
MODEL      118
REMARK 921   NORMALIZED FREE ENERGY PREDICTED BY IDOCK:   -5.21 KCAL/MOL
REMARK 922        TOTAL FREE ENERGY PREDICTED BY IDOCK:   -9.29 KCAL/MOL
REMARK 923 INTER-LIGAND FREE ENERGY PREDICTED BY IDOCK:   -8.10 KCAL/MOL
REMARK 924 INTRA-LIGAND FREE ENERGY PREDICTED BY IDOCK:   -1.19 KCAL/MOL
REMARK 927      BINDING AFFINITY PREDICTED BY RF-SCORE:    0.00 PKD
ROOT
HETATM    1  C   UNL     1      -8.865   2.626  67.206  1.00  0.00    -0.161 C  
HETATM    2  C   UNL     1      -9.146   3.580  68.349  1.00  0.00    -0.201 C  
ENDROOT
BRANCH   2   3
HETATM    3  C   UNL     1      -8.775   5.013  67.979  1.00  0.00    -0.105 C  
BRANCH   3   4
HETATM    4  C   UNL     1      -9.895   5.994  68.309  1.00  0.00    -0.152 C  
BRANCH   4   5
HETATM    5  C   UNL     1      -9.699   6.567  69.684  1.00  0.00    -0.156 C  
HETATM    6  N   UNL     1     -10.257   5.983  70.702  1.00  0.00    -0.196 NA 
HETATM    7  C   UNL     1      -9.798   6.759  71.880  1.00  0.00    -0.165 C  
HETATM    8  C   UNL     1      -9.156   7.986  71.254  1.00  0.00    -0.139 C  
HETATM    9  C   UNL     1      -8.750   5.944  72.646  1.00  0.00    -0.122 C  
HETATM   10  O   UNL     1      -8.869   9.034  71.813  1.00  0.00    -0.348 OA 
HETATM   11  N   UNL     1      -8.964   7.667  69.933  1.00  0.00    -0.144 N  
HETATM   12  C   UNL     1      -8.979   6.346  74.094  1.00  0.00    -0.161 C  
HETATM   13  C   UNL     1     -10.494   6.420  74.190  1.00  0.00    -0.258 C  
HETATM   14  C   UNL     1     -10.939   7.028  72.859  1.00  0.00    -0.337 C  
BRANCH  11  15
HETATM   15  C   UNL     1      -8.210   8.535  69.032  1.00  0.00    -0.116 C  
BRANCH  15  16
HETATM   16  C   UNL     1      -9.114   9.315  68.094  1.00  0.00    -0.130 A  
HETATM   17  C   UNL     1      -8.699   9.649  66.806  1.00  0.00    -0.144 A  
HETATM   18  C   UNL     1      -9.413  10.583  66.040  1.00  0.00    -0.227 A  
HETATM   19  C   UNL     1     -10.608  11.170  66.500  1.00  0.00    -0.314 A  
HETATM   20  C   UNL     1     -11.120  10.650  67.697  1.00  0.00    -0.385 A  
HETATM   21  C   UNL     1     -10.365   9.785  68.510  1.00  0.00    -0.228 A  
BRANCH  19  22
HETATM   22  C   UNL     1     -11.230  12.321  65.759  1.00  0.00    -0.378 A  
HETATM   23  C   UNL     1     -11.641  12.118  64.416  1.00  0.00    -0.422 A  
HETATM   24  C   UNL     1     -12.120  13.152  63.601  1.00  0.00    -0.583 A  
HETATM   25  C   UNL     1     -12.249  14.429  64.113  1.00  0.00    -0.393 A  
HETATM   26  C   UNL     1     -11.898  14.667  65.438  1.00  0.00    -0.304 A  
HETATM   27  C   UNL     1     -11.373  13.643  66.269  1.00  0.00    -0.325 A  
BRANCH  27  28
HETATM   28  C   UNL     1     -10.977  14.075  67.609  1.00  0.00    -0.269 A  
HETATM   29  N   UNL     1      -9.692  14.206  67.999  1.00  0.00    -0.219 NA 
HETATM   30  N   UNL     1      -9.866  14.578  69.275  1.00  0.00    -0.416 NA 
HETATM   31  H   UNL     1      -9.078  14.774  69.892  1.00  0.00     0.000 HD 
HETATM   32  N   UNL     1     -11.131  14.678  69.689  1.00  0.00    -0.262 NA 
HETATM   33  N   UNL     1     -11.855  14.323  68.637  1.00  0.00    -0.340 NA 
ENDBRANCH  27  28
ENDBRANCH  19  22
ENDBRANCH  15  16
ENDBRANCH  11  15
ENDBRANCH   4   5
ENDBRANCH   3   4
ENDBRANCH   2   3
TORSDOF 7
ENDMDL
MODEL      119
REMARK 921   NORMALIZED FREE ENERGY PREDICTED BY IDOCK:   -5.18 KCAL/MOL
REMARK 922        TOTAL FREE ENERGY PREDICTED BY IDOCK:   -9.25 KCAL/MOL
REMARK 923 INTER-LIGAND FREE ENERGY PREDICTED BY IDOCK:   -8.07 KCAL/MOL
REMARK 924 INTRA-LIGAND FREE ENERGY PREDICTED BY IDOCK:   -1.18 KCAL/MOL
REMARK 927      BINDING AFFINITY PREDICTED BY RF-SCORE:    0.00 PKD
ROOT
HETATM    1  C   UNL     1     -13.177  14.842  72.898  1.00  0.00    -0.590 C  
HETATM    2  C   UNL     1     -12.868  15.359  71.507  1.00  0.00    -0.499 C  
ENDROOT
BRANCH   2   3
HETATM    3  C   UNL     1     -12.855  14.227  70.485  1.00  0.00    -0.336 C  
BRANCH   3   4
HETATM    4  C   UNL     1     -11.440  13.731  70.204  1.00  0.00    -0.140 C  
BRANCH   4   5
HETATM    5  C   UNL     1     -11.214  13.610  68.723  1.00  0.00    -0.279 C  
HETATM    6  N   UNL     1     -12.040  14.190  67.905  1.00  0.00    -0.334 NA 
HETATM    7  C   UNL     1     -11.479  13.929  66.557  1.00  0.00    -0.348 C  
HETATM    8  C   UNL     1     -10.405  12.889  66.826  1.00  0.00    -0.245 C  
HETATM    9  C   UNL     1     -10.848  15.216  66.012  1.00  0.00    -0.335 C  
HETATM   10  O   UNL     1      -9.850  12.173  66.006  1.00  0.00    -0.235 OA 
HETATM   11  N   UNL     1     -10.189  12.927  68.181  1.00  0.00    -0.233 N  
HETATM   12  C   UNL     1     -11.086  15.120  64.514  1.00  0.00    -0.252 C  
HETATM   13  C   UNL     1     -12.492  14.551  64.429  1.00  0.00    -0.335 C  
HETATM   14  C   UNL     1     -12.566  13.525  65.562  1.00  0.00    -0.531 C  
BRANCH  11  15
HETATM   15  C   UNL     1      -9.098  12.185  68.808  1.00  0.00     0.112 C  
BRANCH  15  16
HETATM   16  C   UNL     1      -9.397  10.700  68.913  1.00  0.00    -0.191 A  
HETATM   17  C   UNL     1     -10.526  10.239  69.589  1.00  0.00    -0.286 A  
HETATM   18  C   UNL     1     -10.664   8.881  69.912  1.00  0.00    -0.236 A  
HETATM   19  C   UNL     1      -9.717   7.916  69.514  1.00  0.00    -0.173 A  
HETATM   20  C   UNL     1      -8.713   8.371  68.648  1.00  0.00    -0.133 A  
HETATM   21  C   UNL     1      -8.518   9.741  68.397  1.00  0.00    -0.114 A  
BRANCH  19  22
HETATM   22  C   UNL     1      -9.777   6.516  70.057  1.00  0.00    -0.178 A  
HETATM   23  C   UNL     1      -9.751   6.334  71.464  1.00  0.00    -0.179 A  
HETATM   24  C   UNL     1      -9.682   5.073  72.069  1.00  0.00    -0.214 A  
HETATM   25  C   UNL     1      -9.681   3.933  71.287  1.00  0.00    -0.247 A  
HETATM   26  C   UNL     1      -9.747   4.060  69.904  1.00  0.00    -0.263 A  
HETATM   27  C   UNL     1      -9.777   5.329  69.269  1.00  0.00    -0.235 A  
BRANCH  27  28
HETATM   28  C   UNL     1      -9.764   5.292  67.807  1.00  0.00    -0.140 A  
HETATM   29  N   UNL     1     -10.855   5.524  67.046  1.00  0.00    -0.198 NA 
HETATM   30  N   UNL     1     -10.337   5.341  65.824  1.00  0.00    -0.446 NA 
HETATM   31  H   UNL     1     -10.898   5.444  64.979  1.00  0.00     0.000 HD 
HETATM   32  N   UNL     1      -9.043   5.017  65.778  1.00  0.00    -0.150 NA 
HETATM   33  N   UNL     1      -8.671   4.947  67.048  1.00  0.00    -0.104 NA 
ENDBRANCH  27  28
ENDBRANCH  19  22
ENDBRANCH  15  16
ENDBRANCH  11  15
ENDBRANCH   4   5
ENDBRANCH   3   4
ENDBRANCH   2   3
TORSDOF 7
ENDMDL
MODEL      120
REMARK 921   NORMALIZED FREE ENERGY PREDICTED BY IDOCK:   -5.15 KCAL/MOL
REMARK 922        TOTAL FREE ENERGY PREDICTED BY IDOCK:   -9.20 KCAL/MOL
REMARK 923 INTER-LIGAND FREE ENERGY PREDICTED BY IDOCK:   -7.88 KCAL/MOL
REMARK 924 INTRA-LIGAND FREE ENERGY PREDICTED BY IDOCK:   -1.32 KCAL/MOL
REMARK 927      BINDING AFFINITY PREDICTED BY RF-SCORE:    0.00 PKD
ROOT
HETATM    1  C   UNL     1     -11.790   8.125  72.479  1.00  0.00    -0.438 C  
HETATM    2  C   UNL     1     -11.159   9.001  71.415  1.00  0.00    -0.399 C  
ENDROOT
BRANCH   2   3
HETATM    3  C   UNL     1     -10.129   8.226  70.599  1.00  0.00    -0.212 C  
BRANCH   3   4
HETATM    4  C   UNL     1      -9.115   9.153  69.937  1.00  0.00    -0.188 C  
BRANCH   4   5
HETATM    5  C   UNL     1      -9.002   8.839  68.471  1.00  0.00    -0.138 C  
HETATM    6  N   UNL     1      -8.020   8.098  68.054  1.00  0.00    -0.125 NA 
HETATM    7  C   UNL     1      -8.261   7.938  66.599  1.00  0.00    -0.119 C  
HETATM    8  C   UNL     1      -9.357   8.952  66.318  1.00  0.00    -0.219 C  
HETATM    9  C   UNL     1      -8.768   6.518  66.322  1.00  0.00    -0.148 C  
HETATM   10  O   UNL     1      -9.706   9.377  65.227  1.00  0.00    -0.263 OA 
HETATM   11  N   UNL     1      -9.872   9.285  67.546  1.00  0.00    -0.165 N  
HETATM   12  C   UNL     1      -8.200   6.201  64.949  1.00  0.00    -0.125 C  
HETATM   13  C   UNL     1      -6.804   6.798  65.013  1.00  0.00    -0.050 C  
HETATM   14  C   UNL     1      -6.974   8.103  65.792  1.00  0.00    -0.064 C  
BRANCH  11  15
HETATM   15  C   UNL     1     -11.067  10.114  67.681  1.00  0.00    -0.206 C  
BRANCH  15  16
HETATM   16  C   UNL     1     -10.791  11.577  67.384  1.00  0.00    -0.294 A  
HETATM   17  C   UNL     1      -9.562  12.156  67.697  1.00  0.00    -0.190 A  
HETATM   18  C   UNL     1      -9.396  13.548  67.669  1.00  0.00    -0.216 A  
HETATM   19  C   UNL     1     -10.427  14.417  67.261  1.00  0.00    -0.269 A  
HETATM   20  C   UNL     1     -11.573  13.799  66.740  1.00  0.00    -0.394 A  
HETATM   21  C   UNL     1     -11.780  12.412  66.851  1.00  0.00    -0.432 A  
BRANCH  19  22
HETATM   22  C   UNL     1     -10.295  15.903  67.449  1.00  0.00    -0.288 A  
HETATM   23  C   UNL     1      -9.648  16.658  66.437  1.00  0.00    -0.308 A  
HETATM   24  C   UNL     1      -9.368  18.024  66.567  1.00  0.00    -0.294 A  
HETATM   25  C   UNL     1      -9.766  18.705  67.702  1.00  0.00    -0.330 A  
HETATM   26  C   UNL     1     -10.441  18.015  68.703  1.00  0.00    -0.236 A  
HETATM   27  C   UNL     1     -10.700  16.622  68.610  1.00  0.00    -0.349 A  
BRANCH  27  28
HETATM   28  C   UNL     1     -11.346  16.032  69.781  1.00  0.00    -0.331 A  
HETATM   29  N   UNL     1     -12.674  15.801  69.862  1.00  0.00    -0.124 NA 
HETATM   30  N   UNL     1     -12.754  15.302  71.104  1.00  0.00    -0.374 NA 
HETATM   31  H   UNL     1     -13.641  15.006  71.509  1.00  0.00     0.000 HD 
HETATM   32  N   UNL     1     -11.605  15.216  71.777  1.00  0.00    -0.401 NA 
HETATM   33  N   UNL     1     -10.696  15.715  70.951  1.00  0.00    -0.188 NA 
ENDBRANCH  27  28
ENDBRANCH  19  22
ENDBRANCH  15  16
ENDBRANCH  11  15
ENDBRANCH   4   5
ENDBRANCH   3   4
ENDBRANCH   2   3
TORSDOF 7
ENDMDL
MODEL      121
REMARK 921   NORMALIZED FREE ENERGY PREDICTED BY IDOCK:   -5.14 KCAL/MOL
REMARK 922        TOTAL FREE ENERGY PREDICTED BY IDOCK:   -9.19 KCAL/MOL
REMARK 923 INTER-LIGAND FREE ENERGY PREDICTED BY IDOCK:   -8.20 KCAL/MOL
REMARK 924 INTRA-LIGAND FREE ENERGY PREDICTED BY IDOCK:   -0.99 KCAL/MOL
REMARK 927      BINDING AFFINITY PREDICTED BY RF-SCORE:    0.00 PKD
ROOT
HETATM    1  C   UNL     1     -13.925  13.731  72.228  1.00  0.00    -0.672 C  
HETATM    2  C   UNL     1     -13.524  12.271  72.171  1.00  0.00    -0.431 C  
ENDROOT
BRANCH   2   3
HETATM    3  C   UNL     1     -12.304  12.065  71.279  1.00  0.00    -0.195 C  
BRANCH   3   4
HETATM    4  C   UNL     1     -12.512  10.928  70.285  1.00  0.00    -0.383 C  
BRANCH   4   5
HETATM    5  C   UNL     1     -11.622   9.766  70.629  1.00  0.00    -0.313 C  
HETATM    6  N   UNL     1     -11.597   9.325  71.851  1.00  0.00    -0.373 NA 
HETATM    7  C   UNL     1     -10.688   8.153  71.809  1.00  0.00    -0.251 C  
HETATM    8  C   UNL     1     -10.050   8.262  70.435  1.00  0.00    -0.190 C  
HETATM    9  C   UNL     1     -11.516   6.867  71.911  1.00  0.00    -0.308 C  
HETATM   10  O   UNL     1      -9.049   7.683  70.039  1.00  0.00    -0.150 OA 
HETATM   11  N   UNL     1     -10.836   9.140  69.733  1.00  0.00    -0.227 N  
HETATM   12  C   UNL     1     -10.602   5.916  72.667  1.00  0.00    -0.255 C  
HETATM   13  C   UNL     1      -9.971   6.816  73.717  1.00  0.00    -0.318 C  
HETATM   14  C   UNL     1      -9.725   8.143  72.995  1.00  0.00    -0.327 C  
BRANCH  11  15
HETATM   15  C   UNL     1     -10.643   9.376  68.305  1.00  0.00    -0.210 C  
BRANCH  15  16
HETATM   16  C   UNL     1     -10.273  10.818  68.004  1.00  0.00    -0.203 A  
HETATM   17  C   UNL     1      -9.142  11.404  68.569  1.00  0.00    -0.169 A  
HETATM   18  C   UNL     1      -8.945  12.792  68.506  1.00  0.00    -0.046 A  
HETATM   19  C   UNL     1      -9.831  13.643  67.817  1.00  0.00    -0.232 A  
HETATM   20  C   UNL     1     -10.832  13.005  67.071  1.00  0.00    -0.278 A  
HETATM   21  C   UNL     1     -11.089  11.628  67.205  1.00  0.00    -0.354 A  
BRANCH  19  22
HETATM   22  C   UNL     1      -9.717  15.136  67.950  1.00  0.00    -0.208 A  
HETATM   23  C   UNL     1     -10.892  15.920  67.817  1.00  0.00    -0.324 A  
HETATM   24  C   UNL     1     -10.878  17.320  67.806  1.00  0.00    -0.261 A  
HETATM   25  C   UNL     1      -9.686  17.999  67.972  1.00  0.00    -0.309 A  
HETATM   26  C   UNL     1      -8.512  17.273  68.148  1.00  0.00    -0.238 A  
HETATM   27  C   UNL     1      -8.498  15.854  68.123  1.00  0.00    -0.167 A  
BRANCH  27  28
HETATM   28  C   UNL     1      -7.174  15.245  68.240  1.00  0.00    -0.117 A  
HETATM   29  N   UNL     1      -6.528  15.088  69.416  1.00  0.00    -0.124 NA 
HETATM   30  N   UNL     1      -5.385  14.534  68.988  1.00  0.00    -0.088 NA 
HETATM   31  H   UNL     1      -4.640  14.270  69.632  1.00  0.00     0.000 HD 
HETATM   32  N   UNL     1      -5.280  14.348  67.670  1.00  0.00    -0.330 NA 
HETATM   33  N   UNL     1      -6.410  14.833  67.174  1.00  0.00    -0.144 NA 
ENDBRANCH  27  28
ENDBRANCH  19  22
ENDBRANCH  15  16
ENDBRANCH  11  15
ENDBRANCH   4   5
ENDBRANCH   3   4
ENDBRANCH   2   3
TORSDOF 7
ENDMDL
MODEL      122
REMARK 921   NORMALIZED FREE ENERGY PREDICTED BY IDOCK:   -5.13 KCAL/MOL
REMARK 922        TOTAL FREE ENERGY PREDICTED BY IDOCK:   -9.17 KCAL/MOL
REMARK 923 INTER-LIGAND FREE ENERGY PREDICTED BY IDOCK:   -7.57 KCAL/MOL
REMARK 924 INTRA-LIGAND FREE ENERGY PREDICTED BY IDOCK:   -1.60 KCAL/MOL
REMARK 927      BINDING AFFINITY PREDICTED BY RF-SCORE:    0.00 PKD
ROOT
HETATM    1  C   UNL     1      -9.021   5.654  66.537  1.00  0.00    -0.126 C  
HETATM    2  C   UNL     1     -10.407   5.426  67.106  1.00  0.00    -0.288 C  
ENDROOT
BRANCH   2   3
HETATM    3  C   UNL     1     -10.807   6.550  68.058  1.00  0.00    -0.372 C  
BRANCH   3   4
HETATM    4  C   UNL     1     -11.260   6.013  69.411  1.00  0.00    -0.397 C  
BRANCH   4   5
HETATM    5  C   UNL     1     -10.273   6.393  70.479  1.00  0.00    -0.189 C  
HETATM    6  N   UNL     1      -9.196   5.682  70.631  1.00  0.00    -0.149 NA 
HETATM    7  C   UNL     1      -8.435   6.375  71.700  1.00  0.00    -0.128 C  
HETATM    8  C   UNL     1      -9.441   7.375  72.244  1.00  0.00    -0.146 C  
HETATM    9  C   UNL     1      -7.241   7.107  71.078  1.00  0.00    -0.074 C  
HETATM   10  O   UNL     1      -9.372   7.990  73.298  1.00  0.00    -0.268 OA 
HETATM   11  N   UNL     1     -10.436   7.446  71.302  1.00  0.00    -0.208 N  
HETATM   12  C   UNL     1      -6.176   7.030  72.159  1.00  0.00    -0.041 C  
HETATM   13  C   UNL     1      -6.346   5.621  72.703  1.00  0.00    -0.053 C  
HETATM   14  C   UNL     1      -7.858   5.388  72.713  1.00  0.00    -0.099 C  
BRANCH  11  15
HETATM   15  C   UNL     1     -11.508   8.435  71.386  1.00  0.00    -0.277 C  
BRANCH  15  16
HETATM   16  C   UNL     1     -11.255   9.635  70.491  1.00  0.00    -0.359 A  
HETATM   17  C   UNL     1     -12.281  10.521  70.166  1.00  0.00    -0.358 A  
HETATM   18  C   UNL     1     -12.117  11.466  69.143  1.00  0.00    -0.331 A  
HETATM   19  C   UNL     1     -10.900  11.614  68.448  1.00  0.00    -0.257 A  
HETATM   20  C   UNL     1      -9.822  10.868  68.945  1.00  0.00    -0.203 A  
HETATM   21  C   UNL     1     -10.002   9.857  69.905  1.00  0.00    -0.292 A  
BRANCH  19  22
HETATM   22  C   UNL     1     -10.821  12.476  67.219  1.00  0.00    -0.277 A  
HETATM   23  C   UNL     1     -11.543  13.698  67.201  1.00  0.00    -0.392 A  
HETATM   24  C   UNL     1     -11.633  14.514  66.067  1.00  0.00    -0.356 A  
HETATM   25  C   UNL     1     -10.964  14.162  64.910  1.00  0.00    -0.405 A  
HETATM   26  C   UNL     1     -10.208  12.994  64.893  1.00  0.00    -0.304 A  
HETATM   27  C   UNL     1     -10.136  12.132  66.019  1.00  0.00    -0.259 A  
BRANCH  27  28
HETATM   28  C   UNL     1      -9.367  10.906  65.812  1.00  0.00    -0.203 A  
HETATM   29  N   UNL     1      -9.928   9.720  65.490  1.00  0.00    -0.305 NA 
HETATM   30  N   UNL     1      -8.838   8.943  65.450  1.00  0.00    -0.197 NA 
HETATM   31  H   UNL     1      -8.891   7.950  65.225  1.00  0.00     0.000 HD 
HETATM   32  N   UNL     1      -7.678   9.544  65.722  1.00  0.00    -0.099 NA 
HETATM   33  N   UNL     1      -8.008  10.800  65.991  1.00  0.00    -0.159 NA 
ENDBRANCH  27  28
ENDBRANCH  19  22
ENDBRANCH  15  16
ENDBRANCH  11  15
ENDBRANCH   4   5
ENDBRANCH   3   4
ENDBRANCH   2   3
TORSDOF 7
ENDMDL
MODEL      123
REMARK 921   NORMALIZED FREE ENERGY PREDICTED BY IDOCK:   -5.11 KCAL/MOL
REMARK 922        TOTAL FREE ENERGY PREDICTED BY IDOCK:   -9.14 KCAL/MOL
REMARK 923 INTER-LIGAND FREE ENERGY PREDICTED BY IDOCK:   -7.70 KCAL/MOL
REMARK 924 INTRA-LIGAND FREE ENERGY PREDICTED BY IDOCK:   -1.44 KCAL/MOL
REMARK 927      BINDING AFFINITY PREDICTED BY RF-SCORE:    0.00 PKD
ROOT
HETATM    1  C   UNL     1      -5.886  10.163  68.387  1.00  0.00    -0.041 C  
HETATM    2  C   UNL     1      -5.154   8.866  68.667  1.00  0.00    -0.034 C  
ENDROOT
BRANCH   2   3
HETATM    3  C   UNL     1      -5.795   7.697  67.926  1.00  0.00    -0.036 C  
BRANCH   3   4
HETATM    4  C   UNL     1      -7.114   8.094  67.272  1.00  0.00    -0.079 C  
BRANCH   4   5
HETATM    5  C   UNL     1      -8.259   7.375  67.929  1.00  0.00    -0.120 C  
HETATM    6  N   UNL     1      -8.009   6.457  68.813  1.00  0.00    -0.109 NA 
HETATM    7  C   UNL     1      -9.344   6.025  69.295  1.00  0.00    -0.133 C  
HETATM    8  C   UNL     1     -10.294   6.673  68.302  1.00  0.00    -0.190 C  
HETATM    9  C   UNL     1      -9.582   6.585  70.701  1.00  0.00    -0.183 C  
HETATM   10  O   UNL     1     -11.472   6.402  68.124  1.00  0.00    -0.169 OA 
HETATM   11  N   UNL     1      -9.553   7.629  67.655  1.00  0.00    -0.141 N  
HETATM   12  C   UNL     1     -10.425   5.513  71.372  1.00  0.00    -0.305 C  
HETATM   13  C   UNL     1      -9.794   4.223  70.873  1.00  0.00    -0.259 C  
HETATM   14  C   UNL     1      -9.437   4.504  69.412  1.00  0.00    -0.244 C  
BRANCH  11  15
HETATM   15  C   UNL     1     -10.163   8.589  66.738  1.00  0.00    -0.300 C  
BRANCH  15  16
HETATM   16  C   UNL     1      -9.869  10.026  67.128  1.00  0.00    -0.231 A  
HETATM   17  C   UNL     1     -10.381  10.573  68.304  1.00  0.00    -0.193 A  
HETATM   18  C   UNL     1     -10.334  11.955  68.534  1.00  0.00    -0.228 A  
HETATM   19  C   UNL     1      -9.712  12.843  67.633  1.00  0.00    -0.212 A  
HETATM   20  C   UNL     1      -9.012  12.246  66.576  1.00  0.00    -0.161 A  
HETATM   21  C   UNL     1      -9.133  10.873  66.291  1.00  0.00    -0.192 A  
BRANCH  19  22
HETATM   22  C   UNL     1      -9.867  14.329  67.794  1.00  0.00    -0.223 A  
HETATM   23  C   UNL     1      -9.123  14.981  68.812  1.00  0.00    -0.197 A  
HETATM   24  C   UNL     1      -9.283  16.337  69.123  1.00  0.00    -0.235 A  
HETATM   25  C   UNL     1     -10.166  17.113  68.395  1.00  0.00    -0.340 A  
HETATM   26  C   UNL     1     -10.887  16.527  67.360  1.00  0.00    -0.202 A  
HETATM   27  C   UNL     1     -10.770  15.145  67.054  1.00  0.00    -0.307 A  
BRANCH  27  28
HETATM   28  C   UNL     1     -11.655  14.669  65.992  1.00  0.00    -0.328 A  
HETATM   29  N   UNL     1     -12.474  13.604  66.127  1.00  0.00    -0.423 NA 
HETATM   30  N   UNL     1     -13.023  13.568  64.905  1.00  0.00    -0.721 NA 
HETATM   31  H   UNL     1     -13.715  12.866  64.645  1.00  0.00     0.000 HD 
HETATM   32  N   UNL     1     -12.609  14.504  64.048  1.00  0.00    -0.799 NA 
HETATM   33  N   UNL     1     -11.703  15.197  64.724  1.00  0.00    -0.369 NA 
ENDBRANCH  27  28
ENDBRANCH  19  22
ENDBRANCH  15  16
ENDBRANCH  11  15
ENDBRANCH   4   5
ENDBRANCH   3   4
ENDBRANCH   2   3
TORSDOF 7
ENDMDL
MODEL      124
REMARK 921   NORMALIZED FREE ENERGY PREDICTED BY IDOCK:   -5.10 KCAL/MOL
REMARK 922        TOTAL FREE ENERGY PREDICTED BY IDOCK:   -9.14 KCAL/MOL
REMARK 923 INTER-LIGAND FREE ENERGY PREDICTED BY IDOCK:   -8.28 KCAL/MOL
REMARK 924 INTRA-LIGAND FREE ENERGY PREDICTED BY IDOCK:   -0.86 KCAL/MOL
REMARK 927      BINDING AFFINITY PREDICTED BY RF-SCORE:    0.00 PKD
ROOT
HETATM    1  C   UNL     1     -10.496   6.825  73.530  1.00  0.00    -0.356 C  
HETATM    2  C   UNL     1     -10.439   7.885  72.449  1.00  0.00    -0.339 C  
ENDROOT
BRANCH   2   3
HETATM    3  C   UNL     1     -10.284   7.259  71.066  1.00  0.00    -0.198 C  
BRANCH   3   4
HETATM    4  C   UNL     1      -9.522   8.171  70.112  1.00  0.00    -0.167 C  
BRANCH   4   5
HETATM    5  C   UNL     1      -8.787   7.355  69.085  1.00  0.00    -0.136 C  
HETATM    6  N   UNL     1      -7.670   6.779  69.412  1.00  0.00    -0.103 NA 
HETATM    7  C   UNL     1      -7.272   6.016  68.204  1.00  0.00    -0.080 C  
HETATM    8  C   UNL     1      -8.223   6.537  67.140  1.00  0.00    -0.113 C  
HETATM    9  C   UNL     1      -7.514   4.521  68.446  1.00  0.00    -0.065 C  
HETATM   10  O   UNL     1      -8.118   6.406  65.929  1.00  0.00    -0.111 OA 
HETATM   11  N   UNL     1      -9.225   7.178  67.824  1.00  0.00    -0.126 N  
HETATM   12  C   UNL     1      -6.405   3.850  67.652  1.00  0.00    -0.037 C  
HETATM   13  C   UNL     1      -5.209   4.752  67.911  1.00  0.00    -0.011 C  
HETATM   14  C   UNL     1      -5.782   6.171  67.902  1.00  0.00    -0.009 C  
BRANCH  11  15
HETATM   15  C   UNL     1     -10.425   7.670  67.153  1.00  0.00    -0.342 C  
BRANCH  15  16
HETATM   16  C   UNL     1     -10.351   9.157  66.857  1.00  0.00    -0.321 A  
HETATM   17  C   UNL     1      -9.674   9.637  65.737  1.00  0.00    -0.350 A  
HETATM   18  C   UNL     1      -9.382  11.002  65.604  1.00  0.00    -0.239 A  
HETATM   19  C   UNL     1      -9.812  11.955  66.549  1.00  0.00    -0.225 A  
HETATM   20  C   UNL     1     -10.679  11.479  67.542  1.00  0.00    -0.267 A  
HETATM   21  C   UNL     1     -10.900  10.102  67.733  1.00  0.00    -0.346 A  
BRANCH  19  22
HETATM   22  C   UNL     1      -9.301  13.368  66.497  1.00  0.00    -0.225 A  
HETATM   23  C   UNL     1      -8.244  13.737  67.369  1.00  0.00    -0.194 A  
HETATM   24  C   UNL     1      -7.776  15.052  67.485  1.00  0.00    -0.208 A  
HETATM   25  C   UNL     1      -8.319  16.050  66.698  1.00  0.00    -0.331 A  
HETATM   26  C   UNL     1      -9.330  15.728  65.799  1.00  0.00    -0.298 A  
HETATM   27  C   UNL     1      -9.847  14.409  65.693  1.00  0.00    -0.322 A  
BRANCH  27  28
HETATM   28  C   UNL     1     -10.961  14.254  64.759  1.00  0.00    -0.398 A  
HETATM   29  N   UNL     1     -11.124  13.172  63.968  1.00  0.00    -0.387 NA 
HETATM   30  N   UNL     1     -12.234  13.526  63.306  1.00  0.00    -1.002 NA 
HETATM   31  H   UNL     1     -12.660  12.921  62.604  1.00  0.00     0.000 HD 
HETATM   32  N   UNL     1     -12.750  14.716  63.619  1.00  0.00    -0.588 NA 
HETATM   33  N   UNL     1     -11.921  15.210  64.527  1.00  0.00    -0.384 NA 
ENDBRANCH  27  28
ENDBRANCH  19  22
ENDBRANCH  15  16
ENDBRANCH  11  15
ENDBRANCH   4   5
ENDBRANCH   3   4
ENDBRANCH   2   3
TORSDOF 7
ENDMDL
MODEL      125
REMARK 921   NORMALIZED FREE ENERGY PREDICTED BY IDOCK:   -5.09 KCAL/MOL
REMARK 922        TOTAL FREE ENERGY PREDICTED BY IDOCK:   -9.13 KCAL/MOL
REMARK 923 INTER-LIGAND FREE ENERGY PREDICTED BY IDOCK:   -8.91 KCAL/MOL
REMARK 924 INTRA-LIGAND FREE ENERGY PREDICTED BY IDOCK:   -0.21 KCAL/MOL
REMARK 927      BINDING AFFINITY PREDICTED BY RF-SCORE:    0.00 PKD
ROOT
HETATM    1  C   UNL     1     -11.648   6.563  72.443  1.00  0.00    -0.292 C  
HETATM    2  C   UNL     1     -11.807   7.686  71.438  1.00  0.00    -0.320 C  
ENDROOT
BRANCH   2   3
HETATM    3  C   UNL     1     -10.957   7.441  70.194  1.00  0.00    -0.272 C  
BRANCH   3   4
HETATM    4  C   UNL     1     -10.054   8.628  69.881  1.00  0.00    -0.197 C  
BRANCH   4   5
HETATM    5  C   UNL     1      -9.565   8.551  68.462  1.00  0.00    -0.151 C  
HETATM    6  N   UNL     1      -8.598   7.736  68.165  1.00  0.00    -0.124 NA 
HETATM    7  C   UNL     1      -8.432   7.866  66.697  1.00  0.00    -0.131 C  
HETATM    8  C   UNL     1      -9.278   9.084  66.362  1.00  0.00    -0.188 C  
HETATM    9  C   UNL     1      -9.000   6.619  66.010  1.00  0.00    -0.131 C  
HETATM   10  O   UNL     1      -9.251   9.738  65.331  1.00  0.00    -0.191 OA 
HETATM   11  N   UNL     1     -10.079   9.287  67.457  1.00  0.00    -0.203 N  
HETATM   12  C   UNL     1      -8.105   6.447  64.794  1.00  0.00    -0.114 C  
HETATM   13  C   UNL     1      -6.726   6.781  65.337  1.00  0.00    -0.051 C  
HETATM   14  C   UNL     1      -6.959   7.946  66.300  1.00  0.00    -0.063 C  
BRANCH  11  15
HETATM   15  C   UNL     1     -11.159  10.270  67.451  1.00  0.00    -0.189 C  
BRANCH  15  16
HETATM   16  C   UNL     1     -10.671  11.665  67.803  1.00  0.00    -0.244 A  
HETATM   17  C   UNL     1     -11.565  12.721  67.966  1.00  0.00    -0.388 A  
HETATM   18  C   UNL     1     -11.108  14.046  68.029  1.00  0.00    -0.282 A  
HETATM   19  C   UNL     1      -9.736  14.367  68.001  1.00  0.00    -0.221 A  
HETATM   20  C   UNL     1      -8.855  13.278  68.062  1.00  0.00    -0.190 A  
HETATM   21  C   UNL     1      -9.305  11.953  67.907  1.00  0.00    -0.187 A  
BRANCH  19  22
HETATM   22  C   UNL     1      -9.287  15.793  67.849  1.00  0.00    -0.200 A  
HETATM   23  C   UNL     1      -8.529  16.380  68.896  1.00  0.00    -0.247 A  
HETATM   24  C   UNL     1      -8.164  17.731  68.908  1.00  0.00    -0.147 A  
HETATM   25  C   UNL     1      -8.506  18.547  67.845  1.00  0.00    -0.292 A  
HETATM   26  C   UNL     1      -9.212  18.007  66.776  1.00  0.00    -0.285 A  
HETATM   27  C   UNL     1      -9.627  16.649  66.762  1.00  0.00    -0.270 A  
BRANCH  27  28
HETATM   28  C   UNL     1     -10.430  16.259  65.605  1.00  0.00    -0.368 A  
HETATM   29  N   UNL     1     -10.520  14.989  65.155  1.00  0.00    -0.400 NA 
HETATM   30  N   UNL     1     -11.320  15.167  64.094  1.00  0.00    -0.627 NA 
HETATM   31  H   UNL     1     -11.610  14.391  63.501  1.00  0.00     0.000 HD 
HETATM   32  N   UNL     1     -11.714  16.421  63.861  1.00  0.00    -1.024 NA 
HETATM   33  N   UNL     1     -11.121  17.138  64.804  1.00  0.00    -0.925 NA 
ENDBRANCH  27  28
ENDBRANCH  19  22
ENDBRANCH  15  16
ENDBRANCH  11  15
ENDBRANCH   4   5
ENDBRANCH   3   4
ENDBRANCH   2   3
TORSDOF 7
ENDMDL
MODEL      126
REMARK 921   NORMALIZED FREE ENERGY PREDICTED BY IDOCK:   -5.09 KCAL/MOL
REMARK 922        TOTAL FREE ENERGY PREDICTED BY IDOCK:   -9.13 KCAL/MOL
REMARK 923 INTER-LIGAND FREE ENERGY PREDICTED BY IDOCK:   -7.89 KCAL/MOL
REMARK 924 INTRA-LIGAND FREE ENERGY PREDICTED BY IDOCK:   -1.24 KCAL/MOL
REMARK 927      BINDING AFFINITY PREDICTED BY RF-SCORE:    0.00 PKD
ROOT
HETATM    1  C   UNL     1      -9.431   3.492  65.606  1.00  0.00    -0.142 C  
HETATM    2  C   UNL     1     -10.461   4.434  66.196  1.00  0.00    -0.084 C  
ENDROOT
BRANCH   2   3
HETATM    3  C   UNL     1      -9.894   5.840  66.366  1.00  0.00    -0.174 C  
BRANCH   3   4
HETATM    4  C   UNL     1     -10.885   6.774  67.050  1.00  0.00    -0.453 C  
BRANCH   4   5
HETATM    5  C   UNL     1     -10.622   6.821  68.529  1.00  0.00    -0.225 C  
HETATM    6  N   UNL     1     -11.360   6.112  69.329  1.00  0.00    -0.392 NA 
HETATM    7  C   UNL     1     -10.781   6.340  70.676  1.00  0.00    -0.264 C  
HETATM    8  C   UNL     1      -9.822   7.495  70.447  1.00  0.00    -0.183 C  
HETATM    9  C   UNL     1     -10.012   5.089  71.115  1.00  0.00    -0.276 C  
HETATM   10  O   UNL     1      -9.310   8.208  71.297  1.00  0.00    -0.144 OA 
HETATM   11  N   UNL     1      -9.648   7.565  69.088  1.00  0.00    -0.157 N  
HETATM   12  C   UNL     1     -10.206   5.065  72.622  1.00  0.00    -0.236 C  
HETATM   13  C   UNL     1     -11.657   5.487  72.784  1.00  0.00    -0.298 C  
HETATM   14  C   UNL     1     -11.868   6.572  71.725  1.00  0.00    -0.384 C  
BRANCH  11  15
HETATM   15  C   UNL     1      -8.656   8.449  68.481  1.00  0.00    -0.136 C  
BRANCH  15  16
HETATM   16  C   UNL     1      -9.159   9.876  68.350  1.00  0.00    -0.123 A  
HETATM   17  C   UNL     1     -10.466  10.145  67.948  1.00  0.00    -0.265 A  
HETATM   18  C   UNL     1     -10.850  11.441  67.575  1.00  0.00    -0.291 A  
HETATM   19  C   UNL     1      -9.967  12.536  67.653  1.00  0.00    -0.201 A  
HETATM   20  C   UNL     1      -8.734  12.279  68.269  1.00  0.00    -0.178 A  
HETATM   21  C   UNL     1      -8.310  10.969  68.560  1.00  0.00    -0.149 A  
BRANCH  19  22
HETATM   22  C   UNL     1     -10.333  13.860  67.044  1.00  0.00    -0.267 A  
HETATM   23  C   UNL     1     -10.151  14.037  65.648  1.00  0.00    -0.342 A  
HETATM   24  C   UNL     1     -10.348  15.265  65.003  1.00  0.00    -0.375 A  
HETATM   25  C   UNL     1     -10.781  16.361  65.725  1.00  0.00    -0.245 A  
HETATM   26  C   UNL     1     -11.014  16.225  67.089  1.00  0.00    -0.114 A  
HETATM   27  C   UNL     1     -10.782  15.001  67.770  1.00  0.00    -0.278 A  
BRANCH  27  28
HETATM   28  C   UNL     1     -10.997  15.046  69.216  1.00  0.00    -0.264 A  
HETATM   29  N   UNL     1     -10.021  15.331  70.105  1.00  0.00    -0.143 NA 
HETATM   30  N   UNL     1     -10.702  15.213  71.253  1.00  0.00    -0.469 NA 
HETATM   31  H   UNL     1     -10.263  15.368  72.159  1.00  0.00     0.000 HD 
HETATM   32  N   UNL     1     -11.990  14.879  71.139  1.00  0.00    -0.315 NA 
HETATM   33  N   UNL     1     -12.184  14.734  69.836  1.00  0.00    -0.316 NA 
ENDBRANCH  27  28
ENDBRANCH  19  22
ENDBRANCH  15  16
ENDBRANCH  11  15
ENDBRANCH   4   5
ENDBRANCH   3   4
ENDBRANCH   2   3
TORSDOF 7
ENDMDL
MODEL      127
REMARK 921   NORMALIZED FREE ENERGY PREDICTED BY IDOCK:   -5.08 KCAL/MOL
REMARK 922        TOTAL FREE ENERGY PREDICTED BY IDOCK:   -9.11 KCAL/MOL
REMARK 923 INTER-LIGAND FREE ENERGY PREDICTED BY IDOCK:   -7.96 KCAL/MOL
REMARK 924 INTRA-LIGAND FREE ENERGY PREDICTED BY IDOCK:   -1.15 KCAL/MOL
REMARK 927      BINDING AFFINITY PREDICTED BY RF-SCORE:    0.00 PKD
ROOT
HETATM    1  C   UNL     1      -7.898   7.787  65.119  1.00  0.00    -0.123 C  
HETATM    2  C   UNL     1      -8.669   8.982  64.597  1.00  0.00    -0.169 C  
ENDROOT
BRANCH   2   3
HETATM    3  C   UNL     1      -8.742  10.093  65.641  1.00  0.00    -0.173 C  
BRANCH   3   4
HETATM    4  C   UNL     1     -10.181  10.503  65.934  1.00  0.00    -0.311 C  
BRANCH   4   5
HETATM    5  C   UNL     1     -10.228  11.917  66.441  1.00  0.00    -0.209 C  
HETATM    6  N   UNL     1      -9.460  12.813  65.897  1.00  0.00    -0.135 NA 
HETATM    7  C   UNL     1      -9.817  14.080  66.580  1.00  0.00    -0.284 C  
HETATM    8  C   UNL     1     -10.677  13.613  67.743  1.00  0.00    -0.246 C  
HETATM    9  C   UNL     1     -10.639  14.955  65.628  1.00  0.00    -0.358 C  
HETATM   10  O   UNL     1     -10.989  14.257  68.733  1.00  0.00    -0.238 OA 
HETATM   11  N   UNL     1     -11.032  12.323  67.442  1.00  0.00    -0.242 N  
HETATM   12  C   UNL     1     -10.238  16.370  66.012  1.00  0.00    -0.373 C  
HETATM   13  C   UNL     1      -8.743  16.244  66.257  1.00  0.00    -0.370 C  
HETATM   14  C   UNL     1      -8.575  14.890  66.951  1.00  0.00    -0.269 C  
BRANCH  11  15
HETATM   15  C   UNL     1     -12.005  11.584  68.243  1.00  0.00    -0.169 C  
BRANCH  15  16
HETATM   16  C   UNL     1     -11.353  10.817  69.379  1.00  0.00    -0.351 A  
HETATM   17  C   UNL     1      -9.994  10.507  69.353  1.00  0.00    -0.220 A  
HETATM   18  C   UNL     1      -9.450   9.584  70.258  1.00  0.00    -0.307 A  
HETATM   19  C   UNL     1     -10.224   8.984  71.271  1.00  0.00    -0.384 A  
HETATM   20  C   UNL     1     -11.527   9.481  71.416  1.00  0.00    -0.462 A  
HETATM   21  C   UNL     1     -12.104  10.335  70.458  1.00  0.00    -0.401 A  
BRANCH  19  22
HETATM   22  C   UNL     1      -9.673   7.844  72.081  1.00  0.00    -0.257 A  
HETATM   23  C   UNL     1      -9.299   8.088  73.428  1.00  0.00    -0.323 A  
HETATM   24  C   UNL     1      -8.667   7.130  74.230  1.00  0.00    -0.242 A  
HETATM   25  C   UNL     1      -8.422   5.865  73.729  1.00  0.00    -0.115 A  
HETATM   26  C   UNL     1      -8.809   5.566  72.427  1.00  0.00    -0.135 A  
HETATM   27  C   UNL     1      -9.414   6.534  71.583  1.00  0.00    -0.160 A  
BRANCH  27  28
HETATM   28  C   UNL     1      -9.686   6.085  70.219  1.00  0.00    -0.165 A  
HETATM   29  N   UNL     1     -10.930   5.947  69.714  1.00  0.00    -0.378 NA 
HETATM   30  N   UNL     1     -10.641   5.494  68.486  1.00  0.00    -0.173 NA 
HETATM   31  H   UNL     1     -11.369   5.278  67.805  1.00  0.00     0.000 HD 
HETATM   32  N   UNL     1      -9.345   5.342  68.207  1.00  0.00    -0.114 NA 
HETATM   33  N   UNL     1      -8.720   5.685  69.325  1.00  0.00    -0.108 NA 
ENDBRANCH  27  28
ENDBRANCH  19  22
ENDBRANCH  15  16
ENDBRANCH  11  15
ENDBRANCH   4   5
ENDBRANCH   3   4
ENDBRANCH   2   3
TORSDOF 7
ENDMDL
MODEL      128
REMARK 921   NORMALIZED FREE ENERGY PREDICTED BY IDOCK:   -5.07 KCAL/MOL
REMARK 922        TOTAL FREE ENERGY PREDICTED BY IDOCK:   -9.09 KCAL/MOL
REMARK 923 INTER-LIGAND FREE ENERGY PREDICTED BY IDOCK:   -7.42 KCAL/MOL
REMARK 924 INTRA-LIGAND FREE ENERGY PREDICTED BY IDOCK:   -1.67 KCAL/MOL
REMARK 927      BINDING AFFINITY PREDICTED BY RF-SCORE:    0.00 PKD
ROOT
HETATM    1  C   UNL     1      -5.905  13.057  69.072  1.00  0.00    -0.079 C  
HETATM    2  C   UNL     1      -5.799  11.693  68.421  1.00  0.00    -0.045 C  
ENDROOT
BRANCH   2   3
HETATM    3  C   UNL     1      -6.137  11.760  66.935  1.00  0.00    -0.140 C  
BRANCH   3   4
HETATM    4  C   UNL     1      -6.796  10.476  66.444  1.00  0.00    -0.119 C  
BRANCH   4   5
HETATM    5  C   UNL     1      -8.112  10.267  67.139  1.00  0.00    -0.121 C  
HETATM    6  N   UNL     1      -8.166   9.489  68.178  1.00  0.00    -0.113 NA 
HETATM    7  C   UNL     1      -9.573   9.575  68.640  1.00  0.00    -0.146 C  
HETATM    8  C   UNL     1     -10.267  10.293  67.496  1.00  0.00    -0.210 C  
HETATM    9  C   UNL     1      -9.636  10.422  69.916  1.00  0.00     0.021 C  
HETATM   10  O   UNL     1     -11.470  10.364  67.292  1.00  0.00    -0.315 OA 
HETATM   11  N   UNL     1      -9.262  10.848  66.746  1.00  0.00    -0.157 N  
HETATM   12  C   UNL     1     -10.775   9.794  70.702  1.00  0.00    -0.394 C  
HETATM   13  C   UNL     1     -10.570   8.306  70.467  1.00  0.00    -0.233 C  
HETATM   14  C   UNL     1     -10.132   8.200  69.004  1.00  0.00    -0.211 C  
BRANCH  11  15
HETATM   15  C   UNL     1      -9.538  11.767  65.645  1.00  0.00    -0.220 C  
BRANCH  15  16
HETATM   16  C   UNL     1      -9.731  13.196  66.121  1.00  0.00    -0.254 A  
HETATM   17  C   UNL     1     -10.138  14.200  65.244  1.00  0.00    -0.364 A  
HETATM   18  C   UNL     1     -10.063  15.550  65.614  1.00  0.00    -0.406 A  
HETATM   19  C   UNL     1      -9.644  15.953  66.898  1.00  0.00    -0.242 A  
HETATM   20  C   UNL     1      -9.456  14.921  67.828  1.00  0.00    -0.203 A  
HETATM   21  C   UNL     1      -9.441  13.569  67.439  1.00  0.00    -0.225 A  
BRANCH  19  22
HETATM   22  C   UNL     1      -9.365  17.401  67.192  1.00  0.00    -0.246 A  
HETATM   23  C   UNL     1     -10.421  18.337  67.046  1.00  0.00    -0.407 A  
HETATM   24  C   UNL     1     -10.238  19.719  67.179  1.00  0.00    -0.574 A  
HETATM   25  C   UNL     1      -8.994  20.221  67.510  1.00  0.00    -0.435 A  
HETATM   26  C   UNL     1      -7.937  19.338  67.705  1.00  0.00    -0.311 A  
HETATM   27  C   UNL     1      -8.091  17.937  67.536  1.00  0.00    -0.228 A  
BRANCH  27  28
HETATM   28  C   UNL     1      -6.866  17.156  67.697  1.00  0.00    -0.142 A  
HETATM   29  N   UNL     1      -6.213  17.028  68.872  1.00  0.00    -0.167 NA 
HETATM   30  N   UNL     1      -5.176  16.270  68.488  1.00  0.00    -0.100 NA 
HETATM   31  H   UNL     1      -4.457  15.967  69.144  1.00  0.00     0.000 HD 
HETATM   32  N   UNL     1      -5.141  15.935  67.196  1.00  0.00    -0.336 NA 
HETATM   33  N   UNL     1      -6.203  16.528  66.669  1.00  0.00    -0.295 NA 
ENDBRANCH  27  28
ENDBRANCH  19  22
ENDBRANCH  15  16
ENDBRANCH  11  15
ENDBRANCH   4   5
ENDBRANCH   3   4
ENDBRANCH   2   3
TORSDOF 7
ENDMDL
MODEL      129
REMARK 921   NORMALIZED FREE ENERGY PREDICTED BY IDOCK:   -5.07 KCAL/MOL
REMARK 922        TOTAL FREE ENERGY PREDICTED BY IDOCK:   -9.09 KCAL/MOL
REMARK 923 INTER-LIGAND FREE ENERGY PREDICTED BY IDOCK:   -7.87 KCAL/MOL
REMARK 924 INTRA-LIGAND FREE ENERGY PREDICTED BY IDOCK:   -1.21 KCAL/MOL
REMARK 927      BINDING AFFINITY PREDICTED BY RF-SCORE:    0.00 PKD
ROOT
HETATM    1  C   UNL     1      -8.919   3.363  65.326  1.00  0.00    -0.140 C  
HETATM    2  C   UNL     1     -10.128   4.073  65.901  1.00  0.00    -0.097 C  
ENDROOT
BRANCH   2   3
HETATM    3  C   UNL     1      -9.809   5.526  66.239  1.00  0.00    -0.173 C  
BRANCH   3   4
HETATM    4  C   UNL     1     -10.952   6.199  66.991  1.00  0.00    -0.414 C  
BRANCH   4   5
HETATM    5  C   UNL     1     -10.572   6.417  68.429  1.00  0.00    -0.257 C  
HETATM    6  N   UNL     1     -11.140   5.700  69.352  1.00  0.00    -0.199 NA 
HETATM    7  C   UNL     1     -10.484   6.123  70.614  1.00  0.00    -0.236 C  
HETATM    8  C   UNL     1      -9.708   7.362  70.199  1.00  0.00    -0.175 C  
HETATM    9  C   UNL     1      -9.522   5.024  71.078  1.00  0.00    -0.220 C  
HETATM   10  O   UNL     1      -9.223   8.209  70.935  1.00  0.00    -0.145 OA 
HETATM   11  N   UNL     1      -9.661   7.324  68.828  1.00  0.00    -0.149 N  
HETATM   12  C   UNL     1      -9.583   5.118  72.594  1.00  0.00    -0.170 C  
HETATM   13  C   UNL     1     -11.058   5.370  72.859  1.00  0.00    -0.360 C  
HETATM   14  C   UNL     1     -11.498   6.316  71.740  1.00  0.00    -0.355 C  
BRANCH  11  15
HETATM   15  C   UNL     1      -8.849   8.263  68.059  1.00  0.00    -0.135 C  
BRANCH  15  16
HETATM   16  C   UNL     1      -9.418   9.670  68.080  1.00  0.00    -0.144 A  
HETATM   17  C   UNL     1      -8.616  10.768  68.385  1.00  0.00    -0.141 A  
HETATM   18  C   UNL     1      -9.185  12.020  68.662  1.00  0.00    -0.043 A  
HETATM   19  C   UNL     1     -10.574  12.246  68.579  1.00  0.00    -0.254 A  
HETATM   20  C   UNL     1     -11.331  11.189  68.054  1.00  0.00    -0.380 A  
HETATM   21  C   UNL     1     -10.781   9.908  67.863  1.00  0.00    -0.316 A  
BRANCH  19  22
HETATM   22  C   UNL     1     -11.173  13.526  69.090  1.00  0.00    -0.310 A  
HETATM   23  C   UNL     1     -11.696  13.549  70.409  1.00  0.00    -0.201 A  
HETATM   24  C   UNL     1     -12.380  14.651  70.938  1.00  0.00    -0.406 A  
HETATM   25  C   UNL     1     -12.531  15.797  70.181  1.00  0.00    -0.240 A  
HETATM   26  C   UNL     1     -11.998  15.836  68.897  1.00  0.00    -0.268 A  
HETATM   27  C   UNL     1     -11.336  14.718  68.326  1.00  0.00    -0.319 A  
BRANCH  27  28
HETATM   28  C   UNL     1     -10.907  14.893  66.940  1.00  0.00    -0.319 A  
HETATM   29  N   UNL     1     -11.594  14.414  65.881  1.00  0.00    -0.356 NA 
HETATM   30  N   UNL     1     -10.790  14.799  64.880  1.00  0.00    -0.463 NA 
HETATM   31  H   UNL     1     -11.011  14.600  63.905  1.00  0.00     0.000 HD 
HETATM   32  N   UNL     1      -9.685  15.457  65.236  1.00  0.00    -0.235 NA 
HETATM   33  N   UNL     1      -9.730  15.493  66.560  1.00  0.00    -0.254 NA 
ENDBRANCH  27  28
ENDBRANCH  19  22
ENDBRANCH  15  16
ENDBRANCH  11  15
ENDBRANCH   4   5
ENDBRANCH   3   4
ENDBRANCH   2   3
TORSDOF 7
ENDMDL
MODEL      130
REMARK 921   NORMALIZED FREE ENERGY PREDICTED BY IDOCK:   -5.06 KCAL/MOL
REMARK 922        TOTAL FREE ENERGY PREDICTED BY IDOCK:   -9.08 KCAL/MOL
REMARK 923 INTER-LIGAND FREE ENERGY PREDICTED BY IDOCK:   -7.78 KCAL/MOL
REMARK 924 INTRA-LIGAND FREE ENERGY PREDICTED BY IDOCK:   -1.31 KCAL/MOL
REMARK 927      BINDING AFFINITY PREDICTED BY RF-SCORE:    0.00 PKD
ROOT
HETATM    1  C   UNL     1      -7.823  18.508  68.471  1.00  0.00    -0.341 C  
HETATM    2  C   UNL     1      -8.060  17.332  67.545  1.00  0.00    -0.197 C  
ENDROOT
BRANCH   2   3
HETATM    3  C   UNL     1      -8.627  16.135  68.304  1.00  0.00    -0.182 C  
BRANCH   3   4
HETATM    4  C   UNL     1      -8.201  14.812  67.677  1.00  0.00    -0.187 C  
BRANCH   4   5
HETATM    5  C   UNL     1      -9.382  14.131  67.044  1.00  0.00    -0.246 C  
HETATM    6  N   UNL     1      -9.669  14.381  65.801  1.00  0.00    -0.287 NA 
HETATM    7  C   UNL     1     -10.821  13.498  65.497  1.00  0.00    -0.288 C  
HETATM    8  C   UNL     1     -11.234  12.986  66.866  1.00  0.00    -0.295 C  
HETATM    9  C   UNL     1     -10.350  12.336  64.614  1.00  0.00    -0.330 C  
HETATM   10  O   UNL     1     -12.286  12.440  67.163  1.00  0.00    -0.492 OA 
HETATM   11  N   UNL     1     -10.175  13.260  67.695  1.00  0.00    -0.225 N  
HETATM   12  C   UNL     1     -11.556  12.048  63.735  1.00  0.00    -0.565 C  
HETATM   13  C   UNL     1     -12.078  13.438  63.410  1.00  0.00    -0.437 C  
HETATM   14  C   UNL     1     -11.901  14.233  64.705  1.00  0.00    -0.459 C  
BRANCH  11  15
HETATM   15  C   UNL     1     -10.122  12.763  69.068  1.00  0.00     0.187 C  
BRANCH  15  16
HETATM   16  C   UNL     1     -10.064  11.247  69.129  1.00  0.00    -0.093 A  
HETATM   17  C   UNL     1     -11.068  10.513  69.759  1.00  0.00    -0.354 A  
HETATM   18  C   UNL     1     -10.890   9.151  70.046  1.00  0.00    -0.256 A  
HETATM   19  C   UNL     1      -9.733   8.449  69.656  1.00  0.00    -0.173 A  
HETATM   20  C   UNL     1      -8.843   9.152  68.832  1.00  0.00    -0.139 A  
HETATM   21  C   UNL     1      -8.971  10.537  68.618  1.00  0.00    -0.162 A  
BRANCH  19  22
HETATM   22  C   UNL     1      -9.474   7.058  70.165  1.00  0.00    -0.162 A  
HETATM   23  C   UNL     1      -9.050   6.898  71.510  1.00  0.00    -0.144 A  
HETATM   24  C   UNL     1      -8.669   5.662  72.046  1.00  0.00    -0.134 A  
HETATM   25  C   UNL     1      -8.738   4.521  71.268  1.00  0.00    -0.137 A  
HETATM   26  C   UNL     1      -9.187   4.623  69.956  1.00  0.00    -0.186 A  
HETATM   27  C   UNL     1      -9.541   5.871  69.380  1.00  0.00    -0.171 A  
BRANCH  27  28
HETATM   28  C   UNL     1      -9.914   5.818  67.967  1.00  0.00    -0.144 A  
HETATM   29  N   UNL     1     -11.142   6.145  67.509  1.00  0.00    -0.302 NA 
HETATM   30  N   UNL     1     -10.981   5.902  66.201  1.00  0.00    -0.650 NA 
HETATM   31  H   UNL     1     -11.733   6.050  65.528  1.00  0.00     0.000 HD 
HETATM   32  N   UNL     1      -9.778   5.457  65.830  1.00  0.00    -0.113 NA 
HETATM   33  N   UNL     1      -9.094   5.365  66.962  1.00  0.00    -0.112 NA 
ENDBRANCH  27  28
ENDBRANCH  19  22
ENDBRANCH  15  16
ENDBRANCH  11  15
ENDBRANCH   4   5
ENDBRANCH   3   4
ENDBRANCH   2   3
TORSDOF 7
ENDMDL
MODEL      131
REMARK 921   NORMALIZED FREE ENERGY PREDICTED BY IDOCK:   -5.03 KCAL/MOL
REMARK 922        TOTAL FREE ENERGY PREDICTED BY IDOCK:   -9.04 KCAL/MOL
REMARK 923 INTER-LIGAND FREE ENERGY PREDICTED BY IDOCK:   -8.01 KCAL/MOL
REMARK 924 INTRA-LIGAND FREE ENERGY PREDICTED BY IDOCK:   -1.03 KCAL/MOL
REMARK 927      BINDING AFFINITY PREDICTED BY RF-SCORE:    0.00 PKD
ROOT
HETATM    1  C   UNL     1      -8.614  15.718  66.452  1.00  0.00    -0.346 C  
HETATM    2  C   UNL     1      -9.250  14.391  66.810  1.00  0.00    -0.287 C  
ENDROOT
BRANCH   2   3
HETATM    3  C   UNL     1      -9.865  14.429  68.206  1.00  0.00    -0.229 C  
BRANCH   3   4
HETATM    4  C   UNL     1     -10.650  13.159  68.515  1.00  0.00    -0.274 C  
BRANCH   4   5
HETATM    5  C   UNL     1     -11.490  13.353  69.747  1.00  0.00    -0.166 C  
HETATM    6  N   UNL     1     -11.414  14.475  70.398  1.00  0.00    -0.240 NA 
HETATM    7  C   UNL     1     -12.412  14.346  71.488  1.00  0.00    -0.355 C  
HETATM    8  C   UNL     1     -12.785  12.874  71.440  1.00  0.00    -0.270 C  
HETATM    9  C   UNL     1     -13.632  15.214  71.164  1.00  0.00    -0.525 C  
HETATM   10  O   UNL     1     -13.369  12.233  72.301  1.00  0.00    -0.515 OA 
HETATM   11  N   UNL     1     -12.334  12.420  70.226  1.00  0.00    -0.239 N  
HETATM   12  C   UNL     1     -14.114  15.672  72.531  1.00  0.00    -0.562 C  
HETATM   13  C   UNL     1     -12.818  15.958  73.269  1.00  0.00    -0.664 C  
HETATM   14  C   UNL     1     -11.861  14.852  72.820  1.00  0.00    -0.300 C  
BRANCH  11  15
HETATM   15  C   UNL     1     -12.656  11.083  69.735  1.00  0.00    -0.084 C  
BRANCH  15  16
HETATM   16  C   UNL     1     -11.646  10.043  70.187  1.00  0.00    -0.320 A  
HETATM   17  C   UNL     1     -10.731   9.490  69.292  1.00  0.00    -0.240 A  
HETATM   18  C   UNL     1      -9.984   8.355  69.639  1.00  0.00    -0.193 A  
HETATM   19  C   UNL     1     -10.066   7.766  70.916  1.00  0.00    -0.195 A  
HETATM   20  C   UNL     1     -10.821   8.471  71.864  1.00  0.00    -0.392 A  
HETATM   21  C   UNL     1     -11.642   9.554  71.499  1.00  0.00    -0.465 A  
BRANCH  19  22
HETATM   22  C   UNL     1      -9.426   6.433  71.186  1.00  0.00    -0.177 A  
HETATM   23  C   UNL     1     -10.175   5.452  71.887  1.00  0.00    -0.258 A  
HETATM   24  C   UNL     1      -9.634   4.226  72.292  1.00  0.00    -0.196 A  
HETATM   25  C   UNL     1      -8.327   3.909  71.974  1.00  0.00    -0.100 A  
HETATM   26  C   UNL     1      -7.566   4.822  71.251  1.00  0.00    -0.081 A  
HETATM   27  C   UNL     1      -8.082   6.087  70.864  1.00  0.00    -0.121 A  
BRANCH  27  28
HETATM   28  C   UNL     1      -7.130   6.963  70.182  1.00  0.00    -0.071 A  
HETATM   29  N   UNL     1      -6.706   6.759  68.917  1.00  0.00    -0.051 NA 
HETATM   30  N   UNL     1      -5.850   7.782  68.784  1.00  0.00    -0.030 NA 
HETATM   31  H   UNL     1      -5.332   7.943  67.921  1.00  0.00     0.000 HD 
HETATM   32  N   UNL     1      -5.715   8.576  69.849  1.00  0.00    -0.028 NA 
HETATM   33  N   UNL     1      -6.507   8.040  70.767  1.00  0.00    -0.037 NA 
ENDBRANCH  27  28
ENDBRANCH  19  22
ENDBRANCH  15  16
ENDBRANCH  11  15
ENDBRANCH   4   5
ENDBRANCH   3   4
ENDBRANCH   2   3
TORSDOF 7
ENDMDL
MODEL      132
REMARK 921   NORMALIZED FREE ENERGY PREDICTED BY IDOCK:   -5.03 KCAL/MOL
REMARK 922        TOTAL FREE ENERGY PREDICTED BY IDOCK:   -9.04 KCAL/MOL
REMARK 923 INTER-LIGAND FREE ENERGY PREDICTED BY IDOCK:   -7.57 KCAL/MOL
REMARK 924 INTRA-LIGAND FREE ENERGY PREDICTED BY IDOCK:   -1.46 KCAL/MOL
REMARK 927      BINDING AFFINITY PREDICTED BY RF-SCORE:    0.00 PKD
ROOT
HETATM    1  C   UNL     1     -12.803  12.853  64.139  1.00  0.00    -0.139 C  
HETATM    2  C   UNL     1     -11.780  11.803  63.756  1.00  0.00    -0.499 C  
ENDROOT
BRANCH   2   3
HETATM    3  C   UNL     1     -10.363  12.368  63.797  1.00  0.00    -0.454 C  
BRANCH   3   4
HETATM    4  C   UNL     1      -9.610  11.923  65.045  1.00  0.00    -0.110 C  
BRANCH   4   5
HETATM    5  C   UNL     1      -9.906  12.849  66.191  1.00  0.00    -0.270 C  
HETATM    6  N   UNL     1      -9.367  14.032  66.207  1.00  0.00    -0.224 NA 
HETATM    7  C   UNL     1      -9.927  14.683  67.417  1.00  0.00    -0.231 C  
HETATM    8  C   UNL     1     -10.602  13.534  68.145  1.00  0.00    -0.245 C  
HETATM    9  C   UNL     1     -10.965  15.729  66.995  1.00  0.00    -0.221 C  
HETATM   10  O   UNL     1     -10.975  13.516  69.309  1.00  0.00    -0.216 OA 
HETATM   11  N   UNL     1     -10.711  12.526  67.220  1.00  0.00    -0.230 N  
HETATM   12  C   UNL     1     -10.831  16.809  68.056  1.00  0.00    -0.341 C  
HETATM   13  C   UNL     1      -9.329  16.884  68.276  1.00  0.00    -0.248 C  
HETATM   14  C   UNL     1      -8.852  15.432  68.203  1.00  0.00    -0.170 C  
BRANCH  11  15
HETATM   15  C   UNL     1     -11.466  11.306  67.494  1.00  0.00    -0.246 C  
BRANCH  15  16
HETATM   16  C   UNL     1     -10.571  10.163  67.941  1.00  0.00    -0.294 A  
HETATM   17  C   UNL     1     -10.652   8.908  67.341  1.00  0.00    -0.305 A  
HETATM   18  C   UNL     1     -10.024   7.794  67.919  1.00  0.00    -0.212 A  
HETATM   19  C   UNL     1      -9.233   7.899  69.080  1.00  0.00    -0.144 A  
HETATM   20  C   UNL     1      -8.987   9.203  69.532  1.00  0.00    -0.151 A  
HETATM   21  C   UNL     1      -9.684  10.310  69.015  1.00  0.00    -0.213 A  
BRANCH  19  22
HETATM   22  C   UNL     1      -8.758   6.665  69.796  1.00  0.00    -0.140 A  
HETATM   23  C   UNL     1      -7.574   6.031  69.338  1.00  0.00    -0.097 A  
HETATM   24  C   UNL     1      -7.111   4.815  69.856  1.00  0.00    -0.053 A  
HETATM   25  C   UNL     1      -7.794   4.202  70.890  1.00  0.00    -0.059 A  
HETATM   26  C   UNL     1      -8.938   4.808  71.400  1.00  0.00    -0.164 A  
HETATM   27  C   UNL     1      -9.446   6.019  70.863  1.00  0.00    -0.188 A  
BRANCH  27  28
HETATM   28  C   UNL     1     -10.700   6.482  71.456  1.00  0.00    -0.235 A  
HETATM   29  N   UNL     1     -10.853   6.735  72.773  1.00  0.00    -0.248 NA 
HETATM   30  N   UNL     1     -12.146   7.083  72.802  1.00  0.00    -0.458 NA 
HETATM   31  H   UNL     1     -12.614   7.352  73.667  1.00  0.00     0.000 HD 
HETATM   32  N   UNL     1     -12.786   7.059  71.630  1.00  0.00    -0.378 NA 
HETATM   33  N   UNL     1     -11.877   6.640  70.762  1.00  0.00    -0.388 NA 
ENDBRANCH  27  28
ENDBRANCH  19  22
ENDBRANCH  15  16
ENDBRANCH  11  15
ENDBRANCH   4   5
ENDBRANCH   3   4
ENDBRANCH   2   3
TORSDOF 7
ENDMDL
MODEL      133
REMARK 921   NORMALIZED FREE ENERGY PREDICTED BY IDOCK:   -5.02 KCAL/MOL
REMARK 922        TOTAL FREE ENERGY PREDICTED BY IDOCK:   -9.02 KCAL/MOL
REMARK 923 INTER-LIGAND FREE ENERGY PREDICTED BY IDOCK:   -7.43 KCAL/MOL
REMARK 924 INTRA-LIGAND FREE ENERGY PREDICTED BY IDOCK:   -1.59 KCAL/MOL
REMARK 927      BINDING AFFINITY PREDICTED BY RF-SCORE:    0.00 PKD
ROOT
HETATM    1  C   UNL     1      -7.420   9.534  70.070  1.00  0.00    -0.126 C  
HETATM    2  C   UNL     1      -8.058   8.386  70.826  1.00  0.00    -0.114 C  
ENDROOT
BRANCH   2   3
HETATM    3  C   UNL     1      -7.882   7.065  70.083  1.00  0.00    -0.109 C  
BRANCH   3   4
HETATM    4  C   UNL     1      -7.508   7.283  68.621  1.00  0.00    -0.102 C  
BRANCH   4   5
HETATM    5  C   UNL     1      -8.084   6.187  67.768  1.00  0.00    -0.113 C  
HETATM    6  N   UNL     1      -7.280   5.369  67.156  1.00  0.00    -0.074 NA 
HETATM    7  C   UNL     1      -8.175   4.395  66.484  1.00  0.00    -0.102 C  
HETATM    8  C   UNL     1      -9.547   5.032  66.629  1.00  0.00    -0.158 C  
HETATM    9  C   UNL     1      -8.126   3.060  67.236  1.00  0.00    -0.078 C  
HETATM   10  O   UNL     1     -10.563   4.741  66.015  1.00  0.00    -0.311 OA 
HETATM   11  N   UNL     1      -9.405   5.994  67.596  1.00  0.00    -0.113 N  
HETATM   12  C   UNL     1      -8.313   2.028  66.136  1.00  0.00    -0.095 C  
HETATM   13  C   UNL     1      -7.485   2.594  64.995  1.00  0.00    -0.071 C  
HETATM   14  C   UNL     1      -7.721   4.104  65.054  1.00  0.00    -0.082 C  
BRANCH  11  15
HETATM   15  C   UNL     1     -10.553   6.715  68.141  1.00  0.00    -0.241 C  
BRANCH  15  16
HETATM   16  C   UNL     1     -10.531   8.190  67.782  1.00  0.00    -0.279 A  
HETATM   17  C   UNL     1     -10.013   8.627  66.564  1.00  0.00    -0.353 A  
HETATM   18  C   UNL     1      -9.751   9.987  66.342  1.00  0.00    -0.266 A  
HETATM   19  C   UNL     1     -10.058  10.975  67.298  1.00  0.00    -0.222 A  
HETATM   20  C   UNL     1     -10.780  10.535  68.417  1.00  0.00    -0.262 A  
HETATM   21  C   UNL     1     -10.964   9.167  68.687  1.00  0.00     0.002 A  
BRANCH  19  22
HETATM   22  C   UNL     1      -9.569  12.386  67.126  1.00  0.00    -0.206 A  
HETATM   23  C   UNL     1      -8.535  12.853  67.978  1.00  0.00    -0.178 A  
HETATM   24  C   UNL     1      -8.090  14.181  67.980  1.00  0.00    -0.149 A  
HETATM   25  C   UNL     1      -8.634  15.092  67.094  1.00  0.00    -0.246 A  
HETATM   26  C   UNL     1      -9.622  14.670  66.211  1.00  0.00    -0.333 A  
HETATM   27  C   UNL     1     -10.115  13.339  66.218  1.00  0.00    -0.294 A  
BRANCH  27  28
HETATM   28  C   UNL     1     -11.209  13.078  65.284  1.00  0.00    -0.289 A  
HETATM   29  N   UNL     1     -11.123  13.303  63.955  1.00  0.00    -0.361 NA 
HETATM   30  N   UNL     1     -12.357  12.947  63.572  1.00  0.00    -0.704 NA 
HETATM   31  H   UNL     1     -12.652  12.988  62.597  1.00  0.00     0.000 HD 
HETATM   32  N   UNL     1     -13.176  12.535  64.542  1.00  0.00    -0.779 NA 
HETATM   33  N   UNL     1     -12.462  12.648  65.653  1.00  0.00    -0.620 NA 
ENDBRANCH  27  28
ENDBRANCH  19  22
ENDBRANCH  15  16
ENDBRANCH  11  15
ENDBRANCH   4   5
ENDBRANCH   3   4
ENDBRANCH   2   3
TORSDOF 7
ENDMDL
MODEL      134
REMARK 921   NORMALIZED FREE ENERGY PREDICTED BY IDOCK:   -5.01 KCAL/MOL
REMARK 922        TOTAL FREE ENERGY PREDICTED BY IDOCK:   -9.01 KCAL/MOL
REMARK 923 INTER-LIGAND FREE ENERGY PREDICTED BY IDOCK:   -7.90 KCAL/MOL
REMARK 924 INTRA-LIGAND FREE ENERGY PREDICTED BY IDOCK:   -1.11 KCAL/MOL
REMARK 927      BINDING AFFINITY PREDICTED BY RF-SCORE:    0.00 PKD
ROOT
HETATM    1  C   UNL     1     -13.506  11.891  71.850  1.00  0.00    -0.289 C  
HETATM    2  C   UNL     1     -13.153  10.487  72.297  1.00  0.00    -0.242 C  
ENDROOT
BRANCH   2   3
HETATM    3  C   UNL     1     -12.688   9.631  71.122  1.00  0.00    -0.407 C  
BRANCH   3   4
HETATM    4  C   UNL     1     -11.172   9.664  70.961  1.00  0.00    -0.445 C  
BRANCH   4   5
HETATM    5  C   UNL     1     -10.562   8.406  71.514  1.00  0.00    -0.241 C  
HETATM    6  N   UNL     1     -11.336   7.492  72.016  1.00  0.00    -0.262 NA 
HETATM    7  C   UNL     1     -10.420   6.386  72.388  1.00  0.00    -0.198 C  
HETATM    8  C   UNL     1      -9.045   7.018  72.251  1.00  0.00    -0.133 C  
HETATM    9  C   UNL     1     -10.580   5.237  71.386  1.00  0.00    -0.247 C  
HETATM   10  O   UNL     1      -7.990   6.591  72.696  1.00  0.00    -0.103 OA 
HETATM   11  N   UNL     1      -9.238   8.162  71.519  1.00  0.00    -0.149 N  
HETATM   12  C   UNL     1     -10.333   3.996  72.229  1.00  0.00    -0.183 C  
HETATM   13  C   UNL     1     -11.038   4.326  73.534  1.00  0.00    -0.377 C  
HETATM   14  C   UNL     1     -10.758   5.812  73.763  1.00  0.00    -0.247 C  
BRANCH  11  15
HETATM   15  C   UNL     1      -8.118   8.962  71.030  1.00  0.00    -0.170 C  
BRANCH  15  16
HETATM   16  C   UNL     1      -8.306   9.394  69.586  1.00  0.00    -0.147 A  
HETATM   17  C   UNL     1      -8.155  10.727  69.207  1.00  0.00    -0.102 A  
HETATM   18  C   UNL     1      -8.580  11.168  67.946  1.00  0.00    -0.135 A  
HETATM   19  C   UNL     1      -9.110  10.285  66.984  1.00  0.00    -0.154 A  
HETATM   20  C   UNL     1      -9.043   8.923  67.306  1.00  0.00    -0.153 A  
HETATM   21  C   UNL     1      -8.704   8.484  68.600  1.00  0.00    -0.139 A  
BRANCH  19  22
HETATM   22  C   UNL     1      -9.756  10.814  65.734  1.00  0.00    -0.278 A  
HETATM   23  C   UNL     1      -9.289  10.342  64.479  1.00  0.00    -0.313 A  
HETATM   24  C   UNL     1      -9.739  10.856  63.256  1.00  0.00    -0.398 A  
HETATM   25  C   UNL     1     -10.712  11.838  63.237  1.00  0.00    -0.414 A  
HETATM   26  C   UNL     1     -11.230  12.302  64.441  1.00  0.00    -0.389 A  
HETATM   27  C   UNL     1     -10.760  11.824  65.693  1.00  0.00    -0.328 A  
BRANCH  27  28
HETATM   28  C   UNL     1     -11.349  12.471  66.864  1.00  0.00    -0.326 A  
HETATM   29  N   UNL     1     -11.129  13.763  67.190  1.00  0.00    -0.296 NA 
HETATM   30  N   UNL     1     -11.841  13.848  68.322  1.00  0.00    -0.362 NA 
HETATM   31  H   UNL     1     -11.905  14.715  68.855  1.00  0.00     0.000 HD 
HETATM   32  N   UNL     1     -12.462  12.732  68.710  1.00  0.00     0.286 NA 
HETATM   33  N   UNL     1     -12.125  11.829  67.800  1.00  0.00    -0.560 NA 
ENDBRANCH  27  28
ENDBRANCH  19  22
ENDBRANCH  15  16
ENDBRANCH  11  15
ENDBRANCH   4   5
ENDBRANCH   3   4
ENDBRANCH   2   3
TORSDOF 7
ENDMDL
MODEL      135
REMARK 921   NORMALIZED FREE ENERGY PREDICTED BY IDOCK:   -5.00 KCAL/MOL
REMARK 922        TOTAL FREE ENERGY PREDICTED BY IDOCK:   -8.99 KCAL/MOL
REMARK 923 INTER-LIGAND FREE ENERGY PREDICTED BY IDOCK:   -7.23 KCAL/MOL
REMARK 924 INTRA-LIGAND FREE ENERGY PREDICTED BY IDOCK:   -1.77 KCAL/MOL
REMARK 927      BINDING AFFINITY PREDICTED BY RF-SCORE:    0.00 PKD
ROOT
HETATM    1  C   UNL     1     -13.877  13.675  72.213  1.00  0.00    -0.689 C  
HETATM    2  C   UNL     1     -13.192  12.335  72.039  1.00  0.00    -0.508 C  
ENDROOT
BRANCH   2   3
HETATM    3  C   UNL     1     -12.318  12.318  70.788  1.00  0.00    -0.383 C  
BRANCH   3   4
HETATM    4  C   UNL     1     -12.535  11.056  69.961  1.00  0.00    -0.319 C  
BRANCH   4   5
HETATM    5  C   UNL     1     -11.650   9.948  70.459  1.00  0.00    -0.309 C  
HETATM    6  N   UNL     1     -12.158   9.016  71.209  1.00  0.00    -0.304 NA 
HETATM    7  C   UNL     1     -11.040   8.071  71.446  1.00  0.00    -0.241 C  
HETATM    8  C   UNL     1      -9.831   8.833  70.931  1.00  0.00    -0.222 C  
HETATM    9  C   UNL     1     -11.263   6.803  70.614  1.00  0.00    -0.361 C  
HETATM   10  O   UNL     1      -8.654   8.582  71.146  1.00  0.00    -0.137 OA 
HETATM   11  N   UNL     1     -10.338   9.856  70.170  1.00  0.00    -0.270 N  
HETATM   12  C   UNL     1     -10.665   5.704  71.477  1.00  0.00    -0.306 C  
HETATM   13  C   UNL     1     -11.096   6.101  72.879  1.00  0.00    -0.281 C  
HETATM   14  C   UNL     1     -10.976   7.626  72.906  1.00  0.00    -0.456 C  
BRANCH  11  15
HETATM   15  C   UNL     1      -9.477  10.715  69.360  1.00  0.00    -0.078 C  
BRANCH  15  16
HETATM   16  C   UNL     1      -9.081  10.062  68.048  1.00  0.00    -0.132 A  
HETATM   17  C   UNL     1     -10.025   9.808  67.056  1.00  0.00    -0.259 A  
HETATM   18  C   UNL     1      -9.719   8.977  65.968  1.00  0.00    -0.339 A  
HETATM   19  C   UNL     1      -8.436   8.422  65.788  1.00  0.00    -0.169 A  
HETATM   20  C   UNL     1      -7.448   8.873  66.675  1.00  0.00    -0.086 A  
HETATM   21  C   UNL     1      -7.769   9.629  67.817  1.00  0.00    -0.094 A  
BRANCH  19  22
HETATM   22  C   UNL     1      -8.198   7.368  64.743  1.00  0.00    -0.060 A  
HETATM   23  C   UNL     1      -7.897   7.782  63.420  1.00  0.00    -0.131 A  
HETATM   24  C   UNL     1      -7.776   6.888  62.349  1.00  0.00    -0.106 A  
HETATM   25  C   UNL     1      -7.908   5.529  62.568  1.00  0.00    -0.082 A  
HETATM   26  C   UNL     1      -8.161   5.072  63.857  1.00  0.00    -0.125 A  
HETATM   27  C   UNL     1      -8.328   5.964  64.949  1.00  0.00    -0.115 A  
BRANCH  27  28
HETATM   28  C   UNL     1      -8.670   5.329  66.221  1.00  0.00    -0.122 A  
HETATM   29  N   UNL     1      -9.932   5.009  66.578  1.00  0.00    -0.199 NA 
HETATM   30  N   UNL     1      -9.714   4.504  67.799  1.00  0.00    -0.160 NA 
HETATM   31  H   UNL     1     -10.474   4.148  68.379  1.00  0.00     0.000 HD 
HETATM   32  N   UNL     1      -8.445   4.495  68.213  1.00  0.00    -0.093 NA 
HETATM   33  N   UNL     1      -7.767   5.055  67.221  1.00  0.00    -0.091 NA 
ENDBRANCH  27  28
ENDBRANCH  19  22
ENDBRANCH  15  16
ENDBRANCH  11  15
ENDBRANCH   4   5
ENDBRANCH   3   4
ENDBRANCH   2   3
TORSDOF 7
ENDMDL
MODEL      136
REMARK 921   NORMALIZED FREE ENERGY PREDICTED BY IDOCK:   -4.98 KCAL/MOL
REMARK 922        TOTAL FREE ENERGY PREDICTED BY IDOCK:   -8.97 KCAL/MOL
REMARK 923 INTER-LIGAND FREE ENERGY PREDICTED BY IDOCK:   -8.37 KCAL/MOL
REMARK 924 INTRA-LIGAND FREE ENERGY PREDICTED BY IDOCK:   -0.60 KCAL/MOL
REMARK 927      BINDING AFFINITY PREDICTED BY RF-SCORE:    0.00 PKD
ROOT
HETATM    1  C   UNL     1     -14.203  15.266  71.719  1.00  0.00    -0.669 C  
HETATM    2  C   UNL     1     -14.108  13.837  72.214  1.00  0.00    -0.627 C  
ENDROOT
BRANCH   2   3
HETATM    3  C   UNL     1     -13.082  13.040  71.414  1.00  0.00    -0.336 C  
BRANCH   3   4
HETATM    4  C   UNL     1     -12.045  13.945  70.759  1.00  0.00    -0.404 C  
BRANCH   4   5
HETATM    5  C   UNL     1     -11.895  13.599  69.304  1.00  0.00    -0.346 C  
HETATM    6  N   UNL     1     -11.959  14.545  68.416  1.00  0.00    -0.306 NA 
HETATM    7  C   UNL     1     -11.700  13.865  67.123  1.00  0.00    -0.388 C  
HETATM    8  C   UNL     1     -11.782  12.392  67.487  1.00  0.00    -0.357 C  
HETATM    9  C   UNL     1     -10.289  14.216  66.640  1.00  0.00    -0.277 C  
HETATM   10  O   UNL     1     -11.898  11.448  66.719  1.00  0.00    -0.443 OA 
HETATM   11  N   UNL     1     -11.692  12.346  68.855  1.00  0.00    -0.310 N  
HETATM   12  C   UNL     1     -10.426  14.229  65.126  1.00  0.00    -0.432 C  
HETATM   13  C   UNL     1     -11.778  14.891  64.914  1.00  0.00    -0.371 C  
HETATM   14  C   UNL     1     -12.662  14.338  66.034  1.00  0.00    -0.240 C  
BRANCH  11  15
HETATM   15  C   UNL     1     -11.562  11.083  69.577  1.00  0.00    -0.313 C  
BRANCH  15  16
HETATM   16  C   UNL     1     -10.453  10.210  69.016  1.00  0.00    -0.239 A  
HETATM   17  C   UNL     1      -9.139  10.669  68.949  1.00  0.00    -0.181 A  
HETATM   18  C   UNL     1      -8.174   9.979  68.200  1.00  0.00    -0.109 A  
HETATM   19  C   UNL     1      -8.462   8.766  67.544  1.00  0.00    -0.120 A  
HETATM   20  C   UNL     1      -9.723   8.215  67.812  1.00  0.00    -0.193 A  
HETATM   21  C   UNL     1     -10.722   8.943  68.484  1.00  0.00    -0.124 A  
BRANCH  19  22
HETATM   22  C   UNL     1      -7.481   8.168  66.576  1.00  0.00    -0.088 A  
HETATM   23  C   UNL     1      -6.415   7.383  67.091  1.00  0.00    -0.060 A  
HETATM   24  C   UNL     1      -5.383   6.881  66.289  1.00  0.00    -0.022 A  
HETATM   25  C   UNL     1      -5.397   7.106  64.925  1.00  0.00    -0.028 A  
HETATM   26  C   UNL     1      -6.443   7.834  64.370  1.00  0.00    -0.052 A  
HETATM   27  C   UNL     1      -7.479   8.386  65.168  1.00  0.00    -0.084 A  
BRANCH  27  28
HETATM   28  C   UNL     1      -8.458   9.193  64.442  1.00  0.00    -0.184 A  
HETATM   29  N   UNL     1      -8.850   8.928  63.177  1.00  0.00    -0.050 NA 
HETATM   30  N   UNL     1      -9.700   9.943  62.973  1.00  0.00    -0.526 NA 
HETATM   31  H   UNL     1     -10.201  10.059  62.093  1.00  0.00     0.000 HD 
HETATM   32  N   UNL     1      -9.853  10.794  63.990  1.00  0.00    -0.304 NA 
HETATM   33  N   UNL     1      -9.033  10.343  64.929  1.00  0.00    -0.186 NA 
ENDBRANCH  27  28
ENDBRANCH  19  22
ENDBRANCH  15  16
ENDBRANCH  11  15
ENDBRANCH   4   5
ENDBRANCH   3   4
ENDBRANCH   2   3
TORSDOF 7
ENDMDL
MODEL      137
REMARK 921   NORMALIZED FREE ENERGY PREDICTED BY IDOCK:   -4.97 KCAL/MOL
REMARK 922        TOTAL FREE ENERGY PREDICTED BY IDOCK:   -8.96 KCAL/MOL
REMARK 923 INTER-LIGAND FREE ENERGY PREDICTED BY IDOCK:   -7.26 KCAL/MOL
REMARK 924 INTRA-LIGAND FREE ENERGY PREDICTED BY IDOCK:   -1.70 KCAL/MOL
REMARK 927      BINDING AFFINITY PREDICTED BY RF-SCORE:    0.00 PKD
ROOT
HETATM    1  C   UNL     1      -6.386  11.889  69.239  1.00  0.00    -0.105 C  
HETATM    2  C   UNL     1      -6.318  10.412  68.910  1.00  0.00    -0.047 C  
ENDROOT
BRANCH   2   3
HETATM    3  C   UNL     1      -6.969  10.114  67.563  1.00  0.00    -0.085 C  
BRANCH   3   4
HETATM    4  C   UNL     1      -7.465   8.674  67.477  1.00  0.00    -0.090 C  
BRANCH   4   5
HETATM    5  C   UNL     1      -8.409   8.380  68.610  1.00  0.00    -0.120 C  
HETATM    6  N   UNL     1      -7.949   7.831  69.694  1.00  0.00    -0.114 NA 
HETATM    7  C   UNL     1      -9.119   7.758  70.603  1.00  0.00    -0.153 C  
HETATM    8  C   UNL     1     -10.286   8.096  69.691  1.00  0.00    -0.205 C  
HETATM    9  C   UNL     1      -8.976   8.820  71.699  1.00  0.00    -0.301 C  
HETATM   10  O   UNL     1     -11.473   7.910  69.913  1.00  0.00    -0.051 OA 
HETATM   11  N   UNL     1      -9.726   8.657  68.571  1.00  0.00    -0.159 N  
HETATM   12  C   UNL     1      -9.630   8.171  72.908  1.00  0.00    -0.345 C  
HETATM   13  C   UNL     1      -9.165   6.727  72.811  1.00  0.00    -0.149 C  
HETATM   14  C   UNL     1      -9.197   6.408  71.315  1.00  0.00    -0.158 C  
BRANCH  11  15
HETATM   15  C   UNL     1     -10.541   9.272  67.527  1.00  0.00    -0.262 C  
BRANCH  15  16
HETATM   16  C   UNL     1     -10.750  10.758  67.759  1.00  0.00    -0.296 A  
HETATM   17  C   UNL     1     -11.622  11.497  66.961  1.00  0.00    -0.203 A  
HETATM   18  C   UNL     1     -11.619  12.899  67.000  1.00  0.00    -0.419 A  
HETATM   19  C   UNL     1     -10.794  13.621  67.885  1.00  0.00    -0.264 A  
HETATM   20  C   UNL     1     -10.094  12.854  68.827  1.00  0.00    -0.058 A  
HETATM   21  C   UNL     1     -10.023  11.452  68.734  1.00  0.00    -0.188 A  
BRANCH  19  22
HETATM   22  C   UNL     1     -10.650  15.112  67.752  1.00  0.00    -0.264 A  
HETATM   23  C   UNL     1     -10.070  15.633  66.566  1.00  0.00    -0.293 A  
HETATM   24  C   UNL     1      -9.782  16.992  66.392  1.00  0.00    -0.310 A  
HETATM   25  C   UNL     1     -10.105  17.898  67.385  1.00  0.00    -0.341 A  
HETATM   26  C   UNL     1     -10.714  17.439  68.549  1.00  0.00    -0.279 A  
HETATM   27  C   UNL     1     -10.978  16.061  68.763  1.00  0.00    -0.320 A  
BRANCH  27  28
HETATM   28  C   UNL     1     -11.546  15.734  70.069  1.00  0.00    -0.357 A  
HETATM   29  N   UNL     1     -10.798  15.465  71.161  1.00  0.00    -0.235 NA 
HETATM   30  N   UNL     1     -11.762  15.205  72.054  1.00  0.00    -0.413 NA 
HETATM   31  H   UNL     1     -11.551  14.959  73.020  1.00  0.00     0.000 HD 
HETATM   32  N   UNL     1     -13.016  15.287  71.603  1.00  0.00    -0.373 NA 
HETATM   33  N   UNL     1     -12.890  15.592  70.320  1.00  0.00    -0.297 NA 
ENDBRANCH  27  28
ENDBRANCH  19  22
ENDBRANCH  15  16
ENDBRANCH  11  15
ENDBRANCH   4   5
ENDBRANCH   3   4
ENDBRANCH   2   3
TORSDOF 7
ENDMDL
MODEL      138
REMARK 921   NORMALIZED FREE ENERGY PREDICTED BY IDOCK:   -4.97 KCAL/MOL
REMARK 922        TOTAL FREE ENERGY PREDICTED BY IDOCK:   -8.96 KCAL/MOL
REMARK 923 INTER-LIGAND FREE ENERGY PREDICTED BY IDOCK:   -8.43 KCAL/MOL
REMARK 924 INTRA-LIGAND FREE ENERGY PREDICTED BY IDOCK:   -0.53 KCAL/MOL
REMARK 927      BINDING AFFINITY PREDICTED BY RF-SCORE:    0.00 PKD
ROOT
HETATM    1  C   UNL     1     -10.018  17.759  68.086  1.00  0.00    -0.342 C  
HETATM    2  C   UNL     1      -9.983  16.267  67.827  1.00  0.00    -0.246 C  
ENDROOT
BRANCH   2   3
HETATM    3  C   UNL     1      -8.698  15.641  68.360  1.00  0.00    -0.178 C  
BRANCH   3   4
HETATM    4  C   UNL     1      -8.260  14.443  67.524  1.00  0.00    -0.201 C  
BRANCH   4   5
HETATM    5  C   UNL     1      -9.447  13.817  66.848  1.00  0.00    -0.262 C  
HETATM    6  N   UNL     1      -9.759  14.185  65.642  1.00  0.00    -0.233 NA 
HETATM    7  C   UNL     1     -10.910  13.326  65.272  1.00  0.00    -0.301 C  
HETATM    8  C   UNL     1     -11.295  12.679  66.592  1.00  0.00    -0.326 C  
HETATM    9  C   UNL     1     -10.447  12.260  64.272  1.00  0.00    -0.375 C  
HETATM   10  O   UNL     1     -12.338  12.098  66.852  1.00  0.00    -0.402 OA 
HETATM   11  N   UNL     1     -10.223  12.880  67.425  1.00  0.00    -0.228 N  
HETATM   12  C   UNL     1     -11.667  12.049  63.390  1.00  0.00    -0.519 C  
HETATM   13  C   UNL     1     -12.205  13.459  63.211  1.00  0.00    -0.314 C  
HETATM   14  C   UNL     1     -12.010  14.126  64.575  1.00  0.00    -0.476 C  
BRANCH  11  15
HETATM   15  C   UNL     1     -10.141  12.251  68.741  1.00  0.00    -0.068 C  
BRANCH  15  16
HETATM   16  C   UNL     1      -9.810  10.772  68.653  1.00  0.00    -0.187 A  
HETATM   17  C   UNL     1     -10.701   9.867  68.078  1.00  0.00    -0.296 A  
HETATM   18  C   UNL     1     -10.519   8.485  68.231  1.00  0.00    -0.222 A  
HETATM   19  C   UNL     1      -9.405   7.946  68.904  1.00  0.00    -0.150 A  
HETATM   20  C   UNL     1      -8.415   8.866  69.276  1.00  0.00    -0.121 A  
HETATM   21  C   UNL     1      -8.633  10.255  69.208  1.00  0.00    -0.175 A  
BRANCH  19  22
HETATM   22  C   UNL     1      -9.350   6.482  69.242  1.00  0.00    -0.141 A  
HETATM   23  C   UNL     1      -8.769   5.592  68.301  1.00  0.00    -0.106 A  
HETATM   24  C   UNL     1      -8.774   4.201  68.464  1.00  0.00    -0.124 A  
HETATM   25  C   UNL     1      -9.324   3.642  69.602  1.00  0.00    -0.243 A  
HETATM   26  C   UNL     1      -9.868   4.477  70.572  1.00  0.00    -0.297 A  
HETATM   27  C   UNL     1      -9.909   5.887  70.409  1.00  0.00    -0.231 A  
BRANCH  27  28
HETATM   28  C   UNL     1     -10.587   6.615  71.481  1.00  0.00    -0.222 A  
HETATM   29  N   UNL     1     -11.896   6.942  71.447  1.00  0.00    -0.310 NA 
HETATM   30  N   UNL     1     -12.007   7.605  72.606  1.00  0.00    -0.575 NA 
HETATM   31  H   UNL     1     -12.892   8.004  72.917  1.00  0.00     0.000 HD 
HETATM   32  N   UNL     1     -10.890   7.713  73.329  1.00  0.00    -0.385 NA 
HETATM   33  N   UNL     1      -9.961   7.111  72.600  1.00  0.00    -0.170 NA 
ENDBRANCH  27  28
ENDBRANCH  19  22
ENDBRANCH  15  16
ENDBRANCH  11  15
ENDBRANCH   4   5
ENDBRANCH   3   4
ENDBRANCH   2   3
TORSDOF 7
ENDMDL
MODEL      139
REMARK 921   NORMALIZED FREE ENERGY PREDICTED BY IDOCK:   -4.96 KCAL/MOL
REMARK 922        TOTAL FREE ENERGY PREDICTED BY IDOCK:   -8.94 KCAL/MOL
REMARK 923 INTER-LIGAND FREE ENERGY PREDICTED BY IDOCK:   -7.97 KCAL/MOL
REMARK 924 INTRA-LIGAND FREE ENERGY PREDICTED BY IDOCK:   -0.97 KCAL/MOL
REMARK 927      BINDING AFFINITY PREDICTED BY RF-SCORE:    0.00 PKD
ROOT
HETATM    1  C   UNL     1     -12.478  11.977  70.864  1.00  0.00    -0.384 C  
HETATM    2  C   UNL     1     -11.786  13.215  70.331  1.00  0.00    -0.259 C  
ENDROOT
BRANCH   2   3
HETATM    3  C   UNL     1     -12.560  14.480  70.689  1.00  0.00    -0.416 C  
BRANCH   3   4
HETATM    4  C   UNL     1     -12.839  15.343  69.463  1.00  0.00     0.280 C  
BRANCH   4   5
HETATM    5  C   UNL     1     -11.587  15.507  68.647  1.00  0.00    -0.368 C  
HETATM    6  N   UNL     1     -10.571  16.132  69.161  1.00  0.00    -0.254 NA 
HETATM    7  C   UNL     1      -9.511  16.042  68.127  1.00  0.00    -0.208 C  
HETATM    8  C   UNL     1     -10.261  15.523  66.911  1.00  0.00    -0.279 C  
HETATM    9  C   UNL     1      -8.453  15.027  68.573  1.00  0.00    -0.163 C  
HETATM   10  O   UNL     1      -9.879  15.532  65.750  1.00  0.00    -0.318 OA 
HETATM   11  N   UNL     1     -11.450  15.037  67.393  1.00  0.00    -0.339 N  
HETATM   12  C   UNL     1      -7.162  15.587  67.998  1.00  0.00    -0.132 C  
HETATM   13  C   UNL     1      -7.309  17.082  68.224  1.00  0.00    -0.203 C  
HETATM   14  C   UNL     1      -8.785  17.374  67.945  1.00  0.00    -0.237 C  
BRANCH  11  15
HETATM   15  C   UNL     1     -12.379  14.294  66.545  1.00  0.00    -0.314 C  
BRANCH  15  16
HETATM   16  C   UNL     1     -11.795  12.978  66.065  1.00  0.00    -0.471 A  
HETATM   17  C   UNL     1     -11.388  11.998  66.968  1.00  0.00    -0.396 A  
HETATM   18  C   UNL     1     -10.615  10.907  66.544  1.00  0.00    -0.295 A  
HETATM   19  C   UNL     1     -10.275  10.711  65.191  1.00  0.00    -0.368 A  
HETATM   20  C   UNL     1     -10.883  11.584  64.278  1.00  0.00    -0.421 A  
HETATM   21  C   UNL     1     -11.581  12.730  64.703  1.00  0.00    -0.384 A  
BRANCH  19  22
HETATM   22  C   UNL     1      -9.270   9.664  64.798  1.00  0.00    -0.298 A  
HETATM   23  C   UNL     1      -8.784   9.658  63.465  1.00  0.00    -0.236 A  
HETATM   24  C   UNL     1      -7.941   8.658  62.965  1.00  0.00    -0.161 A  
HETATM   25  C   UNL     1      -7.510   7.641  63.796  1.00  0.00    -0.105 A  
HETATM   26  C   UNL     1      -7.927   7.627  65.123  1.00  0.00    -0.130 A  
HETATM   27  C   UNL     1      -8.813   8.609  65.639  1.00  0.00    -0.227 A  
BRANCH  27  28
HETATM   28  C   UNL     1      -9.219   8.407  67.029  1.00  0.00    -0.151 A  
HETATM   29  N   UNL     1      -8.504   8.850  68.086  1.00  0.00    -0.129 NA 
HETATM   30  N   UNL     1      -9.260   8.395  69.094  1.00  0.00    -0.150 NA 
HETATM   31  H   UNL     1      -9.012   8.557  70.070  1.00  0.00     0.000 HD 
HETATM   32  N   UNL     1     -10.356   7.717  68.746  1.00  0.00    -0.205 NA 
HETATM   33  N   UNL     1     -10.323   7.687  67.421  1.00  0.00    -0.249 NA 
ENDBRANCH  27  28
ENDBRANCH  19  22
ENDBRANCH  15  16
ENDBRANCH  11  15
ENDBRANCH   4   5
ENDBRANCH   3   4
ENDBRANCH   2   3
TORSDOF 7
ENDMDL
MODEL      140
REMARK 921   NORMALIZED FREE ENERGY PREDICTED BY IDOCK:   -4.96 KCAL/MOL
REMARK 922        TOTAL FREE ENERGY PREDICTED BY IDOCK:   -8.94 KCAL/MOL
REMARK 923 INTER-LIGAND FREE ENERGY PREDICTED BY IDOCK:   -8.00 KCAL/MOL
REMARK 924 INTRA-LIGAND FREE ENERGY PREDICTED BY IDOCK:   -0.94 KCAL/MOL
REMARK 927      BINDING AFFINITY PREDICTED BY RF-SCORE:    0.00 PKD
ROOT
HETATM    1  C   UNL     1      -8.564   2.583  71.141  1.00  0.00    -0.104 C  
HETATM    2  C   UNL     1      -9.329   2.971  69.892  1.00  0.00    -0.221 C  
ENDROOT
BRANCH   2   3
HETATM    3  C   UNL     1      -9.910   4.377  70.012  1.00  0.00    -0.294 C  
BRANCH   3   4
HETATM    4  C   UNL     1      -9.048   5.411  69.297  1.00  0.00    -0.133 C  
BRANCH   4   5
HETATM    5  C   UNL     1      -8.589   6.466  70.265  1.00  0.00    -0.135 C  
HETATM    6  N   UNL     1      -8.803   6.300  71.535  1.00  0.00    -0.138 NA 
HETATM    7  C   UNL     1      -8.165   7.473  72.181  1.00  0.00    -0.103 C  
HETATM    8  C   UNL     1      -7.852   8.384  71.007  1.00  0.00    -0.100 C  
HETATM    9  C   UNL     1      -6.870   7.029  72.870  1.00  0.00    -0.069 C  
HETATM   10  O   UNL     1      -7.565   9.571  71.051  1.00  0.00    -0.311 OA 
HETATM   11  N   UNL     1      -7.954   7.593  69.890  1.00  0.00    -0.113 N  
HETATM   12  C   UNL     1      -6.781   7.945  74.080  1.00  0.00    -0.129 C  
HETATM   13  C   UNL     1      -8.223   8.019  74.555  1.00  0.00    -0.242 C  
HETATM   14  C   UNL     1      -9.054   8.069  73.272  1.00  0.00    -0.349 C  
BRANCH  11  15
HETATM   15  C   UNL     1      -7.558   8.070  68.568  1.00  0.00    -0.104 C  
BRANCH  15  16
HETATM   16  C   UNL     1      -8.488   9.148  68.041  1.00  0.00    -0.121 A  
HETATM   17  C   UNL     1      -9.866   8.948  67.988  1.00  0.00    -0.199 A  
HETATM   18  C   UNL     1     -10.692   9.823  67.268  1.00  0.00    -0.296 A  
HETATM   19  C   UNL     1     -10.188  10.973  66.629  1.00  0.00    -0.280 A  
HETATM   20  C   UNL     1      -8.842  11.271  66.886  1.00  0.00    -0.165 A  
HETATM   21  C   UNL     1      -7.991  10.353  67.528  1.00  0.00    -0.106 A  
BRANCH  19  22
HETATM   22  C   UNL     1     -11.051  11.767  65.689  1.00  0.00    -0.340 A  
HETATM   23  C   UNL     1     -11.018  11.448  64.306  1.00  0.00    -0.390 A  
HETATM   24  C   UNL     1     -11.689  12.199  63.334  1.00  0.00    -0.533 A  
HETATM   25  C   UNL     1     -12.462  13.281  63.711  1.00  0.00    -0.339 A  
HETATM   26  C   UNL     1     -12.559  13.607  65.059  1.00  0.00    -0.434 A  
HETATM   27  C   UNL     1     -11.855  12.884  66.058  1.00  0.00    -0.485 A  
BRANCH  27  28
HETATM   28  C   UNL     1     -11.998  13.403  67.417  1.00  0.00    -0.346 A  
HETATM   29  N   UNL     1     -12.154  14.714  67.700  1.00  0.00    -0.275 NA 
HETATM   30  N   UNL     1     -12.202  14.665  69.039  1.00  0.00    -0.562 NA 
HETATM   31  H   UNL     1     -12.322  15.504  69.605  1.00  0.00     0.000 HD 
HETATM   32  N   UNL     1     -12.086  13.453  69.586  1.00  0.00    -0.310 NA 
HETATM   33  N   UNL     1     -11.918  12.637  68.555  1.00  0.00    -0.278 NA 
ENDBRANCH  27  28
ENDBRANCH  19  22
ENDBRANCH  15  16
ENDBRANCH  11  15
ENDBRANCH   4   5
ENDBRANCH   3   4
ENDBRANCH   2   3
TORSDOF 7
ENDMDL
MODEL      141
REMARK 921   NORMALIZED FREE ENERGY PREDICTED BY IDOCK:   -4.95 KCAL/MOL
REMARK 922        TOTAL FREE ENERGY PREDICTED BY IDOCK:   -8.93 KCAL/MOL
REMARK 923 INTER-LIGAND FREE ENERGY PREDICTED BY IDOCK:   -8.95 KCAL/MOL
REMARK 924 INTRA-LIGAND FREE ENERGY PREDICTED BY IDOCK:    0.02 KCAL/MOL
REMARK 927      BINDING AFFINITY PREDICTED BY RF-SCORE:    0.00 PKD
ROOT
HETATM    1  C   UNL     1     -13.909  14.647  71.831  1.00  0.00    -0.544 C  
HETATM    2  C   UNL     1     -13.831  13.318  72.555  1.00  0.00    -0.554 C  
ENDROOT
BRANCH   2   3
HETATM    3  C   UNL     1     -13.216  12.239  71.668  1.00  0.00    -0.356 C  
BRANCH   3   4
HETATM    4  C   UNL     1     -13.782  10.858  71.979  1.00  0.00     0.021 C  
BRANCH   4   5
HETATM    5  C   UNL     1     -12.691   9.825  71.932  1.00  0.00    -0.410 C  
HETATM    6  N   UNL     1     -12.878   8.676  72.509  1.00  0.00    -0.353 NA 
HETATM    7  C   UNL     1     -11.652   7.898  72.204  1.00  0.00    -0.328 C  
HETATM    8  C   UNL     1     -10.715   8.945  71.628  1.00  0.00    -0.347 C  
HETATM    9  C   UNL     1     -11.977   6.836  71.147  1.00  0.00    -0.421 C  
HETATM   10  O   UNL     1      -9.507   8.847  71.472  1.00  0.00    -0.251 OA 
HETATM   11  N   UNL     1     -11.510  10.018  71.315  1.00  0.00    -0.356 N  
HETATM   12  C   UNL     1     -11.059   5.681  71.513  1.00  0.00    -0.235 C  
HETATM   13  C   UNL     1     -11.117   5.669  73.032  1.00  0.00    -0.327 C  
HETATM   14  C   UNL     1     -11.141   7.146  73.432  1.00  0.00    -0.164 C  
BRANCH  11  15
HETATM   15  C   UNL     1     -10.997  11.169  70.576  1.00  0.00     0.622 C  
BRANCH  15  16
HETATM   16  C   UNL     1     -10.845  10.880  69.093  1.00  0.00    -0.280 A  
HETATM   17  C   UNL     1     -11.098   9.611  68.576  1.00  0.00    -0.091 A  
HETATM   18  C   UNL     1     -10.710   9.276  67.271  1.00  0.00    -0.244 A  
HETATM   19  C   UNL     1     -10.116  10.214  66.402  1.00  0.00    -0.300 A  
HETATM   20  C   UNL     1     -10.079  11.535  66.868  1.00  0.00    -0.241 A  
HETATM   21  C   UNL     1     -10.381  11.858  68.204  1.00  0.00    -0.210 A  
BRANCH  19  22
HETATM   22  C   UNL     1      -9.515   9.774  65.097  1.00  0.00    -0.338 A  
HETATM   23  C   UNL     1      -8.589   8.698  65.106  1.00  0.00    -0.200 A  
HETATM   24  C   UNL     1      -7.884   8.289  63.968  1.00  0.00    -0.146 A  
HETATM   25  C   UNL     1      -8.109   8.914  62.756  1.00  0.00    -0.169 A  
HETATM   26  C   UNL     1      -9.038   9.947  62.689  1.00  0.00    -0.304 A  
HETATM   27  C   UNL     1      -9.735  10.404  63.838  1.00  0.00    -0.367 A  
BRANCH  27  28
HETATM   28  C   UNL     1     -10.615  11.550  63.615  1.00  0.00    -0.429 A  
HETATM   29  N   UNL     1     -10.166  12.814  63.457  1.00  0.00    -0.286 NA 
HETATM   30  N   UNL     1     -11.329  13.465  63.323  1.00  0.00    -0.387 NA 
HETATM   31  H   UNL     1     -11.369  14.474  63.178  1.00  0.00     0.000 HD 
HETATM   32  N   UNL     1     -12.433  12.716  63.391  1.00  0.00    -0.713 NA 
HETATM   33  N   UNL     1     -11.988  11.488  63.614  1.00  0.00    -0.242 NA 
ENDBRANCH  27  28
ENDBRANCH  19  22
ENDBRANCH  15  16
ENDBRANCH  11  15
ENDBRANCH   4   5
ENDBRANCH   3   4
ENDBRANCH   2   3
TORSDOF 7
ENDMDL
MODEL      142
REMARK 921   NORMALIZED FREE ENERGY PREDICTED BY IDOCK:   -4.94 KCAL/MOL
REMARK 922        TOTAL FREE ENERGY PREDICTED BY IDOCK:   -8.91 KCAL/MOL
REMARK 923 INTER-LIGAND FREE ENERGY PREDICTED BY IDOCK:   -7.41 KCAL/MOL
REMARK 924 INTRA-LIGAND FREE ENERGY PREDICTED BY IDOCK:   -1.50 KCAL/MOL
REMARK 927      BINDING AFFINITY PREDICTED BY RF-SCORE:    0.00 PKD
ROOT
HETATM    1  C   UNL     1     -12.085  14.968  64.347  1.00  0.00    -0.373 C  
HETATM    2  C   UNL     1     -12.761  14.003  65.300  1.00  0.00    -0.468 C  
ENDROOT
BRANCH   2   3
HETATM    3  C   UNL     1     -12.369  12.560  64.998  1.00  0.00    -0.522 C  
BRANCH   3   4
HETATM    4  C   UNL     1     -11.629  11.916  66.165  1.00  0.00    -0.299 C  
BRANCH   4   5
HETATM    5  C   UNL     1     -10.364  11.263  65.683  1.00  0.00    -0.256 C  
HETATM    6  N   UNL     1     -10.367  10.631  64.549  1.00  0.00    -0.339 NA 
HETATM    7  C   UNL     1      -8.964  10.189  64.360  1.00  0.00    -0.233 C  
HETATM    8  C   UNL     1      -8.333  10.457  65.716  1.00  0.00    -0.158 C  
HETATM    9  C   UNL     1      -8.299  11.055  63.284  1.00  0.00     0.133 C  
HETATM   10  O   UNL     1      -7.271  10.021  66.135  1.00  0.00    -0.099 OA 
HETATM   11  N   UNL     1      -9.203  11.296  66.366  1.00  0.00    -0.186 N  
HETATM   12  C   UNL     1      -7.329  10.100  62.610  1.00  0.00    -0.143 C  
HETATM   13  C   UNL     1      -8.120   8.805  62.540  1.00  0.00    -0.162 C  
HETATM   14  C   UNL     1      -8.888   8.746  63.862  1.00  0.00     0.127 C  
BRANCH  11  15
HETATM   15  C   UNL     1      -8.865  11.919  67.643  1.00  0.00    -0.169 C  
BRANCH  15  16
HETATM   16  C   UNL     1      -9.217  11.036  68.827  1.00  0.00    -0.167 A  
HETATM   17  C   UNL     1      -8.225  10.394  69.567  1.00  0.00    -0.137 A  
HETATM   18  C   UNL     1      -8.553   9.383  70.482  1.00  0.00    -0.265 A  
HETATM   19  C   UNL     1      -9.887   9.017  70.747  1.00  0.00    -0.304 A  
HETATM   20  C   UNL     1     -10.869   9.828  70.159  1.00  0.00    -0.340 A  
HETATM   21  C   UNL     1     -10.549  10.780  69.174  1.00  0.00    -0.254 A  
BRANCH  19  22
HETATM   22  C   UNL     1     -10.197   7.791  71.560  1.00  0.00    -0.216 A  
HETATM   23  C   UNL     1     -10.343   7.930  72.965  1.00  0.00    -0.401 A  
HETATM   24  C   UNL     1     -10.514   6.838  73.825  1.00  0.00    -0.383 A  
HETATM   25  C   UNL     1     -10.591   5.558  73.308  1.00  0.00    -0.285 A  
HETATM   26  C   UNL     1     -10.495   5.377  71.933  1.00  0.00    -0.283 A  
HETATM   27  C   UNL     1     -10.282   6.465  71.046  1.00  0.00    -0.227 A  
BRANCH  27  28
HETATM   28  C   UNL     1     -10.122   6.098  69.640  1.00  0.00    -0.179 A  
HETATM   29  N   UNL     1      -8.991   5.562  69.135  1.00  0.00    -0.108 NA 
HETATM   30  N   UNL     1      -9.337   5.446  67.845  1.00  0.00    -0.110 NA 
HETATM   31  H   UNL     1      -8.700   5.061  67.148  1.00  0.00     0.000 HD 
HETATM   32  N   UNL     1     -10.563   5.866  67.527  1.00  0.00    -0.251 NA 
HETATM   33  N   UNL     1     -11.066   6.320  68.666  1.00  0.00    -0.353 NA 
ENDBRANCH  27  28
ENDBRANCH  19  22
ENDBRANCH  15  16
ENDBRANCH  11  15
ENDBRANCH   4   5
ENDBRANCH   3   4
ENDBRANCH   2   3
TORSDOF 7
ENDMDL
MODEL      143
REMARK 921   NORMALIZED FREE ENERGY PREDICTED BY IDOCK:   -4.91 KCAL/MOL
REMARK 922        TOTAL FREE ENERGY PREDICTED BY IDOCK:   -8.86 KCAL/MOL
REMARK 923 INTER-LIGAND FREE ENERGY PREDICTED BY IDOCK:   -7.99 KCAL/MOL
REMARK 924 INTRA-LIGAND FREE ENERGY PREDICTED BY IDOCK:   -0.88 KCAL/MOL
REMARK 927      BINDING AFFINITY PREDICTED BY RF-SCORE:    0.00 PKD
ROOT
HETATM    1  C   UNL     1     -12.326  12.799  64.182  1.00  0.00    -0.485 C  
HETATM    2  C   UNL     1     -12.435  12.890  65.691  1.00  0.00    -0.400 C  
ENDROOT
BRANCH   2   3
HETATM    3  C   UNL     1     -11.356  12.057  66.376  1.00  0.00    -0.411 C  
BRANCH   3   4
HETATM    4  C   UNL     1     -11.260  12.368  67.866  1.00  0.00    -0.316 C  
BRANCH   4   5
HETATM    5  C   UNL     1     -10.512  11.276  68.578  1.00  0.00    -0.197 C  
HETATM    6  N   UNL     1     -11.139  10.531  69.438  1.00  0.00    -0.240 NA 
HETATM    7  C   UNL     1     -10.132   9.535  69.879  1.00  0.00    -0.232 C  
HETATM    8  C   UNL     1      -8.834  10.086  69.315  1.00  0.00    -0.178 C  
HETATM    9  C   UNL     1     -10.453   8.176  69.247  1.00  0.00    -0.221 C  
HETATM   10  O   UNL     1      -7.698   9.763  69.629  1.00  0.00    -0.103 OA 
HETATM   11  N   UNL     1      -9.206  11.015  68.376  1.00  0.00    -0.168 N  
HETATM   12  C   UNL     1     -10.002   7.180  70.303  1.00  0.00    -0.191 C  
HETATM   13  C   UNL     1     -10.442   7.838  71.600  1.00  0.00    -0.241 C  
HETATM   14  C   UNL     1     -10.168   9.329  71.393  1.00  0.00    -0.371 C  
BRANCH  11  15
HETATM   15  C   UNL     1      -8.233  11.647  67.488  1.00  0.00    -0.148 C  
BRANCH  15  16
HETATM   16  C   UNL     1      -7.711  12.959  68.045  1.00  0.00    -0.143 A  
HETATM   17  C   UNL     1      -8.405  13.647  69.039  1.00  0.00     0.271 A  
HETATM   18  C   UNL     1      -8.071  14.970  69.364  1.00  0.00    -0.155 A  
HETATM   19  C   UNL     1      -6.987  15.638  68.761  1.00  0.00    -0.121 A  
HETATM   20  C   UNL     1      -6.173  14.853  67.933  1.00  0.00    -0.175 A  
HETATM   21  C   UNL     1      -6.554  13.558  67.534  1.00  0.00    -0.130 A  
BRANCH  19  22
HETATM   22  C   UNL     1      -6.789  17.114  68.965  1.00  0.00    -0.231 A  
HETATM   23  C   UNL     1      -5.752  17.544  69.833  1.00  0.00    -0.250 A  
HETATM   24  C   UNL     1      -5.560  18.886  70.184  1.00  0.00    -0.254 A  
HETATM   25  C   UNL     1      -6.373  19.864  69.643  1.00  0.00    -0.387 A  
HETATM   26  C   UNL     1      -7.377  19.495  68.754  1.00  0.00    -0.393 A  
HETATM   27  C   UNL     1      -7.615  18.137  68.415  1.00  0.00    -0.290 A  
BRANCH  27  28
HETATM   28  C   UNL     1      -8.758  17.910  67.532  1.00  0.00    -0.243 A  
HETATM   29  N   UNL     1     -10.038  17.891  67.961  1.00  0.00    -0.338 NA 
HETATM   30  N   UNL     1     -10.671  17.621  66.811  1.00  0.00    -0.203 NA 
HETATM   31  H   UNL     1     -11.686  17.536  66.761  1.00  0.00     0.000 HD 
HETATM   32  N   UNL     1      -9.895  17.471  65.735  1.00  0.00    -0.551 NA 
HETATM   33  N   UNL     1      -8.660  17.619  66.192  1.00  0.00    -0.491 NA 
ENDBRANCH  27  28
ENDBRANCH  19  22
ENDBRANCH  15  16
ENDBRANCH  11  15
ENDBRANCH   4   5
ENDBRANCH   3   4
ENDBRANCH   2   3
TORSDOF 7
ENDMDL
MODEL      144
REMARK 921   NORMALIZED FREE ENERGY PREDICTED BY IDOCK:   -4.90 KCAL/MOL
REMARK 922        TOTAL FREE ENERGY PREDICTED BY IDOCK:   -8.86 KCAL/MOL
REMARK 923 INTER-LIGAND FREE ENERGY PREDICTED BY IDOCK:   -7.21 KCAL/MOL
REMARK 924 INTRA-LIGAND FREE ENERGY PREDICTED BY IDOCK:   -1.65 KCAL/MOL
REMARK 927      BINDING AFFINITY PREDICTED BY RF-SCORE:    0.00 PKD
ROOT
HETATM    1  C   UNL     1     -12.182  12.344  64.720  1.00  0.00    -0.493 C  
HETATM    2  C   UNL     1     -10.849  11.802  65.195  1.00  0.00    -0.351 C  
ENDROOT
BRANCH   2   3
HETATM    3  C   UNL     1     -10.928  11.325  66.642  1.00  0.00    -0.326 C  
BRANCH   3   4
HETATM    4  C   UNL     1     -10.266   9.964  66.828  1.00  0.00    -0.301 C  
BRANCH   4   5
HETATM    5  C   UNL     1     -10.178   9.623  68.290  1.00  0.00    -0.186 C  
HETATM    6  N   UNL     1     -11.271   9.446  68.969  1.00  0.00     0.023 NA 
HETATM    7  C   UNL     1     -10.813   9.060  70.325  1.00  0.00    -0.238 C  
HETATM    8  C   UNL     1      -9.323   9.352  70.282  1.00  0.00    -0.252 C  
HETATM    9  C   UNL     1     -11.055   7.560  70.533  1.00  0.00    -0.275 C  
HETATM   10  O   UNL     1      -8.562   9.444  71.233  1.00  0.00    -0.299 OA 
HETATM   11  N   UNL     1      -9.013   9.485  68.952  1.00  0.00    -0.138 N  
HETATM   12  C   UNL     1     -11.366   7.455  72.018  1.00  0.00    -0.301 C  
HETATM   13  C   UNL     1     -12.231   8.678  72.271  1.00  0.00    -0.447 C  
HETATM   14  C   UNL     1     -11.604   9.781  71.415  1.00  0.00    -0.452 C  
BRANCH  11  15
HETATM   15  C   UNL     1      -7.633   9.604  68.489  1.00  0.00    -0.080 C  
BRANCH  15  16
HETATM   16  C   UNL     1      -7.172  11.049  68.417  1.00  0.00    -0.085 A  
HETATM   17  C   UNL     1      -6.633  11.690  69.532  1.00  0.00    -0.111 A  
HETATM   18  C   UNL     1      -6.454  13.081  69.544  1.00  0.00    -0.075 A  
HETATM   19  C   UNL     1      -6.740  13.882  68.420  1.00  0.00    -0.099 A  
HETATM   20  C   UNL     1      -7.065  13.189  67.246  1.00  0.00    -0.033 A  
HETATM   21  C   UNL     1      -7.334  11.808  67.252  1.00  0.00    -0.141 A  
BRANCH  19  22
HETATM   22  C   UNL     1      -6.748  15.381  68.532  1.00  0.00    -0.113 A  
HETATM   23  C   UNL     1      -5.712  16.011  69.271  1.00  0.00    -0.119 A  
HETATM   24  C   UNL     1      -5.692  17.386  69.535  1.00  0.00    -0.217 A  
HETATM   25  C   UNL     1      -6.689  18.199  69.031  1.00  0.00    -0.259 A  
HETATM   26  C   UNL     1      -7.703  17.633  68.266  1.00  0.00    -0.253 A  
HETATM   27  C   UNL     1      -7.765  16.237  68.019  1.00  0.00    -0.154 A  
BRANCH  27  28
HETATM   28  C   UNL     1      -8.937  15.792  67.267  1.00  0.00    -0.196 A  
HETATM   29  N   UNL     1      -9.100  16.009  65.944  1.00  0.00    -0.365 NA 
HETATM   30  N   UNL     1     -10.306  15.455  65.757  1.00  0.00    -0.333 NA 
HETATM   31  H   UNL     1     -10.754  15.435  64.842  1.00  0.00     0.000 HD 
HETATM   32  N   UNL     1     -10.885  14.932  66.840  1.00  0.00    -0.313 NA 
HETATM   33  N   UNL     1     -10.031  15.172  67.825  1.00  0.00    -0.224 NA 
ENDBRANCH  27  28
ENDBRANCH  19  22
ENDBRANCH  15  16
ENDBRANCH  11  15
ENDBRANCH   4   5
ENDBRANCH   3   4
ENDBRANCH   2   3
TORSDOF 7
ENDMDL
MODEL      145
REMARK 921   NORMALIZED FREE ENERGY PREDICTED BY IDOCK:   -4.90 KCAL/MOL
REMARK 922        TOTAL FREE ENERGY PREDICTED BY IDOCK:   -8.85 KCAL/MOL
REMARK 923 INTER-LIGAND FREE ENERGY PREDICTED BY IDOCK:   -6.99 KCAL/MOL
REMARK 924 INTRA-LIGAND FREE ENERGY PREDICTED BY IDOCK:   -1.86 KCAL/MOL
REMARK 927      BINDING AFFINITY PREDICTED BY RF-SCORE:    0.00 PKD
ROOT
HETATM    1  C   UNL     1      -7.487   8.266  73.132  1.00  0.00    -0.155 C  
HETATM    2  C   UNL     1      -8.085   7.743  74.422  1.00  0.00    -0.276 C  
ENDROOT
BRANCH   2   3
HETATM    3  C   UNL     1      -8.454   6.267  74.304  1.00  0.00    -0.126 C  
BRANCH   3   4
HETATM    4  C   UNL     1      -9.955   6.043  74.455  1.00  0.00    -0.321 C  
BRANCH   4   5
HETATM    5  C   UNL     1     -10.692   6.659  73.299  1.00  0.00    -0.287 C  
HETATM    6  N   UNL     1     -11.258   7.818  73.451  1.00  0.00    -0.219 NA 
HETATM    7  C   UNL     1     -11.815   8.143  72.115  1.00  0.00    -0.359 C  
HETATM    8  C   UNL     1     -11.681   6.832  71.359  1.00  0.00    -0.325 C  
HETATM    9  C   UNL     1     -10.954   9.227  71.457  1.00  0.00    -0.446 C  
HETATM   10  O   UNL     1     -12.236   6.524  70.314  1.00  0.00    -0.278 OA 
HETATM   11  N   UNL     1     -10.805   6.073  72.092  1.00  0.00    -0.240 N  
HETATM   12  C   UNL     1     -11.956  10.025  70.637  1.00  0.00    -0.401 C  
HETATM   13  C   UNL     1     -13.167  10.091  71.552  1.00  0.00    -0.497 C  
HETATM   14  C   UNL     1     -13.229   8.715  72.217  1.00  0.00    -0.410 C  
BRANCH  11  15
HETATM   15  C   UNL     1     -10.287   4.800  71.597  1.00  0.00    -0.145 C  
BRANCH  15  16
HETATM   16  C   UNL     1      -9.455   4.967  70.337  1.00  0.00    -0.233 A  
HETATM   17  C   UNL     1      -8.319   5.775  70.325  1.00  0.00    -0.117 A  
HETATM   18  C   UNL     1      -7.708   6.138  69.116  1.00  0.00    -0.100 A  
HETATM   19  C   UNL     1      -8.163   5.654  67.873  1.00  0.00    -0.101 A  
HETATM   20  C   UNL     1      -9.161   4.671  67.931  1.00  0.00    -0.140 A  
HETATM   21  C   UNL     1      -9.837   4.373  69.129  1.00  0.00    -0.198 A  
BRANCH  19  22
HETATM   22  C   UNL     1      -7.633   6.227  66.589  1.00  0.00    -0.095 A  
HETATM   23  C   UNL     1      -6.577   5.546  65.928  1.00  0.00    -0.044 A  
HETATM   24  C   UNL     1      -5.933   6.056  64.794  1.00  0.00    -0.025 A  
HETATM   25  C   UNL     1      -6.350   7.253  64.244  1.00  0.00    -0.040 A  
HETATM   26  C   UNL     1      -7.409   7.937  64.833  1.00  0.00    -0.073 A  
HETATM   27  C   UNL     1      -8.050   7.458  66.006  1.00  0.00    -0.124 A  
BRANCH  27  28
HETATM   28  C   UNL     1      -9.090   8.333  66.545  1.00  0.00    -0.178 A  
HETATM   29  N   UNL     1     -10.359   7.931  66.768  1.00  0.00    -0.316 NA 
HETATM   30  N   UNL     1     -10.897   9.075  67.214  1.00  0.00    -0.392 NA 
HETATM   31  H   UNL     1     -11.876   9.139  67.491  1.00  0.00     0.000 HD 
HETATM   32  N   UNL     1     -10.075  10.125  67.276  1.00  0.00    -0.195 NA 
HETATM   33  N   UNL     1      -8.918   9.670  66.815  1.00  0.00    -0.137 NA 
ENDBRANCH  27  28
ENDBRANCH  19  22
ENDBRANCH  15  16
ENDBRANCH  11  15
ENDBRANCH   4   5
ENDBRANCH   3   4
ENDBRANCH   2   3
TORSDOF 7
ENDMDL
MODEL      146
REMARK 921   NORMALIZED FREE ENERGY PREDICTED BY IDOCK:   -4.90 KCAL/MOL
REMARK 922        TOTAL FREE ENERGY PREDICTED BY IDOCK:   -8.85 KCAL/MOL
REMARK 923 INTER-LIGAND FREE ENERGY PREDICTED BY IDOCK:   -6.89 KCAL/MOL
REMARK 924 INTRA-LIGAND FREE ENERGY PREDICTED BY IDOCK:   -1.96 KCAL/MOL
REMARK 927      BINDING AFFINITY PREDICTED BY RF-SCORE:    0.00 PKD
ROOT
HETATM    1  C   UNL     1      -9.906  10.953  63.176  1.00  0.00    -0.392 C  
HETATM    2  C   UNL     1      -8.489  10.470  63.410  1.00  0.00    -0.148 C  
ENDROOT
BRANCH   2   3
HETATM    3  C   UNL     1      -8.390   8.954  63.274  1.00  0.00    -0.180 C  
BRANCH   3   4
HETATM    4  C   UNL     1      -7.204   8.390  64.049  1.00  0.00    -0.093 C  
BRANCH   4   5
HETATM    5  C   UNL     1      -7.669   7.357  65.036  1.00  0.00    -0.114 C  
HETATM    6  N   UNL     1      -8.189   6.249  64.599  1.00  0.00    -0.114 NA 
HETATM    7  C   UNL     1      -8.459   5.453  65.821  1.00  0.00    -0.131 C  
HETATM    8  C   UNL     1      -8.253   6.459  66.940  1.00  0.00    -0.110 C  
HETATM    9  C   UNL     1      -7.429   4.322  65.927  1.00  0.00    -0.081 C  
HETATM   10  O   UNL     1      -8.611   6.352  68.104  1.00  0.00    -0.118 OA 
HETATM   11  N   UNL     1      -7.578   7.509  66.371  1.00  0.00    -0.087 N  
HETATM   12  C   UNL     1      -8.207   3.195  66.585  1.00  0.00    -0.089 C  
HETATM   13  C   UNL     1      -9.567   3.284  65.913  1.00  0.00    -0.025 C  
HETATM   14  C   UNL     1      -9.832   4.784  65.768  1.00  0.00    -0.214 C  
BRANCH  11  15
HETATM   15  C   UNL     1      -7.044   8.608  67.171  1.00  0.00    -0.075 C  
BRANCH  15  16
HETATM   16  C   UNL     1      -7.909   9.854  67.088  1.00  0.00    -0.099 A  
HETATM   17  C   UNL     1      -7.392  11.060  66.617  1.00  0.00    -0.143 A  
HETATM   18  C   UNL     1      -8.100  12.259  66.785  1.00  0.00    -0.025 A  
HETATM   19  C   UNL     1      -9.383  12.296  67.366  1.00  0.00    -0.183 A  
HETATM   20  C   UNL     1      -9.970  11.049  67.624  1.00  0.00    -0.196 A  
HETATM   21  C   UNL     1      -9.233   9.854  67.544  1.00  0.00    -0.148 A  
BRANCH  19  22
HETATM   22  C   UNL     1     -10.020  13.607  67.731  1.00  0.00    -0.235 A  
HETATM   23  C   UNL     1      -9.547  14.294  68.879  1.00  0.00    -0.086 A  
HETATM   24  C   UNL     1     -10.148  15.458  69.373  1.00  0.00    -0.269 A  
HETATM   25  C   UNL     1     -11.226  16.013  68.709  1.00  0.00    -0.360 A  
HETATM   26  C   UNL     1     -11.699  15.398  67.554  1.00  0.00    -0.076 A  
HETATM   27  C   UNL     1     -11.130  14.195  67.059  1.00  0.00    -0.314 A  
BRANCH  27  28
HETATM   28  C   UNL     1     -11.794  13.634  65.883  1.00  0.00    -0.378 A  
HETATM   29  N   UNL     1     -12.485  12.474  65.901  1.00  0.00    -0.517 NA 
HETATM   30  N   UNL     1     -12.850  12.394  64.614  1.00  0.00    -0.774 NA 
HETATM   31  H   UNL     1     -13.408  11.618  64.259  1.00  0.00     0.000 HD 
HETATM   32  N   UNL     1     -12.442  13.391  63.825  1.00  0.00    -0.721 NA 
HETATM   33  N   UNL     1     -11.732  14.177  64.621  1.00  0.00    -0.396 NA 
ENDBRANCH  27  28
ENDBRANCH  19  22
ENDBRANCH  15  16
ENDBRANCH  11  15
ENDBRANCH   4   5
ENDBRANCH   3   4
ENDBRANCH   2   3
TORSDOF 7
ENDMDL
MODEL      147
REMARK 921   NORMALIZED FREE ENERGY PREDICTED BY IDOCK:   -4.88 KCAL/MOL
REMARK 922        TOTAL FREE ENERGY PREDICTED BY IDOCK:   -8.83 KCAL/MOL
REMARK 923 INTER-LIGAND FREE ENERGY PREDICTED BY IDOCK:   -7.81 KCAL/MOL
REMARK 924 INTRA-LIGAND FREE ENERGY PREDICTED BY IDOCK:   -1.02 KCAL/MOL
REMARK 927      BINDING AFFINITY PREDICTED BY RF-SCORE:    0.00 PKD
ROOT
HETATM    1  C   UNL     1      -8.996   5.761  65.478  1.00  0.00    -0.088 C  
HETATM    2  C   UNL     1      -8.405   6.946  66.213  1.00  0.00    -0.126 C  
ENDROOT
BRANCH   2   3
HETATM    3  C   UNL     1      -9.319   8.165  66.127  1.00  0.00    -0.232 C  
BRANCH   3   4
HETATM    4  C   UNL     1      -8.908   9.105  64.999  1.00  0.00    -0.230 C  
BRANCH   4   5
HETATM    5  C   UNL     1      -9.438  10.488  65.254  1.00  0.00    -0.229 C  
HETATM    6  N   UNL     1     -10.481  10.900  64.598  1.00  0.00    -0.337 NA 
HETATM    7  C   UNL     1     -10.761  12.250  65.146  1.00  0.00    -0.293 C  
HETATM    8  C   UNL     1      -9.522  12.549  65.972  1.00  0.00    -0.152 C  
HETATM    9  C   UNL     1     -11.999  12.183  66.048  1.00  0.00    -0.236 C  
HETATM   10  O   UNL     1      -9.168  13.637  66.402  1.00  0.00    -0.222 OA 
HETATM   11  N   UNL     1      -8.891  11.343  66.139  1.00  0.00    -0.195 N  
HETATM   12  C   UNL     1     -12.651  13.542  65.856  1.00  0.00    -0.454 C  
HETATM   13  C   UNL     1     -12.478  13.794  64.367  1.00  0.00    -0.317 C  
HETATM   14  C   UNL     1     -11.085  13.252  64.039  1.00  0.00    -0.342 C  
BRANCH  11  15
HETATM   15  C   UNL     1      -7.742  11.189  67.028  1.00  0.00    -0.139 C  
BRANCH  15  16
HETATM   16  C   UNL     1      -8.147  10.726  68.416  1.00  0.00    -0.127 A  
HETATM   17  C   UNL     1      -7.197  10.271  69.330  1.00  0.00    -0.093 A  
HETATM   18  C   UNL     1      -7.587   9.603  70.500  1.00  0.00    -0.151 A  
HETATM   19  C   UNL     1      -8.942   9.423  70.842  1.00  0.00    -0.198 A  
HETATM   20  C   UNL     1      -9.870  10.084  70.024  1.00  0.00    -0.247 A  
HETATM   21  C   UNL     1      -9.491  10.674  68.804  1.00  0.00    -0.186 A  
BRANCH  19  22
HETATM   22  C   UNL     1      -9.330   8.520  71.979  1.00  0.00    -0.353 A  
HETATM   23  C   UNL     1      -8.310   7.787  72.640  1.00  0.00    -0.177 A  
HETATM   24  C   UNL     1      -8.577   6.832  73.629  1.00  0.00    -0.149 A  
HETATM   25  C   UNL     1      -9.879   6.601  74.032  1.00  0.00    -0.316 A  
HETATM   26  C   UNL     1     -10.909   7.325  73.442  1.00  0.00    -0.370 A  
HETATM   27  C   UNL     1     -10.665   8.270  72.410  1.00  0.00    -0.411 A  
BRANCH  27  28
HETATM   28  C   UNL     1     -11.861   8.887  71.839  1.00  0.00    -0.370 A  
HETATM   29  N   UNL     1     -12.680   8.259  70.968  1.00  0.00    -0.100 NA 
HETATM   30  N   UNL     1     -13.571   9.232  70.734  1.00  0.00    -0.509 NA 
HETATM   31  H   UNL     1     -14.360   9.100  70.102  1.00  0.00     0.000 HD 
HETATM   32  N   UNL     1     -13.364  10.384  71.376  1.00  0.00    -0.325 NA 
HETATM   33  N   UNL     1     -12.248  10.187  72.063  1.00  0.00    -0.132 NA 
ENDBRANCH  27  28
ENDBRANCH  19  22
ENDBRANCH  15  16
ENDBRANCH  11  15
ENDBRANCH   4   5
ENDBRANCH   3   4
ENDBRANCH   2   3
TORSDOF 7
ENDMDL
MODEL      148
REMARK 921   NORMALIZED FREE ENERGY PREDICTED BY IDOCK:   -4.88 KCAL/MOL
REMARK 922        TOTAL FREE ENERGY PREDICTED BY IDOCK:   -8.82 KCAL/MOL
REMARK 923 INTER-LIGAND FREE ENERGY PREDICTED BY IDOCK:   -7.36 KCAL/MOL
REMARK 924 INTRA-LIGAND FREE ENERGY PREDICTED BY IDOCK:   -1.46 KCAL/MOL
REMARK 927      BINDING AFFINITY PREDICTED BY RF-SCORE:    0.00 PKD
ROOT
HETATM    1  C   UNL     1      -9.852  10.473  64.237  1.00  0.00    -0.402 C  
HETATM    2  C   UNL     1      -9.148   9.347  64.968  1.00  0.00    -0.271 C  
ENDROOT
BRANCH   2   3
HETATM    3  C   UNL     1      -9.881   8.977  66.254  1.00  0.00    -0.361 C  
BRANCH   3   4
HETATM    4  C   UNL     1      -9.239   7.782  66.950  1.00  0.00    -0.187 C  
BRANCH   4   5
HETATM    5  C   UNL     1      -9.481   7.850  68.432  1.00  0.00    -0.148 C  
HETATM    6  N   UNL     1     -10.618   7.444  68.910  1.00  0.00    -0.201 NA 
HETATM    7  C   UNL     1     -10.481   7.583  70.380  1.00  0.00    -0.223 C  
HETATM    8  C   UNL     1      -9.202   8.389  70.531  1.00  0.00    -0.151 C  
HETATM    9  C   UNL     1     -10.310   6.195  71.007  1.00  0.00    -0.260 C  
HETATM   10  O   UNL     1      -8.814   8.977  71.530  1.00  0.00    -0.289 OA 
HETATM   11  N   UNL     1      -8.574   8.313  69.313  1.00  0.00    -0.136 N  
HETATM   12  C   UNL     1     -10.993   6.331  72.359  1.00  0.00    -0.291 C  
HETATM   13  C   UNL     1     -12.219   7.168  72.037  1.00  0.00    -0.314 C  
HETATM   14  C   UNL     1     -11.732   8.192  71.009  1.00  0.00    -0.295 C  
BRANCH  11  15
HETATM   15  C   UNL     1      -7.221   8.825  69.110  1.00  0.00    -0.067 C  
BRANCH  15  16
HETATM   16  C   UNL     1      -7.217  10.259  68.609  1.00  0.00    -0.081 A  
HETATM   17  C   UNL     1      -7.327  11.331  69.493  1.00  0.00     0.027 A  
HETATM   18  C   UNL     1      -7.587  12.626  69.022  1.00  0.00     0.146 A  
HETATM   19  C   UNL     1      -7.678  12.919  67.647  1.00  0.00    -0.162 A  
HETATM   20  C   UNL     1      -7.341  11.871  66.778  1.00  0.00    -0.011 A  
HETATM   21  C   UNL     1      -7.171  10.553  67.241  1.00  0.00    -0.090 A  
BRANCH  19  22
HETATM   22  C   UNL     1      -8.170  14.260  67.180  1.00  0.00    -0.184 A  
HETATM   23  C   UNL     1      -7.293  15.372  67.271  1.00  0.00    -0.239 A  
HETATM   24  C   UNL     1      -7.691  16.682  66.976  1.00  0.00    -0.235 A  
HETATM   25  C   UNL     1      -8.977  16.930  66.534  1.00  0.00    -0.303 A  
HETATM   26  C   UNL     1      -9.860  15.865  66.390  1.00  0.00    -0.302 A  
HETATM   27  C   UNL     1      -9.490  14.535  66.721  1.00  0.00    -0.284 A  
BRANCH  27  28
HETATM   28  C   UNL     1     -10.558  13.545  66.590  1.00  0.00    -0.280 A  
HETATM   29  N   UNL     1     -10.756  12.543  67.473  1.00  0.00    -0.222 NA 
HETATM   30  N   UNL     1     -11.797  11.922  66.901  1.00  0.00    -0.610 NA 
HETATM   31  H   UNL     1     -12.225  11.095  67.314  1.00  0.00     0.000 HD 
HETATM   32  N   UNL     1     -12.238  12.450  65.757  1.00  0.00    -0.638 NA 
HETATM   33  N   UNL     1     -11.428  13.474  65.528  1.00  0.00    -0.301 NA 
ENDBRANCH  27  28
ENDBRANCH  19  22
ENDBRANCH  15  16
ENDBRANCH  11  15
ENDBRANCH   4   5
ENDBRANCH   3   4
ENDBRANCH   2   3
TORSDOF 7
ENDMDL
MODEL      149
REMARK 921   NORMALIZED FREE ENERGY PREDICTED BY IDOCK:   -4.86 KCAL/MOL
REMARK 922        TOTAL FREE ENERGY PREDICTED BY IDOCK:   -8.79 KCAL/MOL
REMARK 923 INTER-LIGAND FREE ENERGY PREDICTED BY IDOCK:   -7.15 KCAL/MOL
REMARK 924 INTRA-LIGAND FREE ENERGY PREDICTED BY IDOCK:   -1.65 KCAL/MOL
REMARK 927      BINDING AFFINITY PREDICTED BY RF-SCORE:    0.00 PKD
ROOT
HETATM    1  C   UNL     1      -7.541   9.943  62.349  1.00  0.00    -0.126 C  
HETATM    2  C   UNL     1      -6.228   9.332  62.795  1.00  0.00    -0.094 C  
ENDROOT
BRANCH   2   3
HETATM    3  C   UNL     1      -6.346   7.820  62.957  1.00  0.00    -0.067 C  
BRANCH   3   4
HETATM    4  C   UNL     1      -7.800   7.367  63.019  1.00  0.00    -0.130 C  
BRANCH   4   5
HETATM    5  C   UNL     1      -7.945   6.206  63.962  1.00  0.00    -0.110 C  
HETATM    6  N   UNL     1      -8.384   5.070  63.508  1.00  0.00    -0.120 NA 
HETATM    7  C   UNL     1      -8.328   4.153  64.673  1.00  0.00    -0.104 C  
HETATM    8  C   UNL     1      -8.063   5.092  65.838  1.00  0.00    -0.109 C  
HETATM    9  C   UNL     1      -7.156   3.181  64.497  1.00  0.00    -0.057 C  
HETATM   10  O   UNL     1      -8.193   4.846  67.028  1.00  0.00    -0.107 OA 
HETATM   11  N   UNL     1      -7.642   6.269  65.272  1.00  0.00    -0.085 N  
HETATM   12  C   UNL     1      -7.652   1.905  65.159  1.00  0.00    -0.067 C  
HETATM   13  C   UNL     1      -9.109   1.845  64.730  1.00  0.00    -0.129 C  
HETATM   14  C   UNL     1      -9.589   3.297  64.779  1.00  0.00    -0.149 C  
BRANCH  11  15
HETATM   15  C   UNL     1      -7.125   7.371  66.079  1.00  0.00    -0.066 C  
BRANCH  15  16
HETATM   16  C   UNL     1      -8.085   8.547  66.131  1.00  0.00    -0.105 A  
HETATM   17  C   UNL     1      -9.458   8.350  66.266  1.00  0.00    -0.292 A  
HETATM   18  C   UNL     1     -10.359   9.403  66.051  1.00  0.00    -0.081 A  
HETATM   19  C   UNL     1      -9.925  10.712  65.761  1.00  0.00    -0.315 A  
HETATM   20  C   UNL     1      -8.543  10.929  65.853  1.00  0.00    -0.179 A  
HETATM   21  C   UNL     1      -7.634   9.863  65.976  1.00  0.00    -0.106 A  
BRANCH  19  22
HETATM   22  C   UNL     1     -10.906  11.764  65.322  1.00  0.00    -0.343 A  
HETATM   23  C   UNL     1     -11.038  12.029  63.934  1.00  0.00    -0.474 A  
HETATM   24  C   UNL     1     -11.832  13.065  63.428  1.00  0.00    -0.543 A  
HETATM   25  C   UNL     1     -12.565  13.857  64.292  1.00  0.00    -0.181 A  
HETATM   26  C   UNL     1     -12.500  13.609  65.659  1.00  0.00    -0.540 A  
HETATM   27  C   UNL     1     -11.671  12.589  66.196  1.00  0.00    -0.466 A  
BRANCH  27  28
HETATM   28  C   UNL     1     -11.652  12.510  67.656  1.00  0.00    -0.355 A  
HETATM   29  N   UNL     1     -11.148  13.480  68.448  1.00  0.00    -0.259 NA 
HETATM   30  N   UNL     1     -11.334  12.925  69.653  1.00  0.00    -0.474 NA 
HETATM   31  H   UNL     1     -11.062  13.400  70.514  1.00  0.00     0.000 HD 
HETATM   32  N   UNL     1     -11.896  11.714  69.662  1.00  0.00    -0.330 NA 
HETATM   33  N   UNL     1     -12.074  11.420  68.381  1.00  0.00    -0.585 NA 
ENDBRANCH  27  28
ENDBRANCH  19  22
ENDBRANCH  15  16
ENDBRANCH  11  15
ENDBRANCH   4   5
ENDBRANCH   3   4
ENDBRANCH   2   3
TORSDOF 7
ENDMDL
MODEL      150
REMARK 921   NORMALIZED FREE ENERGY PREDICTED BY IDOCK:   -4.85 KCAL/MOL
REMARK 922        TOTAL FREE ENERGY PREDICTED BY IDOCK:   -8.78 KCAL/MOL
REMARK 923 INTER-LIGAND FREE ENERGY PREDICTED BY IDOCK:   -8.20 KCAL/MOL
REMARK 924 INTRA-LIGAND FREE ENERGY PREDICTED BY IDOCK:   -0.58 KCAL/MOL
REMARK 927      BINDING AFFINITY PREDICTED BY RF-SCORE:    0.00 PKD
ROOT
HETATM    1  C   UNL     1     -12.016  13.459  66.830  1.00  0.00    -0.437 C  
HETATM    2  C   UNL     1     -11.911  14.613  67.807  1.00  0.00    -0.302 C  
ENDROOT
BRANCH   2   3
HETATM    3  C   UNL     1     -11.314  14.161  69.136  1.00  0.00    -0.318 C  
BRANCH   3   4
HETATM    4  C   UNL     1     -10.647  15.313  69.880  1.00  0.00    -0.291 C  
BRANCH   4   5
HETATM    5  C   UNL     1     -10.071  16.299  68.903  1.00  0.00    -0.251 C  
HETATM    6  N   UNL     1     -10.854  17.176  68.350  1.00  0.00    -0.349 NA 
HETATM    7  C   UNL     1      -9.954  18.014  67.520  1.00  0.00    -0.327 C  
HETATM    8  C   UNL     1      -8.650  17.233  67.531  1.00  0.00    -0.209 C  
HETATM    9  C   UNL     1      -9.763  19.376  68.197  1.00  0.00    -0.470 C  
HETATM   10  O   UNL     1      -7.696  17.381  66.782  1.00  0.00    -0.201 OA 
HETATM   11  N   UNL     1      -8.769  16.334  68.561  1.00  0.00    -0.201 N  
HETATM   12  C   UNL     1      -9.608  20.334  67.027  1.00  0.00    -0.572 C  
HETATM   13  C   UNL     1     -10.632  19.818  66.028  1.00  0.00    -0.573 C  
HETATM   14  C   UNL     1     -10.553  18.294  66.143  1.00  0.00    -0.326 C  
BRANCH  11  15
HETATM   15  C   UNL     1      -7.645  15.512  69.000  1.00  0.00    -0.180 C  
BRANCH  15  16
HETATM   16  C   UNL     1      -7.719  14.097  68.455  1.00  0.00    -0.138 A  
HETATM   17  C   UNL     1      -8.428  13.809  67.291  1.00  0.00    -0.204 A  
HETATM   18  C   UNL     1      -8.716  12.483  66.934  1.00  0.00    -0.182 A  
HETATM   19  C   UNL     1      -8.250  11.387  67.686  1.00  0.00    -0.128 A  
HETATM   20  C   UNL     1      -7.355  11.696  68.721  1.00  0.00    -0.118 A  
HETATM   21  C   UNL     1      -7.137  13.022  69.138  1.00  0.00     0.030 A  
BRANCH  19  22
HETATM   22  C   UNL     1      -8.753   9.998  67.408  1.00  0.00    -0.125 A  
HETATM   23  C   UNL     1      -8.617   9.013  68.421  1.00  0.00    -0.130 A  
HETATM   24  C   UNL     1      -8.943   7.666  68.223  1.00  0.00    -0.127 A  
HETATM   25  C   UNL     1      -9.464   7.254  67.010  1.00  0.00    -0.196 A  
HETATM   26  C   UNL     1      -9.655   8.192  66.001  1.00  0.00    -0.113 A  
HETATM   27  C   UNL     1      -9.294   9.555  66.167  1.00  0.00    -0.254 A  
BRANCH  27  28
HETATM   28  C   UNL     1      -9.483  10.394  64.985  1.00  0.00    -0.253 A  
HETATM   29  N   UNL     1      -8.468  10.817  64.202  1.00  0.00    -0.055 NA 
HETATM   30  N   UNL     1      -9.144  11.554  63.310  1.00  0.00    -0.516 NA 
HETATM   31  H   UNL     1      -8.677  12.036  62.543  1.00  0.00     0.000 HD 
HETATM   32  N   UNL     1     -10.466  11.618  63.485  1.00  0.00    -0.409 NA 
HETATM   33  N   UNL     1     -10.693  10.906  64.579  1.00  0.00    -0.278 NA 
ENDBRANCH  27  28
ENDBRANCH  19  22
ENDBRANCH  15  16
ENDBRANCH  11  15
ENDBRANCH   4   5
ENDBRANCH   3   4
ENDBRANCH   2   3
TORSDOF 7
ENDMDL
MODEL      151
REMARK 921   NORMALIZED FREE ENERGY PREDICTED BY IDOCK:   -4.85 KCAL/MOL
REMARK 922        TOTAL FREE ENERGY PREDICTED BY IDOCK:   -8.78 KCAL/MOL
REMARK 923 INTER-LIGAND FREE ENERGY PREDICTED BY IDOCK:   -8.56 KCAL/MOL
REMARK 924 INTRA-LIGAND FREE ENERGY PREDICTED BY IDOCK:   -0.22 KCAL/MOL
REMARK 927      BINDING AFFINITY PREDICTED BY RF-SCORE:    0.00 PKD
ROOT
HETATM    1  C   UNL     1     -13.311  15.918  73.217  1.00  0.00    -0.660 C  
HETATM    2  C   UNL     1     -12.120  16.080  72.293  1.00  0.00    -0.617 C  
ENDROOT
BRANCH   2   3
HETATM    3  C   UNL     1     -12.475  15.698  70.859  1.00  0.00    -0.497 C  
BRANCH   3   4
HETATM    4  C   UNL     1     -11.669  14.497  70.375  1.00  0.00    -0.354 C  
BRANCH   4   5
HETATM    5  C   UNL     1     -11.030  14.799  69.049  1.00  0.00    -0.248 C  
HETATM    6  N   UNL     1     -10.302  15.868  68.922  1.00  0.00    -0.217 NA 
HETATM    7  C   UNL     1      -9.783  15.808  67.534  1.00  0.00    -0.226 C  
HETATM    8  C   UNL     1     -10.600  14.690  66.910  1.00  0.00    -0.281 C  
HETATM    9  C   UNL     1      -8.298  15.428  67.565  1.00  0.00    -0.190 C  
HETATM   10  O   UNL     1     -10.722  14.442  65.719  1.00  0.00    -0.289 OA 
HETATM   11  N   UNL     1     -11.165  14.015  67.962  1.00  0.00    -0.268 N  
HETATM   12  C   UNL     1      -7.718  16.170  66.372  1.00  0.00    -0.129 C  
HETATM   13  C   UNL     1      -8.436  17.509  66.424  1.00  0.00    -0.287 C  
HETATM   14  C   UNL     1      -9.868  17.166  66.840  1.00  0.00    -0.285 C  
BRANCH  11  15
HETATM   15  C   UNL     1     -11.892  12.762  67.775  1.00  0.00    -0.332 C  
BRANCH  15  16
HETATM   16  C   UNL     1     -11.460  11.692  68.762  1.00  0.00    -0.346 A  
HETATM   17  C   UNL     1     -10.198  11.106  68.683  1.00  0.00    -0.216 A  
HETATM   18  C   UNL     1      -9.896   9.949  69.416  1.00  0.00    -0.231 A  
HETATM   19  C   UNL     1     -10.817   9.368  70.311  1.00  0.00    -0.303 A  
HETATM   20  C   UNL     1     -11.989  10.102  70.538  1.00  0.00    -0.400 A  
HETATM   21  C   UNL     1     -12.335  11.209  69.742  1.00  0.00    -0.315 A  
BRANCH  19  22
HETATM   22  C   UNL     1     -10.551   8.016  70.912  1.00  0.00    -0.233 A  
HETATM   23  C   UNL     1     -11.384   7.571  71.971  1.00  0.00    -0.314 A  
HETATM   24  C   UNL     1     -11.150   6.384  72.677  1.00  0.00    -0.294 A  
HETATM   25  C   UNL     1     -10.093   5.567  72.322  1.00  0.00    -0.225 A  
HETATM   26  C   UNL     1      -9.274   5.942  71.262  1.00  0.00    -0.155 A  
HETATM   27  C   UNL     1      -9.469   7.159  70.559  1.00  0.00    -0.162 A  
BRANCH  27  28
HETATM   28  C   UNL     1      -8.474   7.445  69.526  1.00  0.00    -0.133 A  
HETATM   29  N   UNL     1      -8.710   7.299  68.204  1.00  0.00    -0.128 NA 
HETATM   30  N   UNL     1      -7.513   7.644  67.709  1.00  0.00    -0.105 NA 
HETATM   31  H   UNL     1      -7.326   7.651  66.707  1.00  0.00     0.000 HD 
HETATM   32  N   UNL     1      -6.581   7.976  68.605  1.00  0.00    -0.056 NA 
HETATM   33  N   UNL     1      -7.175   7.818  69.779  1.00  0.00    -0.066 NA 
ENDBRANCH  27  28
ENDBRANCH  19  22
ENDBRANCH  15  16
ENDBRANCH  11  15
ENDBRANCH   4   5
ENDBRANCH   3   4
ENDBRANCH   2   3
TORSDOF 7
ENDMDL
MODEL      152
REMARK 921   NORMALIZED FREE ENERGY PREDICTED BY IDOCK:   -4.82 KCAL/MOL
REMARK 922        TOTAL FREE ENERGY PREDICTED BY IDOCK:   -8.74 KCAL/MOL
REMARK 923 INTER-LIGAND FREE ENERGY PREDICTED BY IDOCK:   -7.96 KCAL/MOL
REMARK 924 INTRA-LIGAND FREE ENERGY PREDICTED BY IDOCK:   -0.79 KCAL/MOL
REMARK 927      BINDING AFFINITY PREDICTED BY RF-SCORE:    0.00 PKD
ROOT
HETATM    1  C   UNL     1     -13.204  15.532  70.896  1.00  0.00    -0.474 C  
HETATM    2  C   UNL     1     -12.314  14.345  71.203  1.00  0.00    -0.428 C  
ENDROOT
BRANCH   2   3
HETATM    3  C   UNL     1     -12.012  13.537  69.944  1.00  0.00    -0.416 C  
BRANCH   3   4
HETATM    4  C   UNL     1     -11.149  14.320  68.961  1.00  0.00    -0.284 C  
BRANCH   4   5
HETATM    5  C   UNL     1     -10.954  13.532  67.696  1.00  0.00    -0.263 C  
HETATM    6  N   UNL     1     -11.858  13.591  66.765  1.00  0.00    -0.386 NA 
HETATM    7  C   UNL     1     -11.312  12.768  65.658  1.00  0.00    -0.319 C  
HETATM    8  C   UNL     1     -10.130  12.064  66.303  1.00  0.00    -0.222 C  
HETATM    9  C   UNL     1     -10.831  13.689  64.531  1.00  0.00    -0.416 C  
HETATM   10  O   UNL     1      -9.528  11.091  65.875  1.00  0.00    -0.198 OA 
HETATM   11  N   UNL     1      -9.880  12.754  67.462  1.00  0.00    -0.207 N  
HETATM   12  C   UNL     1     -11.100  12.879  63.273  1.00  0.00     0.030 C  
HETATM   13  C   UNL     1     -12.443  12.232  63.567  1.00  0.00    -0.642 C  
HETATM   14  C   UNL     1     -12.380  11.860  65.050  1.00  0.00     0.150 C  
BRANCH  11  15
HETATM   15  C   UNL     1      -8.702  12.483  68.282  1.00  0.00    -0.171 C  
BRANCH  15  16
HETATM   16  C   UNL     1      -8.885  11.263  69.168  1.00  0.00     0.125 A  
HETATM   17  C   UNL     1      -7.789  10.540  69.635  1.00  0.00    -0.097 A  
HETATM   18  C   UNL     1      -7.959   9.279  70.225  1.00  0.00    -0.155 A  
HETATM   19  C   UNL     1      -9.233   8.717  70.437  1.00  0.00    -0.204 A  
HETATM   20  C   UNL     1     -10.322   9.558  70.165  1.00  0.00    -0.300 A  
HETATM   21  C   UNL     1     -10.160  10.782  69.490  1.00  0.00    -0.117 A  
BRANCH  19  22
HETATM   22  C   UNL     1      -9.376   7.284  70.866  1.00  0.00    -0.159 A  
HETATM   23  C   UNL     1      -8.330   6.376  70.553  1.00  0.00    -0.129 A  
HETATM   24  C   UNL     1      -8.415   5.001  70.800  1.00  0.00    -0.119 A  
HETATM   25  C   UNL     1      -9.538   4.478  71.415  1.00  0.00    -0.232 A  
HETATM   26  C   UNL     1     -10.571   5.335  71.778  1.00  0.00    -0.268 A  
HETATM   27  C   UNL     1     -10.523   6.727  71.501  1.00  0.00    -0.236 A  
BRANCH  27  28
HETATM   28  C   UNL     1     -11.723   7.475  71.873  1.00  0.00    -0.284 A  
HETATM   29  N   UNL     1     -11.880   8.084  73.068  1.00  0.00    -0.200 NA 
HETATM   30  N   UNL     1     -13.117   8.579  72.923  1.00  0.00    -0.701 NA 
HETATM   31  H   UNL     1     -13.571   9.120  73.658  1.00  0.00     0.000 HD 
HETATM   32  N   UNL     1     -13.720   8.321  71.760  1.00  0.00    -0.365 NA 
HETATM   33  N   UNL     1     -12.848   7.581  71.090  1.00  0.00    -0.268 NA 
ENDBRANCH  27  28
ENDBRANCH  19  22
ENDBRANCH  15  16
ENDBRANCH  11  15
ENDBRANCH   4   5
ENDBRANCH   3   4
ENDBRANCH   2   3
TORSDOF 7
ENDMDL
MODEL      153
REMARK 921   NORMALIZED FREE ENERGY PREDICTED BY IDOCK:   -4.82 KCAL/MOL
REMARK 922        TOTAL FREE ENERGY PREDICTED BY IDOCK:   -8.74 KCAL/MOL
REMARK 923 INTER-LIGAND FREE ENERGY PREDICTED BY IDOCK:   -7.13 KCAL/MOL
REMARK 924 INTRA-LIGAND FREE ENERGY PREDICTED BY IDOCK:   -1.62 KCAL/MOL
REMARK 927      BINDING AFFINITY PREDICTED BY RF-SCORE:    0.00 PKD
ROOT
HETATM    1  C   UNL     1     -12.800  10.493  71.497  1.00  0.00    -0.568 C  
HETATM    2  C   UNL     1     -11.666   9.492  71.582  1.00  0.00    -0.460 C  
ENDROOT
BRANCH   2   3
HETATM    3  C   UNL     1     -10.924   9.380  70.253  1.00  0.00    -0.305 C  
BRANCH   3   4
HETATM    4  C   UNL     1      -9.421   9.578  70.423  1.00  0.00    -0.317 C  
BRANCH   4   5
HETATM    5  C   UNL     1      -8.690   9.087  69.205  1.00  0.00    -0.138 C  
HETATM    6  N   UNL     1      -9.175   8.088  68.532  1.00  0.00    -0.136 NA 
HETATM    7  C   UNL     1      -8.255   7.928  67.380  1.00  0.00    -0.123 C  
HETATM    8  C   UNL     1      -7.083   8.822  67.749  1.00  0.00    -0.083 C  
HETATM    9  C   UNL     1      -8.939   8.445  66.109  1.00  0.00    -0.218 C  
HETATM   10  O   UNL     1      -5.970   8.822  67.246  1.00  0.00    -0.045 OA 
HETATM   11  N   UNL     1      -7.542   9.630  68.758  1.00  0.00    -0.075 N  
HETATM   12  C   UNL     1      -8.385   7.544  65.017  1.00  0.00    -0.068 C  
HETATM   13  C   UNL     1      -8.357   6.179  65.685  1.00  0.00    -0.146 C  
HETATM   14  C   UNL     1      -7.920   6.459  67.125  1.00  0.00    -0.112 C  
BRANCH  11  15
HETATM   15  C   UNL     1      -6.754  10.750  69.268  1.00  0.00    -0.081 C  
BRANCH  15  16
HETATM   16  C   UNL     1      -7.187  12.078  68.673  1.00  0.00    -0.110 A  
HETATM   17  C   UNL     1      -6.689  13.284  69.163  1.00  0.00    -0.092 A  
HETATM   18  C   UNL     1      -7.276  14.504  68.801  1.00  0.00    -0.126 A  
HETATM   19  C   UNL     1      -8.342  14.579  67.881  1.00  0.00    -0.159 A  
HETATM   20  C   UNL     1      -8.674  13.378  67.237  1.00  0.00    -0.219 A  
HETATM   21  C   UNL     1      -8.152  12.142  67.661  1.00  0.00    -0.158 A  
BRANCH  19  22
HETATM   22  C   UNL     1      -9.091  15.866  67.680  1.00  0.00    -0.200 A  
HETATM   23  C   UNL     1      -8.544  16.837  66.802  1.00  0.00    -0.264 A  
HETATM   24  C   UNL     1      -9.098  18.113  66.636  1.00  0.00    -0.290 A  
HETATM   25  C   UNL     1     -10.254  18.456  67.312  1.00  0.00    -0.396 A  
HETATM   26  C   UNL     1     -10.849  17.522  68.153  1.00  0.00    -0.246 A  
HETATM   27  C   UNL     1     -10.283  16.237  68.366  1.00  0.00    -0.249 A  
BRANCH  27  28
HETATM   28  C   UNL     1     -10.986  15.404  69.340  1.00  0.00    -0.276 A  
HETATM   29  N   UNL     1     -10.766  15.468  70.671  1.00  0.00    -0.305 NA 
HETATM   30  N   UNL     1     -11.605  14.514  71.098  1.00  0.00    -0.507 NA 
HETATM   31  H   UNL     1     -11.704  14.285  72.086  1.00  0.00     0.000 HD 
HETATM   32  N   UNL     1     -12.303  13.880  70.152  1.00  0.00    -0.342 NA 
HETATM   33  N   UNL     1     -11.888  14.419  69.014  1.00  0.00    -0.313 NA 
ENDBRANCH  27  28
ENDBRANCH  19  22
ENDBRANCH  15  16
ENDBRANCH  11  15
ENDBRANCH   4   5
ENDBRANCH   3   4
ENDBRANCH   2   3
TORSDOF 7
ENDMDL
MODEL      154
REMARK 921   NORMALIZED FREE ENERGY PREDICTED BY IDOCK:   -4.82 KCAL/MOL
REMARK 922        TOTAL FREE ENERGY PREDICTED BY IDOCK:   -8.73 KCAL/MOL
REMARK 923 INTER-LIGAND FREE ENERGY PREDICTED BY IDOCK:   -7.60 KCAL/MOL
REMARK 924 INTRA-LIGAND FREE ENERGY PREDICTED BY IDOCK:   -1.13 KCAL/MOL
REMARK 927      BINDING AFFINITY PREDICTED BY RF-SCORE:    0.00 PKD
ROOT
HETATM    1  C   UNL     1      -6.559  10.085  70.368  1.00  0.00    -0.132 C  
HETATM    2  C   UNL     1      -5.895   8.887  71.016  1.00  0.00    -0.042 C  
ENDROOT
BRANCH   2   3
HETATM    3  C   UNL     1      -5.816   7.707  70.052  1.00  0.00    -0.023 C  
BRANCH   3   4
HETATM    4  C   UNL     1      -6.754   7.882  68.863  1.00  0.00    -0.049 C  
BRANCH   4   5
HETATM    5  C   UNL     1      -8.103   7.295  69.172  1.00  0.00    -0.121 C  
HETATM    6  N   UNL     1      -8.247   6.554  70.229  1.00  0.00    -0.124 NA 
HETATM    7  C   UNL     1      -9.691   6.217  70.259  1.00  0.00    -0.164 C  
HETATM    8  C   UNL     1     -10.179   6.674  68.895  1.00  0.00    -0.177 C  
HETATM    9  C   UNL     1     -10.377   7.025  71.367  1.00  0.00    -0.211 C  
HETATM   10  O   UNL     1     -11.231   6.374  68.350  1.00  0.00    -0.320 OA 
HETATM   11  N   UNL     1      -9.194   7.495  68.408  1.00  0.00    -0.140 N  
HETATM   12  C   UNL     1     -11.473   6.094  71.857  1.00  0.00    -0.355 C  
HETATM   13  C   UNL     1     -10.792   4.735  71.849  1.00  0.00     0.000 C  
HETATM   14  C   UNL     1      -9.920   4.744  70.593  1.00  0.00    -0.300 C  
BRANCH  11  15
HETATM   15  C   UNL     1      -9.372   8.271  67.183  1.00  0.00    -0.151 C  
BRANCH  15  16
HETATM   16  C   UNL     1      -9.841   9.688  67.461  1.00  0.00    -0.213 A  
HETATM   17  C   UNL     1      -9.021  10.602  68.121  1.00  0.00    -0.141 A  
HETATM   18  C   UNL     1      -9.540  11.810  68.608  1.00  0.00    -0.122 A  
HETATM   19  C   UNL     1     -10.880  12.189  68.397  1.00  0.00    -0.255 A  
HETATM   20  C   UNL     1     -11.619  11.360  67.542  1.00  0.00    -0.298 A  
HETATM   21  C   UNL     1     -11.135  10.105  67.127  1.00  0.00    -0.122 A  
BRANCH  19  22
HETATM   22  C   UNL     1     -11.462  13.377  69.112  1.00  0.00    -0.351 A  
HETATM   23  C   UNL     1     -11.213  14.672  68.587  1.00  0.00    -0.293 A  
HETATM   24  C   UNL     1     -11.606  15.847  69.239  1.00  0.00    -0.372 A  
HETATM   25  C   UNL     1     -12.308  15.774  70.428  1.00  0.00    -0.367 A  
HETATM   26  C   UNL     1     -12.611  14.525  70.960  1.00  0.00    -0.410 A  
HETATM   27  C   UNL     1     -12.188  13.322  70.337  1.00  0.00    -0.404 A  
BRANCH  27  28
HETATM   28  C   UNL     1     -12.516  12.098  71.065  1.00  0.00    -0.269 A  
HETATM   29  N   UNL     1     -13.395  12.054  72.089  1.00  0.00    -0.439 NA 
HETATM   30  N   UNL     1     -13.314  10.757  72.418  1.00  0.00    -0.502 NA 
HETATM   31  H   UNL     1     -13.866  10.357  73.176  1.00  0.00     0.000 HD 
HETATM   32  N   UNL     1     -12.468  10.020  71.694  1.00  0.00    -0.402 NA 
HETATM   33  N   UNL     1     -11.922  10.878  70.844  1.00  0.00    -0.329 NA 
ENDBRANCH  27  28
ENDBRANCH  19  22
ENDBRANCH  15  16
ENDBRANCH  11  15
ENDBRANCH   4   5
ENDBRANCH   3   4
ENDBRANCH   2   3
TORSDOF 7
ENDMDL
MODEL      155
REMARK 921   NORMALIZED FREE ENERGY PREDICTED BY IDOCK:   -4.80 KCAL/MOL
REMARK 922        TOTAL FREE ENERGY PREDICTED BY IDOCK:   -8.72 KCAL/MOL
REMARK 923 INTER-LIGAND FREE ENERGY PREDICTED BY IDOCK:   -8.27 KCAL/MOL
REMARK 924 INTRA-LIGAND FREE ENERGY PREDICTED BY IDOCK:   -0.44 KCAL/MOL
REMARK 927      BINDING AFFINITY PREDICTED BY RF-SCORE:    0.00 PKD
ROOT
HETATM    1  C   UNL     1      -9.219   7.606  66.418  1.00  0.00    -0.223 C  
HETATM    2  C   UNL     1      -9.654   6.156  66.361  1.00  0.00    -0.162 C  
ENDROOT
BRANCH   2   3
HETATM    3  C   UNL     1     -10.322   5.725  67.664  1.00  0.00    -0.270 C  
BRANCH   3   4
HETATM    4  C   UNL     1     -10.925   6.910  68.411  1.00  0.00    -0.198 C  
BRANCH   4   5
HETATM    5  C   UNL     1     -10.094   7.244  69.617  1.00  0.00    -0.194 C  
HETATM    6  N   UNL     1      -8.896   6.751  69.720  1.00  0.00    -0.141 NA 
HETATM    7  C   UNL     1      -8.353   7.338  70.970  1.00  0.00    -0.119 C  
HETATM    8  C   UNL     1      -9.576   7.971  71.611  1.00  0.00    -0.167 C  
HETATM    9  C   UNL     1      -7.320   8.414  70.617  1.00  0.00    -0.056 C  
HETATM   10  O   UNL     1      -9.691   8.345  72.769  1.00  0.00    -0.273 OA 
HETATM   11  N   UNL     1     -10.519   8.039  70.617  1.00  0.00    -0.207 N  
HETATM   12  C   UNL     1      -6.314   8.324  71.753  1.00  0.00    -0.052 C  
HETATM   13  C   UNL     1      -6.197   6.827  71.985  1.00  0.00    -0.038 C  
HETATM   14  C   UNL     1      -7.621   6.294  71.812  1.00  0.00    -0.096 C  
BRANCH  11  15
HETATM   15  C   UNL     1     -11.783   8.747  70.801  1.00  0.00    -0.219 C  
BRANCH  15  16
HETATM   16  C   UNL     1     -11.760  10.136  70.186  1.00  0.00    -0.330 A  
HETATM   17  C   UNL     1     -11.077  10.386  68.998  1.00  0.00    -0.297 A  
HETATM   18  C   UNL     1     -10.834  11.701  68.572  1.00  0.00    -0.257 A  
HETATM   19  C   UNL     1     -11.322  12.818  69.278  1.00  0.00    -0.307 A  
HETATM   20  C   UNL     1     -12.192  12.535  70.340  1.00  0.00    -0.368 A  
HETATM   21  C   UNL     1     -12.364  11.225  70.825  1.00  0.00    -0.495 A  
BRANCH  19  22
HETATM   22  C   UNL     1     -10.865  14.206  68.924  1.00  0.00    -0.276 A  
HETATM   23  C   UNL     1     -10.008  14.372  67.805  1.00  0.00    -0.226 A  
HETATM   24  C   UNL     1      -9.431  15.601  67.462  1.00  0.00    -0.214 A  
HETATM   25  C   UNL     1      -9.724  16.730  68.202  1.00  0.00    -0.247 A  
HETATM   26  C   UNL     1     -10.591  16.625  69.284  1.00  0.00    -0.343 A  
HETATM   27  C   UNL     1     -11.156  15.382  69.674  1.00  0.00    -0.280 A  
BRANCH  27  28
HETATM   28  C   UNL     1     -11.982  15.427  70.879  1.00  0.00    -0.359 A  
HETATM   29  N   UNL     1     -13.305  15.696  70.866  1.00  0.00    -0.545 NA 
HETATM   30  N   UNL     1     -13.571  15.651  72.179  1.00  0.00    -0.479 NA 
HETATM   31  H   UNL     1     -14.509  15.810  72.545  1.00  0.00     0.000 HD 
HETATM   32  N   UNL     1     -12.535  15.387  72.979  1.00  0.00    -0.387 NA 
HETATM   33  N   UNL     1     -11.500  15.276  72.158  1.00  0.00    -0.448 NA 
ENDBRANCH  27  28
ENDBRANCH  19  22
ENDBRANCH  15  16
ENDBRANCH  11  15
ENDBRANCH   4   5
ENDBRANCH   3   4
ENDBRANCH   2   3
TORSDOF 7
ENDMDL
MODEL      156
REMARK 921   NORMALIZED FREE ENERGY PREDICTED BY IDOCK:   -4.80 KCAL/MOL
REMARK 922        TOTAL FREE ENERGY PREDICTED BY IDOCK:   -8.71 KCAL/MOL
REMARK 923 INTER-LIGAND FREE ENERGY PREDICTED BY IDOCK:   -7.48 KCAL/MOL
REMARK 924 INTRA-LIGAND FREE ENERGY PREDICTED BY IDOCK:   -1.23 KCAL/MOL
REMARK 927      BINDING AFFINITY PREDICTED BY RF-SCORE:    0.00 PKD
ROOT
HETATM    1  C   UNL     1     -12.404  12.016  63.430  1.00  0.00    -0.635 C  
HETATM    2  C   UNL     1     -11.723  13.347  63.679  1.00  0.00    -0.376 C  
ENDROOT
BRANCH   2   3
HETATM    3  C   UNL     1     -12.539  14.217  64.630  1.00  0.00    -0.277 C  
BRANCH   3   4
HETATM    4  C   UNL     1     -12.450  13.724  66.070  1.00  0.00    -0.491 C  
BRANCH   4   5
HETATM    5  C   UNL     1     -11.039  13.840  66.574  1.00  0.00    -0.306 C  
HETATM    6  N   UNL     1     -10.561  15.013  66.862  1.00  0.00    -0.291 NA 
HETATM    7  C   UNL     1      -9.200  14.746  67.388  1.00  0.00    -0.196 C  
HETATM    8  C   UNL     1      -8.980  13.282  67.047  1.00  0.00    -0.228 C  
HETATM    9  C   UNL     1      -9.198  14.944  68.908  1.00  0.00    -0.192 C  
HETATM   10  O   UNL     1      -7.918  12.678  67.043  1.00  0.00    -0.147 OA 
HETATM   11  N   UNL     1     -10.224  12.783  66.752  1.00  0.00    -0.236 N  
HETATM   12  C   UNL     1      -7.800  15.470  69.194  1.00  0.00    -0.215 C  
HETATM   13  C   UNL     1      -7.551  16.420  68.035  1.00  0.00    -0.158 C  
HETATM   14  C   UNL     1      -8.174  15.726  66.822  1.00  0.00    -0.302 C  
BRANCH  11  15
HETATM   15  C   UNL     1     -10.451  11.356  66.538  1.00  0.00    -0.249 C  
BRANCH  15  16
HETATM   16  C   UNL     1     -10.011  10.518  67.726  1.00  0.00    -0.198 A  
HETATM   17  C   UNL     1     -10.416  10.836  69.021  1.00  0.00    -0.239 A  
HETATM   18  C   UNL     1      -9.808  10.234  70.132  1.00  0.00     0.011 A  
HETATM   19  C   UNL     1      -8.820   9.238  69.997  1.00  0.00    -0.212 A  
HETATM   20  C   UNL     1      -8.594   8.780  68.692  1.00  0.00    -0.134 A  
HETATM   21  C   UNL     1      -9.130   9.441  67.572  1.00  0.00    -0.136 A  
BRANCH  19  22
HETATM   22  C   UNL     1      -8.035   8.772  71.191  1.00  0.00    -0.170 A  
HETATM   23  C   UNL     1      -6.653   9.085  71.257  1.00  0.00    -0.086 A  
HETATM   24  C   UNL     1      -5.808   8.598  72.263  1.00  0.00    -0.065 A  
HETATM   25  C   UNL     1      -6.323   7.810  73.275  1.00  0.00    -0.066 A  
HETATM   26  C   UNL     1      -7.682   7.511  73.275  1.00  0.00    -0.125 A  
HETATM   27  C   UNL     1      -8.548   7.960  72.244  1.00  0.00    -0.193 A  
BRANCH  27  28
HETATM   28  C   UNL     1      -9.929   7.493  72.348  1.00  0.00    -0.184 A  
HETATM   29  N   UNL     1     -10.942   8.256  72.812  1.00  0.00    -0.322 NA 
HETATM   30  N   UNL     1     -11.954   7.382  72.738  1.00  0.00    -0.556 NA 
HETATM   31  H   UNL     1     -12.903   7.630  73.015  1.00  0.00     0.000 HD 
HETATM   32  N   UNL     1     -11.647   6.166  72.279  1.00  0.00    -0.309 NA 
HETATM   33  N   UNL     1     -10.341   6.213  72.058  1.00  0.00    -0.195 NA 
ENDBRANCH  27  28
ENDBRANCH  19  22
ENDBRANCH  15  16
ENDBRANCH  11  15
ENDBRANCH   4   5
ENDBRANCH   3   4
ENDBRANCH   2   3
TORSDOF 7
ENDMDL
MODEL      157
REMARK 921   NORMALIZED FREE ENERGY PREDICTED BY IDOCK:   -4.78 KCAL/MOL
REMARK 922        TOTAL FREE ENERGY PREDICTED BY IDOCK:   -8.69 KCAL/MOL
REMARK 923 INTER-LIGAND FREE ENERGY PREDICTED BY IDOCK:   -7.48 KCAL/MOL
REMARK 924 INTRA-LIGAND FREE ENERGY PREDICTED BY IDOCK:   -1.21 KCAL/MOL
REMARK 927      BINDING AFFINITY PREDICTED BY RF-SCORE:    0.00 PKD
ROOT
HETATM    1  C   UNL     1     -12.554  14.429  65.562  1.00  0.00    -0.345 C  
HETATM    2  C   UNL     1     -12.599  12.962  65.184  1.00  0.00    -0.536 C  
ENDROOT
BRANCH   2   3
HETATM    3  C   UNL     1     -11.294  12.518  64.530  1.00  0.00    -0.379 C  
BRANCH   3   4
HETATM    4  C   UNL     1     -10.723  11.268  65.191  1.00  0.00    -0.312 C  
BRANCH   4   5
HETATM    5  C   UNL     1     -10.691  11.437  66.685  1.00  0.00    -0.269 C  
HETATM    6  N   UNL     1     -11.745  11.134  67.382  1.00  0.00    -0.548 NA 
HETATM    7  C   UNL     1     -11.338  11.348  68.792  1.00  0.00    -0.271 C  
HETATM    8  C   UNL     1     -10.011  12.076  68.660  1.00  0.00    -0.142 C  
HETATM    9  C   UNL     1     -11.133   9.990  69.472  1.00  0.00    -0.279 C  
HETATM   10  O   UNL     1      -9.419  12.693  69.533  1.00  0.00     0.982 OA 
HETATM   11  N   UNL     1      -9.617  11.889  67.359  1.00  0.00    -0.173 N  
HETATM   12  C   UNL     1     -11.554  10.247  70.910  1.00  0.00    -0.454 C  
HETATM   13  C   UNL     1     -12.771  11.144  70.753  1.00  0.00    -0.388 C  
HETATM   14  C   UNL     1     -12.422  12.073  69.588  1.00  0.00     0.063 C  
BRANCH  11  15
HETATM   15  C   UNL     1      -8.297  12.299  66.887  1.00  0.00    -0.137 C  
BRANCH  15  16
HETATM   16  C   UNL     1      -8.114  13.806  66.924  1.00  0.00     0.119 A  
HETATM   17  C   UNL     1      -9.058  14.661  66.359  1.00  0.00    -0.242 A  
HETATM   18  C   UNL     1      -8.769  16.019  66.160  1.00  0.00    -0.348 A  
HETATM   19  C   UNL     1      -7.554  16.596  66.579  1.00  0.00    -0.327 A  
HETATM   20  C   UNL     1      -6.719  15.767  67.342  1.00  0.00    -0.228 A  
HETATM   21  C   UNL     1      -6.960  14.386  67.466  1.00  0.00    -0.182 A  
BRANCH  19  22
HETATM   22  C   UNL     1      -7.184  17.991  66.160  1.00  0.00    -0.325 A  
HETATM   23  C   UNL     1      -6.014  18.174  65.378  1.00  0.00    -0.203 A  
HETATM   24  C   UNL     1      -5.516  19.438  65.035  1.00  0.00    -0.218 A  
HETATM   25  C   UNL     1      -6.196  20.576  65.426  1.00  0.00    -0.285 A  
HETATM   26  C   UNL     1      -7.371  20.445  66.159  1.00  0.00    -0.223 A  
HETATM   27  C   UNL     1      -7.872  19.175  66.551  1.00  0.00    -0.288 A  
BRANCH  27  28
HETATM   28  C   UNL     1      -9.071  19.213  67.386  1.00  0.00    -0.292 A  
HETATM   29  N   UNL     1      -9.042  19.397  68.723  1.00  0.00    -0.377 NA 
HETATM   30  N   UNL     1     -10.350  19.318  69.004  1.00  0.00    -0.522 NA 
HETATM   31  H   UNL     1     -10.705  19.419  69.955  1.00  0.00     0.000 HD 
HETATM   32  N   UNL     1     -11.161  19.099  67.967  1.00  0.00     0.031 NA 
HETATM   33  N   UNL     1     -10.348  18.995  66.925  1.00  0.00    -0.380 NA 
ENDBRANCH  27  28
ENDBRANCH  19  22
ENDBRANCH  15  16
ENDBRANCH  11  15
ENDBRANCH   4   5
ENDBRANCH   3   4
ENDBRANCH   2   3
TORSDOF 7
ENDMDL
MODEL      158
REMARK 921   NORMALIZED FREE ENERGY PREDICTED BY IDOCK:   -4.78 KCAL/MOL
REMARK 922        TOTAL FREE ENERGY PREDICTED BY IDOCK:   -8.68 KCAL/MOL
REMARK 923 INTER-LIGAND FREE ENERGY PREDICTED BY IDOCK:   -8.17 KCAL/MOL
REMARK 924 INTRA-LIGAND FREE ENERGY PREDICTED BY IDOCK:   -0.51 KCAL/MOL
REMARK 927      BINDING AFFINITY PREDICTED BY RF-SCORE:    0.00 PKD
ROOT
HETATM    1  C   UNL     1     -14.315  15.253  71.696  1.00  0.00    -0.666 C  
HETATM    2  C   UNL     1     -14.223  13.817  72.169  1.00  0.00    -0.544 C  
ENDROOT
BRANCH   2   3
HETATM    3  C   UNL     1     -12.995  13.120  71.591  1.00  0.00    -0.429 C  
BRANCH   3   4
HETATM    4  C   UNL     1     -12.083  14.094  70.854  1.00  0.00    -0.416 C  
BRANCH   4   5
HETATM    5  C   UNL     1     -11.832  13.614  69.452  1.00  0.00    -0.339 C  
HETATM    6  N   UNL     1     -11.633  14.484  68.508  1.00  0.00    -0.297 NA 
HETATM    7  C   UNL     1     -11.350  13.671  67.300  1.00  0.00    -0.323 C  
HETATM    8  C   UNL     1     -11.722  12.265  67.737  1.00  0.00    -0.337 C  
HETATM    9  C   UNL     1      -9.854  13.748  66.976  1.00  0.00    -0.251 C  
HETATM   10  O   UNL     1     -11.910  11.295  67.018  1.00  0.00    -0.484 OA 
HETATM   11  N   UNL     1     -11.797  12.313  69.106  1.00  0.00    -0.310 N  
HETATM   12  C   UNL     1      -9.815  13.664  65.459  1.00  0.00    -0.175 C  
HETATM   13  C   UNL     1     -11.001  14.518  65.042  1.00  0.00    -0.408 C  
HETATM   14  C   UNL     1     -12.087  14.207  66.074  1.00  0.00    -0.449 C  
BRANCH  11  15
HETATM   15  C   UNL     1     -11.966  11.107  69.913  1.00  0.00    -0.363 C  
BRANCH  15  16
HETATM   16  C   UNL     1     -10.852  10.101  69.686  1.00  0.00    -0.299 A  
HETATM   17  C   UNL     1     -11.132   8.764  69.413  1.00  0.00     0.049 A  
HETATM   18  C   UNL     1     -10.122   7.792  69.465  1.00  0.00    -0.194 A  
HETATM   19  C   UNL     1      -8.777   8.124  69.723  1.00  0.00    -0.135 A  
HETATM   20  C   UNL     1      -8.487   9.495  69.771  1.00  0.00    -0.185 A  
HETATM   21  C   UNL     1      -9.505  10.465  69.812  1.00  0.00    -0.043 A  
BRANCH  19  22
HETATM   22  C   UNL     1      -7.761   7.049  69.989  1.00  0.00    -0.104 A  
HETATM   23  C   UNL     1      -7.253   6.311  68.888  1.00  0.00    -0.084 A  
HETATM   24  C   UNL     1      -6.396   5.214  69.036  1.00  0.00    -0.031 A  
HETATM   25  C   UNL     1      -5.974   4.834  70.297  1.00  0.00    -0.018 A  
HETATM   26  C   UNL     1      -6.413   5.553  71.403  1.00  0.00    -0.040 A  
HETATM   27  C   UNL     1      -7.313   6.644  71.279  1.00  0.00    -0.083 A  
BRANCH  27  28
HETATM   28  C   UNL     1      -7.740   7.241  72.543  1.00  0.00    -0.088 A  
HETATM   29  N   UNL     1      -8.785   6.785  73.267  1.00  0.00    -0.122 NA 
HETATM   30  N   UNL     1      -8.779   7.666  74.277  1.00  0.00    -0.354 NA 
HETATM   31  H   UNL     1      -9.454   7.617  75.039  1.00  0.00     0.000 HD 
HETATM   32  N   UNL     1      -7.836   8.609  74.226  1.00  0.00    -0.396 NA 
HETATM   33  N   UNL     1      -7.183   8.369  73.098  1.00  0.00    -0.259 NA 
ENDBRANCH  27  28
ENDBRANCH  19  22
ENDBRANCH  15  16
ENDBRANCH  11  15
ENDBRANCH   4   5
ENDBRANCH   3   4
ENDBRANCH   2   3
TORSDOF 7
ENDMDL
MODEL      159
REMARK 921   NORMALIZED FREE ENERGY PREDICTED BY IDOCK:   -4.78 KCAL/MOL
REMARK 922        TOTAL FREE ENERGY PREDICTED BY IDOCK:   -8.68 KCAL/MOL
REMARK 923 INTER-LIGAND FREE ENERGY PREDICTED BY IDOCK:   -8.40 KCAL/MOL
REMARK 924 INTRA-LIGAND FREE ENERGY PREDICTED BY IDOCK:   -0.28 KCAL/MOL
REMARK 927      BINDING AFFINITY PREDICTED BY RF-SCORE:    0.00 PKD
ROOT
HETATM    1  C   UNL     1      -9.049   4.825  66.918  1.00  0.00    -0.118 C  
HETATM    2  C   UNL     1     -10.563   4.898  66.935  1.00  0.00    -0.119 C  
ENDROOT
BRANCH   2   3
HETATM    3  C   UNL     1     -11.047   6.270  67.393  1.00  0.00    -0.384 C  
BRANCH   3   4
HETATM    4  C   UNL     1     -11.172   6.351  68.910  1.00  0.00    -0.385 C  
BRANCH   4   5
HETATM    5  C   UNL     1      -9.843   6.691  69.525  1.00  0.00    -0.152 C  
HETATM    6  N   UNL     1      -9.323   5.886  70.402  1.00  0.00    -0.157 NA 
HETATM    7  C   UNL     1      -8.007   6.485  70.731  1.00  0.00    -0.115 C  
HETATM    8  C   UNL     1      -8.087   7.861  70.091  1.00  0.00    -0.116 C  
HETATM    9  C   UNL     1      -6.895   5.658  70.076  1.00  0.00    -0.060 C  
HETATM   10  O   UNL     1      -7.358   8.818  70.307  1.00  0.00    -0.050 OA 
HETATM   11  N   UNL     1      -9.142   7.799  69.217  1.00  0.00    -0.146 N  
HETATM   12  C   UNL     1      -5.742   5.775  71.059  1.00  0.00    -0.017 C  
HETATM   13  C   UNL     1      -6.434   5.679  72.409  1.00  0.00    -0.057 C  
HETATM   14  C   UNL     1      -7.736   6.463  72.235  1.00  0.00    -0.098 C  
BRANCH  11  15
HETATM   15  C   UNL     1      -9.434   8.882  68.281  1.00  0.00    -0.140 C  
BRANCH  15  16
HETATM   16  C   UNL     1     -10.436   9.875  68.843  1.00  0.00    -0.229 A  
HETATM   17  C   UNL     1     -10.902  10.941  68.076  1.00  0.00    -0.293 A  
HETATM   18  C   UNL     1     -11.613  11.995  68.668  1.00  0.00    -0.372 A  
HETATM   19  C   UNL     1     -11.948  11.997  70.036  1.00  0.00    -0.400 A  
HETATM   20  C   UNL     1     -11.664  10.815  70.734  1.00  0.00    -0.400 A  
HETATM   21  C   UNL     1     -10.873   9.796  70.171  1.00  0.00    -0.340 A  
BRANCH  19  22
HETATM   22  C   UNL     1     -12.513  13.230  70.684  1.00  0.00    -0.373 A  
HETATM   23  C   UNL     1     -13.465  13.073  71.725  1.00  0.00    -0.401 A  
HETATM   24  C   UNL     1     -14.138  14.151  72.312  1.00  0.00    -0.630 A  
HETATM   25  C   UNL     1     -13.854  15.443  71.910  1.00  0.00    -0.619 A  
HETATM   26  C   UNL     1     -12.897  15.650  70.922  1.00  0.00    -0.498 A  
HETATM   27  C   UNL     1     -12.231  14.569  70.286  1.00  0.00    -0.391 A  
BRANCH  27  28
HETATM   28  C   UNL     1     -11.316  14.951  69.212  1.00  0.00    -0.296 A  
HETATM   29  N   UNL     1     -10.002  15.198  69.406  1.00  0.00    -0.238 NA 
HETATM   30  N   UNL     1      -9.635  15.528  68.160  1.00  0.00    -0.199 NA 
HETATM   31  H   UNL     1      -8.674  15.779  67.930  1.00  0.00     0.000 HD 
HETATM   32  N   UNL     1     -10.600  15.508  67.239  1.00  0.00    -0.294 NA 
HETATM   33  N   UNL     1     -11.694  15.172  67.909  1.00  0.00    -0.315 NA 
ENDBRANCH  27  28
ENDBRANCH  19  22
ENDBRANCH  15  16
ENDBRANCH  11  15
ENDBRANCH   4   5
ENDBRANCH   3   4
ENDBRANCH   2   3
TORSDOF 7
ENDMDL
MODEL      160
REMARK 921   NORMALIZED FREE ENERGY PREDICTED BY IDOCK:   -4.75 KCAL/MOL
REMARK 922        TOTAL FREE ENERGY PREDICTED BY IDOCK:   -8.65 KCAL/MOL
REMARK 923 INTER-LIGAND FREE ENERGY PREDICTED BY IDOCK:   -6.89 KCAL/MOL
REMARK 924 INTRA-LIGAND FREE ENERGY PREDICTED BY IDOCK:   -1.75 KCAL/MOL
REMARK 927      BINDING AFFINITY PREDICTED BY RF-SCORE:    0.00 PKD
ROOT
HETATM    1  C   UNL     1      -9.604   8.956  71.663  1.00  0.00    -0.363 C  
HETATM    2  C   UNL     1     -10.138   7.539  71.701  1.00  0.00    -0.204 C  
ENDROOT
BRANCH   2   3
HETATM    3  C   UNL     1      -9.213   6.578  70.960  1.00  0.00    -0.161 C  
BRANCH   3   4
HETATM    4  C   UNL     1      -8.459   7.272  69.832  1.00  0.00    -0.140 C  
BRANCH   4   5
HETATM    5  C   UNL     1      -8.349   6.362  68.641  1.00  0.00    -0.121 C  
HETATM    6  N   UNL     1      -7.286   5.630  68.495  1.00  0.00    -0.073 NA 
HETATM    7  C   UNL     1      -7.548   4.821  67.280  1.00  0.00    -0.086 C  
HETATM    8  C   UNL     1      -8.786   5.477  66.692  1.00  0.00    -0.117 C  
HETATM    9  C   UNL     1      -7.856   3.377  67.690  1.00  0.00    -0.077 C  
HETATM   10  O   UNL     1      -9.228   5.336  65.561  1.00  0.00    -0.159 OA 
HETATM   11  N   UNL     1      -9.304   6.253  67.697  1.00  0.00    -0.117 N  
HETATM   12  C   UNL     1      -7.293   2.556  66.541  1.00  0.00    -0.066 C  
HETATM   13  C   UNL     1      -5.995   3.276  66.214  1.00  0.00    -0.024 C  
HETATM   14  C   UNL     1      -6.325   4.762  66.366  1.00  0.00    -0.036 C  
BRANCH  11  15
HETATM   15  C   UNL     1     -10.601   6.915  67.571  1.00  0.00    -0.281 C  
BRANCH  15  16
HETATM   16  C   UNL     1     -10.465   8.400  67.285  1.00  0.00    -0.373 A  
HETATM   17  C   UNL     1     -11.026   9.352  68.134  1.00  0.00    -0.102 A  
HETATM   18  C   UNL     1     -11.130  10.694  67.740  1.00  0.00    -0.385 A  
HETATM   19  C   UNL     1     -10.616  11.155  66.512  1.00  0.00    -0.314 A  
HETATM   20  C   UNL     1      -9.861  10.227  65.781  1.00  0.00    -0.320 A  
HETATM   21  C   UNL     1      -9.832   8.863  66.125  1.00  0.00    -0.326 A  
BRANCH  19  22
HETATM   22  C   UNL     1     -10.932  12.540  66.022  1.00  0.00    -0.318 A  
HETATM   23  C   UNL     1     -11.959  12.698  65.055  1.00  0.00    -0.467 A  
HETATM   24  C   UNL     1     -12.252  13.925  64.447  1.00  0.00    -0.449 A  
HETATM   25  C   UNL     1     -11.555  15.061  64.815  1.00  0.00    -0.395 A  
HETATM   26  C   UNL     1     -10.568  14.963  65.790  1.00  0.00    -0.342 A  
HETATM   27  C   UNL     1     -10.228  13.723  66.391  1.00  0.00    -0.292 A  
BRANCH  27  28
HETATM   28  C   UNL     1      -9.115  13.777  67.336  1.00  0.00    -0.221 A  
HETATM   29  N   UNL     1      -9.277  13.875  68.673  1.00  0.00    -0.145 NA 
HETATM   30  N   UNL     1      -7.997  13.921  69.067  1.00  0.00    -0.330 NA 
HETATM   31  H   UNL     1      -7.737  13.995  70.050  1.00  0.00     0.000 HD 
HETATM   32  N   UNL     1      -7.082  13.865  68.096  1.00  0.00    -0.102 NA 
HETATM   33  N   UNL     1      -7.788  13.807  66.976  1.00  0.00     0.012 NA 
ENDBRANCH  27  28
ENDBRANCH  19  22
ENDBRANCH  15  16
ENDBRANCH  11  15
ENDBRANCH   4   5
ENDBRANCH   3   4
ENDBRANCH   2   3
TORSDOF 7
ENDMDL
MODEL      161
REMARK 921   NORMALIZED FREE ENERGY PREDICTED BY IDOCK:   -4.72 KCAL/MOL
REMARK 922        TOTAL FREE ENERGY PREDICTED BY IDOCK:   -8.59 KCAL/MOL
REMARK 923 INTER-LIGAND FREE ENERGY PREDICTED BY IDOCK:   -7.03 KCAL/MOL
REMARK 924 INTRA-LIGAND FREE ENERGY PREDICTED BY IDOCK:   -1.57 KCAL/MOL
REMARK 927      BINDING AFFINITY PREDICTED BY RF-SCORE:    0.00 PKD
ROOT
HETATM    1  C   UNL     1     -11.852  13.116  63.977  1.00  0.00    -0.514 C  
HETATM    2  C   UNL     1     -11.978  14.116  65.108  1.00  0.00    -0.390 C  
ENDROOT
BRANCH   2   3
HETATM    3  C   UNL     1     -11.892  13.429  66.468  1.00  0.00    -0.443 C  
BRANCH   3   4
HETATM    4  C   UNL     1     -11.386  11.995  66.348  1.00  0.00    -0.411 C  
BRANCH   4   5
HETATM    5  C   UNL     1      -9.923  11.929  66.686  1.00  0.00    -0.199 C  
HETATM    6  N   UNL     1      -9.410  12.829  67.470  1.00  0.00    -0.183 NA 
HETATM    7  C   UNL     1      -7.995  12.418  67.641  1.00  0.00    -0.164 C  
HETATM    8  C   UNL     1      -7.823  11.335  66.589  1.00  0.00    -0.152 C  
HETATM    9  C   UNL     1      -7.804  11.832  69.044  1.00  0.00     0.064 C  
HETATM   10  O   UNL     1      -6.771  10.879  66.167  1.00  0.00    -0.130 OA 
HETATM   11  N   UNL     1      -9.095  10.976  66.220  1.00  0.00    -0.176 N  
HETATM   12  C   UNL     1      -6.381  12.228  69.402  1.00  0.00    -0.118 C  
HETATM   13  C   UNL     1      -6.275  13.643  68.857  1.00  0.00    -0.092 C  
HETATM   14  C   UNL     1      -7.045  13.609  67.535  1.00  0.00    -0.166 C  
BRANCH  11  15
HETATM   15  C   UNL     1      -9.350   9.834  65.345  1.00  0.00    -0.252 C  
BRANCH  15  16
HETATM   16  C   UNL     1      -9.491   8.535  66.118  1.00  0.00    -0.286 A  
HETATM   17  C   UNL     1     -10.646   8.251  66.845  1.00  0.00    -0.302 A  
HETATM   18  C   UNL     1     -10.676   7.190  67.761  1.00  0.00    -0.282 A  
HETATM   19  C   UNL     1      -9.578   6.325  67.941  1.00  0.00    -0.118 A  
HETATM   20  C   UNL     1      -8.516   6.495  67.041  1.00  0.00    -0.113 A  
HETATM   21  C   UNL     1      -8.443   7.610  66.186  1.00  0.00    -0.147 A  
BRANCH  19  22
HETATM   22  C   UNL     1      -9.557   5.341  69.076  1.00  0.00    -0.199 A  
HETATM   23  C   UNL     1      -9.437   3.960  68.773  1.00  0.00    -0.224 A  
HETATM   24  C   UNL     1      -9.526   2.955  69.745  1.00  0.00    -0.167 A  
HETATM   25  C   UNL     1      -9.696   3.294  71.074  1.00  0.00    -0.199 A  
HETATM   26  C   UNL     1      -9.777   4.638  71.425  1.00  0.00    -0.246 A  
HETATM   27  C   UNL     1      -9.729   5.671  70.452  1.00  0.00    -0.233 A  
BRANCH  27  28
HETATM   28  C   UNL     1      -9.909   7.024  70.975  1.00  0.00    -0.180 A  
HETATM   29  N   UNL     1      -8.914   7.934  71.045  1.00  0.00    -0.140 NA 
HETATM   30  N   UNL     1      -9.568   8.959  71.609  1.00  0.00    -0.295 NA 
HETATM   31  H   UNL     1      -9.107   9.846  71.812  1.00  0.00     0.000 HD 
HETATM   32  N   UNL     1     -10.856   8.751  71.888  1.00  0.00    -0.339 NA 
HETATM   33  N   UNL     1     -11.080   7.498  71.518  1.00  0.00    -0.234 NA 
ENDBRANCH  27  28
ENDBRANCH  19  22
ENDBRANCH  15  16
ENDBRANCH  11  15
ENDBRANCH   4   5
ENDBRANCH   3   4
ENDBRANCH   2   3
TORSDOF 7
ENDMDL
MODEL      162
REMARK 921   NORMALIZED FREE ENERGY PREDICTED BY IDOCK:   -4.71 KCAL/MOL
REMARK 922        TOTAL FREE ENERGY PREDICTED BY IDOCK:   -8.59 KCAL/MOL
REMARK 923 INTER-LIGAND FREE ENERGY PREDICTED BY IDOCK:   -7.38 KCAL/MOL
REMARK 924 INTRA-LIGAND FREE ENERGY PREDICTED BY IDOCK:   -1.21 KCAL/MOL
REMARK 927      BINDING AFFINITY PREDICTED BY RF-SCORE:    0.00 PKD
ROOT
HETATM    1  C   UNL     1      -9.865   2.197  72.206  1.00  0.00    -0.209 C  
HETATM    2  C   UNL     1      -9.511   2.491  70.763  1.00  0.00    -0.210 C  
ENDROOT
BRANCH   2   3
HETATM    3  C   UNL     1      -8.748   3.807  70.636  1.00  0.00    -0.121 C  
BRANCH   3   4
HETATM    4  C   UNL     1      -9.539   4.849  69.852  1.00  0.00    -0.252 C  
BRANCH   4   5
HETATM    5  C   UNL     1      -9.230   4.742  68.385  1.00  0.00    -0.124 C  
HETATM    6  N   UNL     1      -9.778   3.792  67.688  1.00  0.00    -0.143 NA 
HETATM    7  C   UNL     1      -9.318   4.033  66.298  1.00  0.00    -0.174 C  
HETATM    8  C   UNL     1      -8.231   5.081  66.472  1.00  0.00    -0.108 C  
HETATM    9  C   UNL     1     -10.477   4.602  65.472  1.00  0.00    -0.220 C  
HETATM   10  O   UNL     1      -7.383   5.406  65.655  1.00  0.00    -0.071 OA 
HETATM   11  N   UNL     1      -8.408   5.587  67.735  1.00  0.00    -0.100 N  
HETATM   12  C   UNL     1     -10.229   4.041  64.081  1.00  0.00    -0.181 C  
HETATM   13  C   UNL     1      -9.771   2.620  64.365  1.00  0.00    -0.112 C  
HETATM   14  C   UNL     1      -8.892   2.736  65.612  1.00  0.00    -0.133 C  
BRANCH  11  15
HETATM   15  C   UNL     1      -7.657   6.745  68.214  1.00  0.00    -0.107 C  
BRANCH  15  16
HETATM   16  C   UNL     1      -8.532   7.976  68.367  1.00  0.00    -0.127 A  
HETATM   17  C   UNL     1      -8.039   9.142  68.950  1.00  0.00    -0.100 A  
HETATM   18  C   UNL     1      -8.906  10.178  69.329  1.00  0.00    -0.191 A  
HETATM   19  C   UNL     1     -10.292  10.123  69.079  1.00  0.00    -0.230 A  
HETATM   20  C   UNL     1     -10.727   9.045  68.295  1.00  0.00    -0.155 A  
HETATM   21  C   UNL     1      -9.881   7.962  67.992  1.00  0.00    -0.195 A  
BRANCH  19  22
HETATM   22  C   UNL     1     -11.219  11.138  69.687  1.00  0.00    -0.333 A  
HETATM   23  C   UNL     1     -11.172  12.472  69.206  1.00  0.00    -0.256 A  
HETATM   24  C   UNL     1     -11.905  13.517  69.782  1.00  0.00    -0.395 A  
HETATM   25  C   UNL     1     -12.756  13.260  70.841  1.00  0.00    -0.332 A  
HETATM   26  C   UNL     1     -12.868  11.959  71.320  1.00  0.00    -0.391 A  
HETATM   27  C   UNL     1     -12.104  10.892  70.777  1.00  0.00    -0.469 A  
BRANCH  27  28
HETATM   28  C   UNL     1     -12.276   9.603  71.445  1.00  0.00    -0.385 A  
HETATM   29  N   UNL     1     -13.468   8.979  71.561  1.00  0.00    -0.357 NA 
HETATM   30  N   UNL     1     -13.102   7.894  72.258  1.00  0.00    -0.524 NA 
HETATM   31  H   UNL     1     -13.772   7.176  72.529  1.00  0.00     0.000 HD 
HETATM   32  N   UNL     1     -11.808   7.810  72.575  1.00  0.00    -0.327 NA 
HETATM   33  N   UNL     1     -11.272   8.920  72.089  1.00  0.00    -0.345 NA 
ENDBRANCH  27  28
ENDBRANCH  19  22
ENDBRANCH  15  16
ENDBRANCH  11  15
ENDBRANCH   4   5
ENDBRANCH   3   4
ENDBRANCH   2   3
TORSDOF 7
ENDMDL
MODEL      163
REMARK 921   NORMALIZED FREE ENERGY PREDICTED BY IDOCK:   -4.71 KCAL/MOL
REMARK 922        TOTAL FREE ENERGY PREDICTED BY IDOCK:   -8.59 KCAL/MOL
REMARK 923 INTER-LIGAND FREE ENERGY PREDICTED BY IDOCK:   -6.14 KCAL/MOL
REMARK 924 INTRA-LIGAND FREE ENERGY PREDICTED BY IDOCK:   -2.45 KCAL/MOL
REMARK 927      BINDING AFFINITY PREDICTED BY RF-SCORE:    0.00 PKD
ROOT
HETATM    1  C   UNL     1     -11.027   6.157  68.456  1.00  0.00    -0.404 C  
HETATM    2  C   UNL     1     -10.711   7.545  67.938  1.00  0.00    -0.200 C  
ENDROOT
BRANCH   2   3
HETATM    3  C   UNL     1     -10.335   7.512  66.459  1.00  0.00    -0.113 C  
BRANCH   3   4
HETATM    4  C   UNL     1      -9.048   8.282  66.183  1.00  0.00    -0.238 C  
BRANCH   4   5
HETATM    5  C   UNL     1      -9.249   9.747  66.452  1.00  0.00    -0.160 C  
HETATM    6  N   UNL     1     -10.232  10.370  65.873  1.00  0.00    -0.251 NA 
HETATM    7  C   UNL     1     -10.173  11.750  66.415  1.00  0.00    -0.215 C  
HETATM    8  C   UNL     1      -8.835  11.781  67.134  1.00  0.00    -0.173 C  
HETATM    9  C   UNL     1     -11.318  11.950  67.415  1.00  0.00    -0.389 C  
HETATM   10  O   UNL     1      -8.224  12.769  67.512  1.00  0.00    -0.157 OA 
HETATM   11  N   UNL     1      -8.462  10.467  67.273  1.00  0.00    -0.122 N  
HETATM   12  C   UNL     1     -11.680  13.417  67.248  1.00  0.00    -0.424 C  
HETATM   13  C   UNL     1     -11.582  13.622  65.746  1.00  0.00    -0.349 C  
HETATM   14  C   UNL     1     -10.367  12.796  65.319  1.00  0.00    -0.313 C  
BRANCH  11  15
HETATM   15  C   UNL     1      -7.303  10.075  68.071  1.00  0.00    -0.087 C  
BRANCH  15  16
HETATM   16  C   UNL     1      -7.683   9.184  69.240  1.00  0.00    -0.080 A  
HETATM   17  C   UNL     1      -7.252   7.860  69.307  1.00  0.00    -0.080 A  
HETATM   18  C   UNL     1      -7.810   6.969  70.235  1.00  0.00    -0.105 A  
HETATM   19  C   UNL     1      -8.771   7.378  71.182  1.00  0.00    -0.137 A  
HETATM   20  C   UNL     1      -9.019   8.757  71.239  1.00  0.00    -0.295 A  
HETATM   21  C   UNL     1      -8.534   9.637  70.255  1.00  0.00    -0.221 A  
BRANCH  19  22
HETATM   22  C   UNL     1      -9.507   6.364  72.012  1.00  0.00    -0.154 A  
HETATM   23  C   UNL     1     -10.923   6.317  71.925  1.00  0.00    -0.302 A  
HETATM   24  C   UNL     1     -11.710   5.495  72.740  1.00  0.00    -0.240 A  
HETATM   25  C   UNL     1     -11.107   4.648  73.652  1.00  0.00    -0.379 A  
HETATM   26  C   UNL     1      -9.720   4.629  73.744  1.00  0.00    -0.156 A  
HETATM   27  C   UNL     1      -8.904   5.483  72.955  1.00  0.00    -0.120 A  
BRANCH  27  28
HETATM   28  C   UNL     1      -7.471   5.398  73.230  1.00  0.00    -0.096 A  
HETATM   29  N   UNL     1      -6.627   4.601  72.541  1.00  0.00    -0.044 NA 
HETATM   30  N   UNL     1      -5.478   4.858  73.183  1.00  0.00    -0.012 NA 
HETATM   31  H   UNL     1      -4.600   4.415  72.915  1.00  0.00     0.000 HD 
HETATM   32  N   UNL     1      -5.553   5.728  74.192  1.00  0.00    -0.046 NA 
HETATM   33  N   UNL     1      -6.835   6.056  74.256  1.00  0.00    -0.079 NA 
ENDBRANCH  27  28
ENDBRANCH  19  22
ENDBRANCH  15  16
ENDBRANCH  11  15
ENDBRANCH   4   5
ENDBRANCH   3   4
ENDBRANCH   2   3
TORSDOF 7
ENDMDL
MODEL      164
REMARK 921   NORMALIZED FREE ENERGY PREDICTED BY IDOCK:   -4.71 KCAL/MOL
REMARK 922        TOTAL FREE ENERGY PREDICTED BY IDOCK:   -8.58 KCAL/MOL
REMARK 923 INTER-LIGAND FREE ENERGY PREDICTED BY IDOCK:   -7.61 KCAL/MOL
REMARK 924 INTRA-LIGAND FREE ENERGY PREDICTED BY IDOCK:   -0.97 KCAL/MOL
REMARK 927      BINDING AFFINITY PREDICTED BY RF-SCORE:    0.00 PKD
ROOT
HETATM    1  C   UNL     1     -11.478  11.836  63.818  1.00  0.00    -0.510 C  
HETATM    2  C   UNL     1     -10.519  11.447  64.925  1.00  0.00    -0.363 C  
ENDROOT
BRANCH   2   3
HETATM    3  C   UNL     1      -9.453  10.479  64.420  1.00  0.00    -0.333 C  
BRANCH   3   4
HETATM    4  C   UNL     1      -8.281  10.369  65.389  1.00  0.00    -0.159 C  
BRANCH   4   5
HETATM    5  C   UNL     1      -8.643   9.478  66.544  1.00  0.00    -0.134 C  
HETATM    6  N   UNL     1      -9.306   8.383  66.320  1.00  0.00    -0.210 NA 
HETATM    7  C   UNL     1      -9.419   7.732  67.648  1.00  0.00    -0.144 C  
HETATM    8  C   UNL     1      -8.955   8.818  68.604  1.00  0.00    -0.138 C  
HETATM    9  C   UNL     1      -8.469   6.531  67.705  1.00  0.00    -0.118 C  
HETATM   10  O   UNL     1      -9.116   8.852  69.814  1.00  0.00    -0.142 OA 
HETATM   11  N   UNL     1      -8.315   9.746  67.822  1.00  0.00    -0.114 N  
HETATM   12  C   UNL     1      -9.201   5.543  68.598  1.00  0.00    -0.140 C  
HETATM   13  C   UNL     1     -10.646   5.687  68.151  1.00  0.00    -0.256 C  
HETATM   14  C   UNL     1     -10.825   7.184  67.890  1.00  0.00    -0.219 C  
BRANCH  11  15
HETATM   15  C   UNL     1      -7.576  10.865  68.403  1.00  0.00    -0.104 C  
BRANCH  15  16
HETATM   16  C   UNL     1      -8.099  12.209  67.927  1.00  0.00    -0.153 A  
HETATM   17  C   UNL     1      -7.231  13.198  67.468  1.00  0.00    -0.156 A  
HETATM   18  C   UNL     1      -7.677  14.514  67.280  1.00  0.00    -0.177 A  
HETATM   19  C   UNL     1      -9.023  14.884  67.475  1.00  0.00    -0.190 A  
HETATM   20  C   UNL     1      -9.914  13.829  67.718  1.00  0.00    -0.242 A  
HETATM   21  C   UNL     1      -9.461  12.527  67.997  1.00  0.00    -0.209 A  
BRANCH  19  22
HETATM   22  C   UNL     1      -9.426  16.332  67.481  1.00  0.00    -0.227 A  
HETATM   23  C   UNL     1      -8.738  17.229  66.622  1.00  0.00    -0.285 A  
HETATM   24  C   UNL     1      -8.953  18.613  66.636  1.00  0.00    -0.307 A  
HETATM   25  C   UNL     1      -9.902  19.155  67.482  1.00  0.00    -0.406 A  
HETATM   26  C   UNL     1     -10.631  18.310  68.313  1.00  0.00    -0.249 A  
HETATM   27  C   UNL     1     -10.401  16.909  68.344  1.00  0.00    -0.338 A  
BRANCH  27  28
HETATM   28  C   UNL     1     -11.192  16.174  69.329  1.00  0.00    -0.337 A  
HETATM   29  N   UNL     1     -12.364  15.568  69.040  1.00  0.00    -0.110 NA 
HETATM   30  N   UNL     1     -12.687  15.085  70.248  1.00  0.00    -0.555 NA 
HETATM   31  H   UNL     1     -13.540  14.549  70.404  1.00  0.00     0.000 HD 
HETATM   32  N   UNL     1     -11.826  15.346  71.234  1.00  0.00    -0.341 NA 
HETATM   33  N   UNL     1     -10.878  16.076  70.663  1.00  0.00    -0.244 NA 
ENDBRANCH  27  28
ENDBRANCH  19  22
ENDBRANCH  15  16
ENDBRANCH  11  15
ENDBRANCH   4   5
ENDBRANCH   3   4
ENDBRANCH   2   3
TORSDOF 7
ENDMDL
MODEL      165
REMARK 921   NORMALIZED FREE ENERGY PREDICTED BY IDOCK:   -4.71 KCAL/MOL
REMARK 922        TOTAL FREE ENERGY PREDICTED BY IDOCK:   -8.58 KCAL/MOL
REMARK 923 INTER-LIGAND FREE ENERGY PREDICTED BY IDOCK:   -7.13 KCAL/MOL
REMARK 924 INTRA-LIGAND FREE ENERGY PREDICTED BY IDOCK:   -1.44 KCAL/MOL
REMARK 927      BINDING AFFINITY PREDICTED BY RF-SCORE:    0.00 PKD
ROOT
HETATM    1  C   UNL     1      -8.374  14.485  68.594  1.00  0.00    -0.164 C  
HETATM    2  C   UNL     1      -7.318  13.893  67.682  1.00  0.00    -0.186 C  
ENDROOT
BRANCH   2   3
HETATM    3  C   UNL     1      -7.141  12.398  67.935  1.00  0.00    -0.109 C  
BRANCH   3   4
HETATM    4  C   UNL     1      -7.568  11.564  66.732  1.00  0.00    -0.126 C  
BRANCH   4   5
HETATM    5  C   UNL     1      -9.006  11.837  66.392  1.00  0.00    -0.201 C  
HETATM    6  N   UNL     1      -9.288  12.541  65.337  1.00  0.00     0.115 NA 
HETATM    7  C   UNL     1     -10.770  12.546  65.272  1.00  0.00    -0.286 C  
HETATM    8  C   UNL     1     -11.175  11.973  66.619  1.00  0.00    -0.327 C  
HETATM    9  C   UNL     1     -11.229  11.619  64.140  1.00  0.00    -0.421 C  
HETATM   10  O   UNL     1     -12.280  12.021  67.138  1.00  0.00    -0.505 OA 
HETATM   11  N   UNL     1     -10.042  11.387  67.125  1.00  0.00    -0.195 N  
HETATM   12  C   UNL     1     -12.495  12.287  63.628  1.00  0.00    -0.647 C  
HETATM   13  C   UNL     1     -12.138  13.764  63.665  1.00  0.00    -0.330 C  
HETATM   14  C   UNL     1     -11.316  13.934  64.944  1.00  0.00    -0.349 C  
BRANCH  11  15
HETATM   15  C   UNL     1     -10.070  10.575  68.339  1.00  0.00    -0.164 C  
BRANCH  15  16
HETATM   16  C   UNL     1      -9.816   9.105  68.055  1.00  0.00    -0.197 A  
HETATM   17  C   UNL     1     -10.793   8.307  67.461  1.00  0.00    -0.094 A  
HETATM   18  C   UNL     1     -10.663   6.911  67.439  1.00  0.00    -0.396 A  
HETATM   19  C   UNL     1      -9.523   6.256  67.946  1.00  0.00    -0.115 A  
HETATM   20  C   UNL     1      -8.463   7.091  68.330  1.00  0.00    -0.123 A  
HETATM   21  C   UNL     1      -8.622   8.484  68.440  1.00  0.00    -0.139 A  
BRANCH  19  22
HETATM   22  C   UNL     1      -9.507   4.762  68.108  1.00  0.00    -0.186 A  
HETATM   23  C   UNL     1      -9.551   4.224  69.421  1.00  0.00    -0.267 A  
HETATM   24  C   UNL     1      -9.422   2.855  69.688  1.00  0.00    -0.164 A  
HETATM   25  C   UNL     1      -9.286   1.959  68.644  1.00  0.00    -0.234 A  
HETATM   26  C   UNL     1      -9.279   2.436  67.338  1.00  0.00    -0.174 A  
HETATM   27  C   UNL     1      -9.368   3.823  67.046  1.00  0.00    -0.219 A  
BRANCH  27  28
HETATM   28  C   UNL     1      -9.264   4.166  65.629  1.00  0.00    -0.149 A  
HETATM   29  N   UNL     1     -10.264   3.978  64.742  1.00  0.00    -0.227 NA 
HETATM   30  N   UNL     1      -9.671   4.406  63.619  1.00  0.00    -0.339 NA 
HETATM   31  H   UNL     1     -10.154   4.410  62.721  1.00  0.00     0.000 HD 
HETATM   32  N   UNL     1      -8.411   4.828  63.745  1.00  0.00    -0.118 NA 
HETATM   33  N   UNL     1      -8.125   4.646  65.027  1.00  0.00    -0.099 NA 
ENDBRANCH  27  28
ENDBRANCH  19  22
ENDBRANCH  15  16
ENDBRANCH  11  15
ENDBRANCH   4   5
ENDBRANCH   3   4
ENDBRANCH   2   3
TORSDOF 7
ENDMDL
MODEL      166
REMARK 921   NORMALIZED FREE ENERGY PREDICTED BY IDOCK:   -4.70 KCAL/MOL
REMARK 922        TOTAL FREE ENERGY PREDICTED BY IDOCK:   -8.57 KCAL/MOL
REMARK 923 INTER-LIGAND FREE ENERGY PREDICTED BY IDOCK:   -7.57 KCAL/MOL
REMARK 924 INTRA-LIGAND FREE ENERGY PREDICTED BY IDOCK:   -1.00 KCAL/MOL
REMARK 927      BINDING AFFINITY PREDICTED BY RF-SCORE:    0.00 PKD
ROOT
HETATM    1  C   UNL     1     -11.581   9.209  71.041  1.00  0.00    -0.370 C  
HETATM    2  C   UNL     1     -10.867   8.023  71.657  1.00  0.00    -0.288 C  
ENDROOT
BRANCH   2   3
HETATM    3  C   UNL     1     -10.469   7.003  70.594  1.00  0.00    -0.229 C  
BRANCH   3   4
HETATM    4  C   UNL     1     -10.753   7.510  69.185  1.00  0.00    -0.163 C  
BRANCH   4   5
HETATM    5  C   UNL     1      -9.516   7.415  68.337  1.00  0.00    -0.143 C  
HETATM    6  N   UNL     1      -9.297   6.332  67.653  1.00  0.00    -0.117 NA 
HETATM    7  C   UNL     1      -8.054   6.613  66.893  1.00  0.00    -0.113 C  
HETATM    8  C   UNL     1      -7.544   7.895  67.529  1.00  0.00    -0.105 C  
HETATM    9  C   UNL     1      -8.404   6.853  65.420  1.00  0.00    -0.122 C  
HETATM   10  O   UNL     1      -6.425   8.375  67.426  1.00  0.00    -0.056 OA 
HETATM   11  N   UNL     1      -8.604   8.400  68.238  1.00  0.00    -0.138 N  
HETATM   12  C   UNL     1      -7.197   6.306  64.676  1.00  0.00    -0.064 C  
HETATM   13  C   UNL     1      -6.857   5.048  65.458  1.00  0.00    -0.061 C  
HETATM   14  C   UNL     1      -7.094   5.424  66.922  1.00  0.00    -0.066 C  
BRANCH  11  15
HETATM   15  C   UNL     1      -8.558   9.723  68.856  1.00  0.00    -0.134 C  
BRANCH  15  16
HETATM   16  C   UNL     1      -8.816  10.836  67.855  1.00  0.00    -0.132 A  
HETATM   17  C   UNL     1      -8.050  12.000  67.859  1.00  0.00    -0.150 A  
HETATM   18  C   UNL     1      -8.449  13.125  67.122  1.00  0.00    -0.173 A  
HETATM   19  C   UNL     1      -9.591  13.112  66.296  1.00  0.00    -0.241 A  
HETATM   20  C   UNL     1     -10.212  11.866  66.136  1.00  0.00    -0.258 A  
HETATM   21  C   UNL     1      -9.874  10.762  66.941  1.00  0.00    -0.224 A  
BRANCH  19  22
HETATM   22  C   UNL     1     -10.114  14.387  65.695  1.00  0.00    -0.377 A  
HETATM   23  C   UNL     1      -9.544  15.617  66.113  1.00  0.00    -0.362 A  
HETATM   24  C   UNL     1     -10.036  16.863  65.707  1.00  0.00    -0.251 A  
HETATM   25  C   UNL     1     -11.099  16.930  64.825  1.00  0.00     0.094 A  
HETATM   26  C   UNL     1     -11.664  15.750  64.355  1.00  0.00    -0.201 A  
HETATM   27  C   UNL     1     -11.207  14.477  64.785  1.00  0.00    -0.395 A  
BRANCH  27  28
HETATM   28  C   UNL     1     -11.959  13.338  64.261  1.00  0.00    -0.421 A  
HETATM   29  N   UNL     1     -11.651  12.709  63.107  1.00  0.00    -0.339 NA 
HETATM   30  N   UNL     1     -12.629  11.795  63.064  1.00  0.00    -0.873 NA 
HETATM   31  H   UNL     1     -12.706  11.121  62.302  1.00  0.00     0.000 HD 
HETATM   32  N   UNL     1     -13.498  11.817  64.077  1.00  0.00    -0.281 NA 
HETATM   33  N   UNL     1     -13.099  12.828  64.836  1.00  0.00    -0.821 NA 
ENDBRANCH  27  28
ENDBRANCH  19  22
ENDBRANCH  15  16
ENDBRANCH  11  15
ENDBRANCH   4   5
ENDBRANCH   3   4
ENDBRANCH   2   3
TORSDOF 7
ENDMDL
MODEL      167
REMARK 921   NORMALIZED FREE ENERGY PREDICTED BY IDOCK:   -4.62 KCAL/MOL
REMARK 922        TOTAL FREE ENERGY PREDICTED BY IDOCK:   -8.46 KCAL/MOL
REMARK 923 INTER-LIGAND FREE ENERGY PREDICTED BY IDOCK:   -6.40 KCAL/MOL
REMARK 924 INTRA-LIGAND FREE ENERGY PREDICTED BY IDOCK:   -2.06 KCAL/MOL
REMARK 927      BINDING AFFINITY PREDICTED BY RF-SCORE:    0.00 PKD
ROOT
HETATM    1  C   UNL     1      -5.787  11.184  67.913  1.00  0.00    -0.042 C  
HETATM    2  C   UNL     1      -6.342  12.061  69.017  1.00  0.00    -0.085 C  
ENDROOT
BRANCH   2   3
HETATM    3  C   UNL     1      -7.653  12.720  68.596  1.00  0.00    -0.085 C  
BRANCH   3   4
HETATM    4  C   UNL     1      -7.589  13.248  67.167  1.00  0.00     0.014 C  
BRANCH   4   5
HETATM    5  C   UNL     1      -8.713  14.215  66.919  1.00  0.00    -0.166 C  
HETATM    6  N   UNL     1      -8.734  15.344  67.562  1.00  0.00    -0.169 NA 
HETATM    7  C   UNL     1      -9.916  16.062  67.025  1.00  0.00    -0.257 C  
HETATM    8  C   UNL     1     -10.634  14.989  66.223  1.00  0.00    -0.307 C  
HETATM    9  C   UNL     1      -9.446  17.191  66.100  1.00  0.00    -0.228 C  
HETATM   10  O   UNL     1     -11.784  15.022  65.812  1.00  0.00    -0.251 OA 
HETATM   11  N   UNL     1      -9.718  13.982  66.054  1.00  0.00    -0.285 N  
HETATM   12  C   UNL     1     -10.498  18.270  66.297  1.00  0.00    -0.397 C  
HETATM   13  C   UNL     1     -10.768  18.212  67.791  1.00  0.00    -0.355 C  
HETATM   14  C   UNL     1     -10.729  16.722  68.137  1.00  0.00    -0.361 C  
BRANCH  11  15
HETATM   15  C   UNL     1      -9.980  12.839  65.183  1.00  0.00    -0.166 C  
BRANCH  15  16
HETATM   16  C   UNL     1      -9.777  11.513  65.895  1.00  0.00    -0.260 A  
HETATM   17  C   UNL     1     -10.555  11.161  66.996  1.00  0.00    -0.295 A  
HETATM   18  C   UNL     1     -10.200  10.073  67.807  1.00  0.00    -0.235 A  
HETATM   19  C   UNL     1      -9.095   9.249  67.514  1.00  0.00    -0.133 A  
HETATM   20  C   UNL     1      -8.467   9.489  66.283  1.00  0.00    -0.122 A  
HETATM   21  C   UNL     1      -8.759  10.630  65.514  1.00  0.00    -0.199 A  
BRANCH  19  22
HETATM   22  C   UNL     1      -8.611   8.234  68.511  1.00  0.00    -0.133 A  
HETATM   23  C   UNL     1      -7.879   8.688  69.639  1.00  0.00    -0.094 A  
HETATM   24  C   UNL     1      -7.283   7.819  70.562  1.00  0.00    -0.057 A  
HETATM   25  C   UNL     1      -7.433   6.452  70.418  1.00  0.00    -0.094 A  
HETATM   26  C   UNL     1      -8.177   5.961  69.350  1.00  0.00    -0.113 A  
HETATM   27  C   UNL     1      -8.756   6.822  68.381  1.00  0.00    -0.123 A  
BRANCH  27  28
HETATM   28  C   UNL     1      -9.437   6.146  67.279  1.00  0.00    -0.114 A  
HETATM   29  N   UNL     1     -10.780   6.102  67.147  1.00  0.00    -0.309 NA 
HETATM   30  N   UNL     1     -10.888   5.363  66.035  1.00  0.00    -0.709 NA 
HETATM   31  H   UNL     1     -11.793   5.126  65.630  1.00  0.00     0.000 HD 
HETATM   32  N   UNL     1      -9.740   4.953  65.490  1.00  0.00    -0.145 NA 
HETATM   33  N   UNL     1      -8.800   5.420  66.299  1.00  0.00    -0.126 NA 
ENDBRANCH  27  28
ENDBRANCH  19  22
ENDBRANCH  15  16
ENDBRANCH  11  15
ENDBRANCH   4   5
ENDBRANCH   3   4
ENDBRANCH   2   3
TORSDOF 7
ENDMDL
MODEL      168
REMARK 921   NORMALIZED FREE ENERGY PREDICTED BY IDOCK:   -4.59 KCAL/MOL
REMARK 922        TOTAL FREE ENERGY PREDICTED BY IDOCK:   -8.41 KCAL/MOL
REMARK 923 INTER-LIGAND FREE ENERGY PREDICTED BY IDOCK:   -7.53 KCAL/MOL
REMARK 924 INTRA-LIGAND FREE ENERGY PREDICTED BY IDOCK:   -0.88 KCAL/MOL
REMARK 927      BINDING AFFINITY PREDICTED BY RF-SCORE:    0.00 PKD
ROOT
HETATM    1  C   UNL     1      -9.453   5.011  73.180  1.00  0.00    -0.146 C  
HETATM    2  C   UNL     1      -8.555   5.911  72.356  1.00  0.00    -0.120 C  
ENDROOT
BRANCH   2   3
HETATM    3  C   UNL     1      -9.291   6.467  71.141  1.00  0.00    -0.167 C  
BRANCH   3   4
HETATM    4  C   UNL     1      -8.528   7.616  70.491  1.00  0.00    -0.128 C  
BRANCH   4   5
HETATM    5  C   UNL     1      -8.819   7.668  69.017  1.00  0.00    -0.135 C  
HETATM    6  N   UNL     1      -8.045   7.028  68.193  1.00  0.00    -0.118 NA 
HETATM    7  C   UNL     1      -8.661   7.234  66.860  1.00  0.00    -0.126 C  
HETATM    8  C   UNL     1      -9.699   8.312  67.124  1.00  0.00    -0.195 C  
HETATM    9  C   UNL     1      -9.345   5.938  66.411  1.00  0.00    -0.171 C  
HETATM   10  O   UNL     1     -10.277   8.999  66.295  1.00  0.00    -0.284 OA 
HETATM   11  N   UNL     1      -9.854   8.347  68.487  1.00  0.00    -0.168 N  
HETATM   12  C   UNL     1      -9.175   5.953  64.901  1.00  0.00     0.441 C  
HETATM   13  C   UNL     1      -7.762   6.483  64.724  1.00  0.00    -0.106 C  
HETATM   14  C   UNL     1      -7.613   7.562  65.798  1.00  0.00    -0.093 C  
BRANCH  11  15
HETATM   15  C   UNL     1     -10.898   9.145  69.125  1.00  0.00    -0.110 C  
BRANCH  15  16
HETATM   16  C   UNL     1     -10.790  10.619  68.776  1.00  0.00    -0.269 A  
HETATM   17  C   UNL     1     -11.919  11.367  68.449  1.00  0.00    -0.270 A  
HETATM   18  C   UNL     1     -11.796  12.642  67.877  1.00  0.00    -0.388 A  
HETATM   19  C   UNL     1     -10.543  13.253  67.672  1.00  0.00    -0.242 A  
HETATM   20  C   UNL     1      -9.441  12.576  68.214  1.00  0.00    -0.201 A  
HETATM   21  C   UNL     1      -9.548  11.261  68.703  1.00  0.00    -0.195 A  
BRANCH  19  22
HETATM   22  C   UNL     1     -10.430  14.514  66.863  1.00  0.00    -0.269 A  
HETATM   23  C   UNL     1      -9.867  15.664  67.477  1.00  0.00    -0.228 A  
HETATM   24  C   UNL     1      -9.824  16.917  66.854  1.00  0.00    -0.278 A  
HETATM   25  C   UNL     1     -10.306  17.064  65.566  1.00  0.00    -0.161 A  
HETATM   26  C   UNL     1     -10.829  15.956  64.909  1.00  0.00    -0.420 A  
HETATM   27  C   UNL     1     -10.918  14.685  65.536  1.00  0.00    -0.344 A  
BRANCH  27  28
HETATM   28  C   UNL     1     -11.567  13.645  64.739  1.00  0.00    -0.355 A  
HETATM   29  N   UNL     1     -12.905  13.555  64.580  1.00  0.00    -0.649 NA 
HETATM   30  N   UNL     1     -12.981  12.453  63.821  1.00  0.00    -0.775 NA 
HETATM   31  H   UNL     1     -13.874  12.082  63.497  1.00  0.00     0.000 HD 
HETATM   32  N   UNL     1     -11.820  11.870  63.514  1.00  0.00    -0.486 NA 
HETATM   33  N   UNL     1     -10.905  12.607  64.128  1.00  0.00    -0.367 NA 
ENDBRANCH  27  28
ENDBRANCH  19  22
ENDBRANCH  15  16
ENDBRANCH  11  15
ENDBRANCH   4   5
ENDBRANCH   3   4
ENDBRANCH   2   3
TORSDOF 7
ENDMDL
MODEL      169
REMARK 921   NORMALIZED FREE ENERGY PREDICTED BY IDOCK:   -4.58 KCAL/MOL
REMARK 922        TOTAL FREE ENERGY PREDICTED BY IDOCK:   -8.40 KCAL/MOL
REMARK 923 INTER-LIGAND FREE ENERGY PREDICTED BY IDOCK:   -7.03 KCAL/MOL
REMARK 924 INTRA-LIGAND FREE ENERGY PREDICTED BY IDOCK:   -1.37 KCAL/MOL
REMARK 927      BINDING AFFINITY PREDICTED BY RF-SCORE:    0.00 PKD
ROOT
HETATM    1  C   UNL     1     -12.657  11.977  63.385  1.00  0.00    -0.592 C  
HETATM    2  C   UNL     1     -11.199  12.302  63.132  1.00  0.00    -0.236 C  
ENDROOT
BRANCH   2   3
HETATM    3  C   UNL     1     -10.557  12.957  64.352  1.00  0.00    -0.418 C  
BRANCH   3   4
HETATM    4  C   UNL     1     -11.577  13.231  65.451  1.00  0.00    -0.346 C  
BRANCH   4   5
HETATM    5  C   UNL     1     -10.996  14.159  66.482  1.00  0.00    -0.309 C  
HETATM    6  N   UNL     1     -10.262  15.159  66.095  1.00  0.00    -0.278 NA 
HETATM    7  C   UNL     1      -9.929  15.886  67.344  1.00  0.00    -0.239 C  
HETATM    8  C   UNL     1     -10.378  14.925  68.432  1.00  0.00    -0.233 C  
HETATM    9  C   UNL     1     -10.746  17.181  67.409  1.00  0.00    -0.242 C  
HETATM   10  O   UNL     1     -10.078  14.960  69.616  1.00  0.00    -0.159 OA 
HETATM   11  N   UNL     1     -11.194  14.017  67.806  1.00  0.00    -0.270 N  
HETATM   12  C   UNL     1      -9.821  18.148  68.130  1.00  0.00    -0.350 C  
HETATM   13  C   UNL     1      -8.460  17.821  67.537  1.00  0.00    -0.227 C  
HETATM   14  C   UNL     1      -8.459  16.299  67.382  1.00  0.00    -0.190 C  
BRANCH  11  15
HETATM   15  C   UNL     1     -11.961  13.025  68.555  1.00  0.00    -0.261 C  
BRANCH  15  16
HETATM   16  C   UNL     1     -11.259  11.681  68.619  1.00  0.00    -0.308 A  
HETATM   17  C   UNL     1     -11.435  10.727  67.618  1.00  0.00    -0.234 A  
HETATM   18  C   UNL     1     -11.005   9.405  67.802  1.00  0.00    -0.122 A  
HETATM   19  C   UNL     1     -10.320   8.994  68.963  1.00  0.00    -0.233 A  
HETATM   20  C   UNL     1      -9.960  10.019  69.850  1.00  0.00    -0.280 A  
HETATM   21  C   UNL     1     -10.465  11.325  69.717  1.00  0.00     0.215 A  
BRANCH  19  22
HETATM   22  C   UNL     1     -10.068   7.537  69.228  1.00  0.00    -0.188 A  
HETATM   23  C   UNL     1     -10.914   6.859  70.145  1.00  0.00    -0.322 A  
HETATM   24  C   UNL     1     -10.694   5.537  70.551  1.00  0.00    -0.310 A  
HETATM   25  C   UNL     1      -9.638   4.820  70.021  1.00  0.00    -0.260 A  
HETATM   26  C   UNL     1      -8.807   5.428  69.087  1.00  0.00    -0.110 A  
HETATM   27  C   UNL     1      -8.988   6.779  68.691  1.00  0.00    -0.125 A  
BRANCH  27  28
HETATM   28  C   UNL     1      -7.981   7.294  67.763  1.00  0.00    -0.115 A  
HETATM   29  N   UNL     1      -7.775   6.784  66.530  1.00  0.00    -0.100 NA 
HETATM   30  N   UNL     1      -6.761   7.557  66.119  1.00  0.00    -0.052 NA 
HETATM   31  H   UNL     1      -6.339   7.448  65.196  1.00  0.00     0.000 HD 
HETATM   32  N   UNL     1      -6.334   8.477  66.987  1.00  0.00    -0.056 NA 
HETATM   33  N   UNL     1      -7.087   8.295  68.062  1.00  0.00    -0.084 NA 
ENDBRANCH  27  28
ENDBRANCH  19  22
ENDBRANCH  15  16
ENDBRANCH  11  15
ENDBRANCH   4   5
ENDBRANCH   3   4
ENDBRANCH   2   3
TORSDOF 7
ENDMDL
MODEL      170
REMARK 921   NORMALIZED FREE ENERGY PREDICTED BY IDOCK:   -4.58 KCAL/MOL
REMARK 922        TOTAL FREE ENERGY PREDICTED BY IDOCK:   -8.40 KCAL/MOL
REMARK 923 INTER-LIGAND FREE ENERGY PREDICTED BY IDOCK:   -7.39 KCAL/MOL
REMARK 924 INTRA-LIGAND FREE ENERGY PREDICTED BY IDOCK:   -1.00 KCAL/MOL
REMARK 927      BINDING AFFINITY PREDICTED BY RF-SCORE:    0.00 PKD
ROOT
HETATM    1  C   UNL     1     -12.165  13.152  70.240  1.00  0.00    -0.376 C  
HETATM    2  C   UNL     1     -11.145  12.570  69.282  1.00  0.00    -0.203 C  
ENDROOT
BRANCH   2   3
HETATM    3  C   UNL     1     -11.757  12.319  67.907  1.00  0.00    -0.410 C  
BRANCH   3   4
HETATM    4  C   UNL     1     -12.487  13.548  67.377  1.00  0.00     0.075 C  
BRANCH   4   5
HETATM    5  C   UNL     1     -11.517  14.674  67.154  1.00  0.00    -0.368 C  
HETATM    6  N   UNL     1     -11.406  15.605  68.055  1.00  0.00    -0.343 NA 
HETATM    7  C   UNL     1     -10.329  16.491  67.550  1.00  0.00    -0.294 C  
HETATM    8  C   UNL     1     -10.126  16.007  66.124  1.00  0.00    -0.327 C  
HETATM    9  C   UNL     1      -9.057  16.263  68.374  1.00  0.00    -0.203 C  
HETATM   10  O   UNL     1      -9.536  16.588  65.225  1.00  0.00    -0.370 OA 
HETATM   11  N   UNL     1     -10.739  14.781  66.061  1.00  0.00    -0.302 N  
HETATM   12  C   UNL     1      -8.399  17.633  68.396  1.00  0.00    -0.290 C  
HETATM   13  C   UNL     1      -9.580  18.574  68.569  1.00  0.00    -0.388 C  
HETATM   14  C   UNL     1     -10.691  17.967  67.710  1.00  0.00    -0.339 C  
BRANCH  11  15
HETATM   15  C   UNL     1     -10.613  13.915  64.891  1.00  0.00    -0.419 C  
BRANCH  15  16
HETATM   16  C   UNL     1     -10.027  12.559  65.238  1.00  0.00    -0.226 A  
HETATM   17  C   UNL     1      -8.955  12.441  66.122  1.00  0.00     0.030 A  
HETATM   18  C   UNL     1      -8.250  11.235  66.239  1.00  0.00    -0.126 A  
HETATM   19  C   UNL     1      -8.627  10.075  65.533  1.00  0.00    -0.162 A  
HETATM   20  C   UNL     1      -9.836  10.158  64.828  1.00  0.00    -0.382 A  
HETATM   21  C   UNL     1     -10.495  11.386  64.633  1.00  0.00    -0.373 A  
BRANCH  19  22
HETATM   22  C   UNL     1      -7.731   8.869  65.509  1.00  0.00    -0.088 A  
HETATM   23  C   UNL     1      -6.522   8.938  64.770  1.00  0.00    -0.066 A  
HETATM   24  C   UNL     1      -5.677   7.837  64.585  1.00  0.00    -0.037 A  
HETATM   25  C   UNL     1      -5.986   6.624  65.173  1.00  0.00    -0.034 A  
HETATM   26  C   UNL     1      -7.140   6.519  65.942  1.00  0.00    -0.062 A  
HETATM   27  C   UNL     1      -8.031   7.612  66.109  1.00  0.00    -0.110 A  
BRANCH  27  28
HETATM   28  C   UNL     1      -9.238   7.314  66.878  1.00  0.00    -0.152 A  
HETATM   29  N   UNL     1      -9.629   8.028  67.956  1.00  0.00    -0.149 NA 
HETATM   30  N   UNL     1     -10.733   7.352  68.302  1.00  0.00    -0.383 NA 
HETATM   31  H   UNL     1     -11.305   7.626  69.100  1.00  0.00     0.000 HD 
HETATM   32  N   UNL     1     -11.039   6.299  67.541  1.00  0.00    -0.342 NA 
HETATM   33  N   UNL     1     -10.066   6.242  66.643  1.00  0.00    -0.172 NA 
ENDBRANCH  27  28
ENDBRANCH  19  22
ENDBRANCH  15  16
ENDBRANCH  11  15
ENDBRANCH   4   5
ENDBRANCH   3   4
ENDBRANCH   2   3
TORSDOF 7
ENDMDL
MODEL      171
REMARK 921   NORMALIZED FREE ENERGY PREDICTED BY IDOCK:   -4.55 KCAL/MOL
REMARK 922        TOTAL FREE ENERGY PREDICTED BY IDOCK:   -8.36 KCAL/MOL
REMARK 923 INTER-LIGAND FREE ENERGY PREDICTED BY IDOCK:   -7.06 KCAL/MOL
REMARK 924 INTRA-LIGAND FREE ENERGY PREDICTED BY IDOCK:   -1.30 KCAL/MOL
REMARK 927      BINDING AFFINITY PREDICTED BY RF-SCORE:    0.00 PKD
ROOT
HETATM    1  C   UNL     1     -13.827  13.524  72.156  1.00  0.00    -0.628 C  
HETATM    2  C   UNL     1     -13.282  12.114  72.048  1.00  0.00    -0.496 C  
ENDROOT
BRANCH   2   3
HETATM    3  C   UNL     1     -12.362  11.965  70.840  1.00  0.00    -0.400 C  
BRANCH   3   4
HETATM    4  C   UNL     1     -12.655  10.690  70.057  1.00  0.00    -0.232 C  
BRANCH   4   5
HETATM    5  C   UNL     1     -11.734   9.586  70.495  1.00  0.00    -0.222 C  
HETATM    6  N   UNL     1     -11.892   9.055  71.670  1.00  0.00    -0.335 NA 
HETATM    7  C   UNL     1     -10.879   7.973  71.734  1.00  0.00    -0.242 C  
HETATM    8  C   UNL     1     -10.010   8.244  70.517  1.00  0.00    -0.184 C  
HETATM    9  C   UNL     1     -11.578   6.616  71.596  1.00  0.00    -0.350 C  
HETATM   10  O   UNL     1      -8.901   7.786  70.287  1.00  0.00    -0.142 OA 
HETATM   11  N   UNL     1     -10.736   9.103  69.731  1.00  0.00    -0.228 N  
HETATM   12  C   UNL     1     -10.731   5.692  72.456  1.00  0.00    -0.285 C  
HETATM   13  C   UNL     1     -10.399   6.559  73.659  1.00  0.00    -0.323 C  
HETATM   14  C   UNL     1     -10.157   7.954  73.080  1.00  0.00    -0.384 C  
BRANCH  11  15
HETATM   15  C   UNL     1     -10.305   9.465  68.383  1.00  0.00    -0.205 C  
BRANCH  15  16
HETATM   16  C   UNL     1     -10.099   8.249  67.498  1.00  0.00    -0.287 A  
HETATM   17  C   UNL     1     -11.052   7.234  67.435  1.00  0.00    -0.138 A  
HETATM   18  C   UNL     1     -10.752   6.003  66.833  1.00  0.00    -0.407 A  
HETATM   19  C   UNL     1      -9.513   5.759  66.207  1.00  0.00    -0.166 A  
HETATM   20  C   UNL     1      -8.662   6.867  66.088  1.00  0.00    -0.153 A  
HETATM   21  C   UNL     1      -8.918   8.072  66.767  1.00  0.00    -0.169 A  
BRANCH  19  22
HETATM   22  C   UNL     1      -9.139   4.371  65.767  1.00  0.00    -0.135 A  
HETATM   23  C   UNL     1      -9.387   3.998  64.420  1.00  0.00    -0.159 A  
HETATM   24  C   UNL     1      -9.187   2.698  63.940  1.00  0.00    -0.109 A  
HETATM   25  C   UNL     1      -8.686   1.722  64.781  1.00  0.00    -0.103 A  
HETATM   26  C   UNL     1      -8.389   2.051  66.099  1.00  0.00    -0.095 A  
HETATM   27  C   UNL     1      -8.622   3.352  66.617  1.00  0.00    -0.115 A  
BRANCH  27  28
HETATM   28  C   UNL     1      -8.333   3.512  68.041  1.00  0.00    -0.084 A  
HETATM   29  N   UNL     1      -9.160   3.088  69.021  1.00  0.00    -0.130 NA 
HETATM   30  N   UNL     1      -8.477   3.491  70.101  1.00  0.00    -0.058 NA 
HETATM   31  H   UNL     1      -8.818   3.326  71.048  1.00  0.00     0.000 HD 
HETATM   32  N   UNL     1      -7.323   4.120  69.865  1.00  0.00    -0.049 NA 
HETATM   33  N   UNL     1      -7.236   4.172  68.543  1.00  0.00    -0.055 NA 
ENDBRANCH  27  28
ENDBRANCH  19  22
ENDBRANCH  15  16
ENDBRANCH  11  15
ENDBRANCH   4   5
ENDBRANCH   3   4
ENDBRANCH   2   3
TORSDOF 7
ENDMDL
MODEL      172
REMARK 921   NORMALIZED FREE ENERGY PREDICTED BY IDOCK:   -4.55 KCAL/MOL
REMARK 922        TOTAL FREE ENERGY PREDICTED BY IDOCK:   -8.36 KCAL/MOL
REMARK 923 INTER-LIGAND FREE ENERGY PREDICTED BY IDOCK:   -6.91 KCAL/MOL
REMARK 924 INTRA-LIGAND FREE ENERGY PREDICTED BY IDOCK:   -1.45 KCAL/MOL
REMARK 927      BINDING AFFINITY PREDICTED BY RF-SCORE:    0.00 PKD
ROOT
HETATM    1  C   UNL     1     -11.193   6.494  66.948  1.00  0.00    -0.205 C  
HETATM    2  C   UNL     1      -9.862   5.834  66.653  1.00  0.00    -0.194 C  
ENDROOT
BRANCH   2   3
HETATM    3  C   UNL     1      -8.699   6.780  66.936  1.00  0.00    -0.117 C  
BRANCH   3   4
HETATM    4  C   UNL     1      -7.609   6.109  67.763  1.00  0.00    -0.097 C  
BRANCH   4   5
HETATM    5  C   UNL     1      -8.021   6.034  69.206  1.00  0.00    -0.103 C  
HETATM    6  N   UNL     1      -8.594   4.954  69.648  1.00  0.00    -0.082 NA 
HETATM    7  C   UNL     1      -8.790   5.199  71.098  1.00  0.00    -0.134 C  
HETATM    8  C   UNL     1      -8.483   6.680  71.242  1.00  0.00    -0.125 C  
HETATM    9  C   UNL     1      -7.778   4.367  71.894  1.00  0.00    -0.084 C  
HETATM   10  O   UNL     1      -8.757   7.401  72.189  1.00  0.00    -0.115 OA 
HETATM   11  N   UNL     1      -7.830   7.033  70.088  1.00  0.00    -0.107 N  
HETATM   12  C   UNL     1      -8.529   4.021  73.169  1.00  0.00    -0.093 C  
HETATM   13  C   UNL     1      -9.932   3.725  72.667  1.00  0.00    -0.220 C  
HETATM   14  C   UNL     1     -10.176   4.755  71.563  1.00  0.00    -0.246 C  
BRANCH  11  15
HETATM   15  C   UNL     1      -7.218   8.349  69.920  1.00  0.00    -0.055 C  
BRANCH  15  16
HETATM   16  C   UNL     1      -8.217   9.395  69.459  1.00  0.00    -0.124 A  
HETATM   17  C   UNL     1      -9.577   9.102  69.369  1.00  0.00    -0.165 A  
HETATM   18  C   UNL     1     -10.456   9.968  68.702  1.00  0.00    -0.228 A  
HETATM   19  C   UNL     1     -10.028  11.195  68.158  1.00  0.00    -0.189 A  
HETATM   20  C   UNL     1      -8.710  11.567  68.457  1.00  0.00    -0.138 A  
HETATM   21  C   UNL     1      -7.803  10.666  69.044  1.00  0.00    -0.137 A  
BRANCH  19  22
HETATM   22  C   UNL     1     -10.936  11.993  67.265  1.00  0.00    -0.313 A  
HETATM   23  C   UNL     1     -11.036  11.625  65.898  1.00  0.00    -0.320 A  
HETATM   24  C   UNL     1     -11.758  12.371  64.958  1.00  0.00    -0.420 A  
HETATM   25  C   UNL     1     -12.450  13.499  65.357  1.00  0.00    -0.540 A  
HETATM   26  C   UNL     1     -12.415  13.877  66.695  1.00  0.00    -0.313 A  
HETATM   27  C   UNL     1     -11.657  13.157  67.657  1.00  0.00    -0.392 A  
BRANCH  27  28
HETATM   28  C   UNL     1     -11.660  13.730  69.002  1.00  0.00    -0.313 A  
HETATM   29  N   UNL     1     -10.997  14.859  69.332  1.00  0.00    -0.262 NA 
HETATM   30  N   UNL     1     -11.283  14.931  70.639  1.00  0.00    -0.452 NA 
HETATM   31  H   UNL     1     -10.936  15.689  71.227  1.00  0.00     0.000 HD 
HETATM   32  N   UNL     1     -12.049  13.953  71.127  1.00  0.00    -0.309 NA 
HETATM   33  N   UNL     1     -12.270  13.154  70.092  1.00  0.00    -0.318 NA 
ENDBRANCH  27  28
ENDBRANCH  19  22
ENDBRANCH  15  16
ENDBRANCH  11  15
ENDBRANCH   4   5
ENDBRANCH   3   4
ENDBRANCH   2   3
TORSDOF 7
ENDMDL
MODEL      173
REMARK 921   NORMALIZED FREE ENERGY PREDICTED BY IDOCK:   -4.50 KCAL/MOL
REMARK 922        TOTAL FREE ENERGY PREDICTED BY IDOCK:   -8.30 KCAL/MOL
REMARK 923 INTER-LIGAND FREE ENERGY PREDICTED BY IDOCK:   -7.28 KCAL/MOL
REMARK 924 INTRA-LIGAND FREE ENERGY PREDICTED BY IDOCK:   -1.01 KCAL/MOL
REMARK 927      BINDING AFFINITY PREDICTED BY RF-SCORE:    0.00 PKD
ROOT
HETATM    1  C   UNL     1      -9.190  10.788  62.377  1.00  0.00    -0.307 C  
HETATM    2  C   UNL     1      -9.819  11.314  63.651  1.00  0.00    -0.377 C  
ENDROOT
BRANCH   2   3
HETATM    3  C   UNL     1      -9.657  10.324  64.800  1.00  0.00    -0.369 C  
BRANCH   3   4
HETATM    4  C   UNL     1     -10.457  10.743  66.029  1.00  0.00    -0.273 C  
BRANCH   4   5
HETATM    5  C   UNL     1      -9.958  12.061  66.551  1.00  0.00    -0.204 C  
HETATM    6  N   UNL     1     -10.704  13.117  66.426  1.00  0.00    -0.282 NA 
HETATM    7  C   UNL     1      -9.944  14.197  67.104  1.00  0.00    -0.255 C  
HETATM    8  C   UNL     1      -8.580  13.567  67.331  1.00  0.00    -0.208 C  
HETATM    9  C   UNL     1     -10.611  14.519  68.446  1.00  0.00    -0.244 C  
HETATM   10  O   UNL     1      -7.541  14.142  67.617  1.00  0.00    -0.149 OA 
HETATM   11  N   UNL     1      -8.764  12.219  67.153  1.00  0.00    -0.186 N  
HETATM   12  C   UNL     1     -10.362  16.009  68.616  1.00  0.00    -0.241 C  
HETATM   13  C   UNL     1     -10.568  16.550  67.211  1.00  0.00    -0.285 C  
HETATM   14  C   UNL     1      -9.956  15.491  66.292  1.00  0.00    -0.313 C  
BRANCH  11  15
HETATM   15  C   UNL     1      -7.712  11.251  67.455  1.00  0.00    -0.128 C  
BRANCH  15  16
HETATM   16  C   UNL     1      -7.893  10.611  68.820  1.00  0.00    -0.125 A  
HETATM   17  C   UNL     1      -6.806  10.089  69.521  1.00  0.00    -0.071 A  
HETATM   18  C   UNL     1      -7.001   9.273  70.644  1.00  0.00    -0.101 A  
HETATM   19  C   UNL     1      -8.285   9.000  71.158  1.00  0.00    -0.198 A  
HETATM   20  C   UNL     1      -9.339   9.715  70.572  1.00  0.00    -0.227 A  
HETATM   21  C   UNL     1      -9.162  10.460  69.392  1.00  0.00    -0.177 A  
BRANCH  19  22
HETATM   22  C   UNL     1      -8.477   7.954  72.220  1.00  0.00    -0.185 A  
HETATM   23  C   UNL     1      -7.592   7.945  73.329  1.00  0.00    -0.169 A  
HETATM   24  C   UNL     1      -7.609   6.946  74.310  1.00  0.00    -0.118 A  
HETATM   25  C   UNL     1      -8.547   5.932  74.246  1.00  0.00    -0.115 A  
HETATM   26  C   UNL     1      -9.463   5.923  73.199  1.00  0.00    -0.143 A  
HETATM   27  C   UNL     1      -9.438   6.903  72.173  1.00  0.00    -0.148 A  
BRANCH  27  28
HETATM   28  C   UNL     1     -10.414   6.705  71.103  1.00  0.00    -0.217 A  
HETATM   29  N   UNL     1     -11.675   7.186  71.147  1.00  0.00    -0.297 NA 
HETATM   30  N   UNL     1     -12.150   6.718  69.984  1.00  0.00    -0.638 NA 
HETATM   31  H   UNL     1     -13.105   6.901  69.679  1.00  0.00     0.000 HD 
HETATM   32  N   UNL     1     -11.299   5.999  69.250  1.00  0.00    -0.324 NA 
HETATM   33  N   UNL     1     -10.189   5.953  69.974  1.00  0.00    -0.206 NA 
ENDBRANCH  27  28
ENDBRANCH  19  22
ENDBRANCH  15  16
ENDBRANCH  11  15
ENDBRANCH   4   5
ENDBRANCH   3   4
ENDBRANCH   2   3
TORSDOF 7
ENDMDL
MODEL      174
REMARK 921   NORMALIZED FREE ENERGY PREDICTED BY IDOCK:   -4.42 KCAL/MOL
REMARK 922        TOTAL FREE ENERGY PREDICTED BY IDOCK:   -8.18 KCAL/MOL
REMARK 923 INTER-LIGAND FREE ENERGY PREDICTED BY IDOCK:   -7.05 KCAL/MOL
REMARK 924 INTRA-LIGAND FREE ENERGY PREDICTED BY IDOCK:   -1.13 KCAL/MOL
REMARK 927      BINDING AFFINITY PREDICTED BY RF-SCORE:    0.00 PKD
ROOT
HETATM    1  C   UNL     1      -8.782   3.171  65.936  1.00  0.00    -0.129 C  
HETATM    2  C   UNL     1      -9.421   4.341  66.656  1.00  0.00    -0.201 C  
ENDROOT
BRANCH   2   3
HETATM    3  C   UNL     1      -9.076   5.664  65.978  1.00  0.00    -0.164 C  
BRANCH   3   4
HETATM    4  C   UNL     1     -10.049   6.772  66.367  1.00  0.00    -0.048 C  
BRANCH   4   5
HETATM    5  C   UNL     1      -9.980   7.031  67.845  1.00  0.00    -0.154 C  
HETATM    6  N   UNL     1     -10.867   6.493  68.627  1.00  0.00    -0.278 NA 
HETATM    7  C   UNL     1     -10.456   6.893  69.995  1.00  0.00    -0.207 C  
HETATM    8  C   UNL     1      -9.392   7.947  69.740  1.00  0.00    -0.153 C  
HETATM    9  C   UNL     1      -9.846   5.685  70.714  1.00  0.00    -0.239 C  
HETATM   10  O   UNL     1      -8.945   8.753  70.542  1.00  0.00    -0.149 OA 
HETATM   11  N   UNL     1      -9.036   7.798  68.423  1.00  0.00    -0.133 N  
HETATM   12  C   UNL     1     -10.238   5.902  72.167  1.00  0.00    -0.231 C  
HETATM   13  C   UNL     1     -11.663   6.421  72.059  1.00  0.00    -0.376 C  
HETATM   14  C   UNL     1     -11.651   7.340  70.836  1.00  0.00    -0.331 C  
BRANCH  11  15
HETATM   15  C   UNL     1      -7.910   8.525  67.842  1.00  0.00    -0.103 C  
BRANCH  15  16
HETATM   16  C   UNL     1      -8.249   9.975  67.548  1.00  0.00    -0.114 A  
HETATM   17  C   UNL     1      -7.639  11.014  68.247  1.00  0.00    -0.106 A  
HETATM   18  C   UNL     1      -8.134  12.324  68.166  1.00  0.00    -0.158 A  
HETATM   19  C   UNL     1      -9.217  12.664  67.330  1.00  0.00    -0.195 A  
HETATM   20  C   UNL     1      -9.665  11.650  66.472  1.00  0.00    -0.227 A  
HETATM   21  C   UNL     1      -9.235  10.318  66.614  1.00  0.00    -0.179 A  
BRANCH  19  22
HETATM   22  C   UNL     1      -9.863  14.018  67.427  1.00  0.00    -0.240 A  
HETATM   23  C   UNL     1      -9.373  15.063  66.602  1.00  0.00    -0.290 A  
HETATM   24  C   UNL     1      -9.822  16.385  66.698  1.00  0.00    -0.272 A  
HETATM   25  C   UNL     1     -10.818  16.711  67.600  1.00  0.00    -0.258 A  
HETATM   26  C   UNL     1     -11.359  15.711  68.402  1.00  0.00    -0.365 A  
HETATM   27  C   UNL     1     -10.890  14.372  68.348  1.00  0.00    -0.256 A  
BRANCH  27  28
HETATM   28  C   UNL     1     -11.505  13.461  69.312  1.00  0.00    -0.290 A  
HETATM   29  N   UNL     1     -11.837  13.822  70.571  1.00  0.00    -0.269 NA 
HETATM   30  N   UNL     1     -12.315  12.659  71.034  1.00  0.00    -0.379 NA 
HETATM   31  H   UNL     1     -12.672  12.562  71.984  1.00  0.00     0.000 HD 
HETATM   32  N   UNL     1     -12.298  11.635  70.178  1.00  0.00    -0.252 NA 
HETATM   33  N   UNL     1     -11.747  12.128  69.078  1.00  0.00    -0.306 NA 
ENDBRANCH  27  28
ENDBRANCH  19  22
ENDBRANCH  15  16
ENDBRANCH  11  15
ENDBRANCH   4   5
ENDBRANCH   3   4
ENDBRANCH   2   3
TORSDOF 7
ENDMDL
MODEL      175
REMARK 921   NORMALIZED FREE ENERGY PREDICTED BY IDOCK:   -4.42 KCAL/MOL
REMARK 922        TOTAL FREE ENERGY PREDICTED BY IDOCK:   -8.18 KCAL/MOL
REMARK 923 INTER-LIGAND FREE ENERGY PREDICTED BY IDOCK:   -7.05 KCAL/MOL
REMARK 924 INTRA-LIGAND FREE ENERGY PREDICTED BY IDOCK:   -1.13 KCAL/MOL
REMARK 927      BINDING AFFINITY PREDICTED BY RF-SCORE:    0.00 PKD
ROOT
HETATM    1  C   UNL     1     -10.666  19.061  65.931  1.00  0.00    -0.404 C  
HETATM    2  C   UNL     1     -10.785  17.621  65.475  1.00  0.00    -0.037 C  
ENDROOT
BRANCH   2   3
HETATM    3  C   UNL     1     -10.409  16.653  66.593  1.00  0.00    -0.296 C  
BRANCH   3   4
HETATM    4  C   UNL     1      -8.997  16.105  66.419  1.00  0.00    -0.353 C  
BRANCH   4   5
HETATM    5  C   UNL     1      -8.044  16.821  67.334  1.00  0.00    -0.170 C  
HETATM    6  N   UNL     1      -7.477  17.918  66.930  1.00  0.00    -0.192 NA 
HETATM    7  C   UNL     1      -6.678  18.379  68.092  1.00  0.00    -0.222 C  
HETATM    8  C   UNL     1      -6.718  17.187  69.032  1.00  0.00    -0.227 C  
HETATM    9  C   UNL     1      -7.370  19.586  68.735  1.00  0.00    -0.393 C  
HETATM   10  O   UNL     1      -5.996  16.984  69.997  1.00  0.00    -0.232 OA 
HETATM   11  N   UNL     1      -7.737  16.391  68.573  1.00  0.00    -0.184 N  
HETATM   12  C   UNL     1      -6.212  20.424  69.252  1.00  0.00    -0.335 C  
HETATM   13  C   UNL     1      -5.183  20.303  68.140  1.00  0.00    -0.219 C  
HETATM   14  C   UNL     1      -5.288  18.851  67.669  1.00  0.00    -0.168 C  
BRANCH  11  15
HETATM   15  C   UNL     1      -8.200  15.224  69.319  1.00  0.00    -0.244 C  
BRANCH  15  16
HETATM   16  C   UNL     1      -8.257  13.974  68.458  1.00  0.00    -0.136 A  
HETATM   17  C   UNL     1      -9.465  13.325  68.209  1.00  0.00    -0.209 A  
HETATM   18  C   UNL     1      -9.487  12.042  67.643  1.00  0.00    -0.185 A  
HETATM   19  C   UNL     1      -8.310  11.381  67.238  1.00  0.00    -0.149 A  
HETATM   20  C   UNL     1      -7.135  12.144  67.292  1.00  0.00    -0.144 A  
HETATM   21  C   UNL     1      -7.093  13.392  67.941  1.00  0.00    -0.137 A  
BRANCH  19  22
HETATM   22  C   UNL     1      -8.344   9.932  66.842  1.00  0.00    -0.124 A  
HETATM   23  C   UNL     1      -7.937   8.960  67.793  1.00  0.00    -0.102 A  
HETATM   24  C   UNL     1      -7.818   7.599  67.489  1.00  0.00    -0.119 A  
HETATM   25  C   UNL     1      -8.145   7.143  66.225  1.00  0.00    -0.118 A  
HETATM   26  C   UNL     1      -8.589   8.053  65.271  1.00  0.00    -0.112 A  
HETATM   27  C   UNL     1      -8.679   9.443  65.546  1.00  0.00    -0.190 A  
BRANCH  27  28
HETATM   28  C   UNL     1      -9.084  10.274  64.414  1.00  0.00    -0.239 A  
HETATM   29  N   UNL     1     -10.314  10.817  64.291  1.00  0.00    -0.366 NA 
HETATM   30  N   UNL     1     -10.187  11.433  63.108  1.00  0.00    -0.574 NA 
HETATM   31  H   UNL     1     -10.950  11.966  62.692  1.00  0.00     0.000 HD 
HETATM   32  N   UNL     1      -9.002  11.307  62.506  1.00  0.00    -0.310 NA 
HETATM   33  N   UNL     1      -8.295  10.535  63.318  1.00  0.00    -0.158 NA 
ENDBRANCH  27  28
ENDBRANCH  19  22
ENDBRANCH  15  16
ENDBRANCH  11  15
ENDBRANCH   4   5
ENDBRANCH   3   4
ENDBRANCH   2   3
TORSDOF 7
ENDMDL
MODEL      176
REMARK 921   NORMALIZED FREE ENERGY PREDICTED BY IDOCK:   -4.41 KCAL/MOL
REMARK 922        TOTAL FREE ENERGY PREDICTED BY IDOCK:   -8.17 KCAL/MOL
REMARK 923 INTER-LIGAND FREE ENERGY PREDICTED BY IDOCK:   -7.12 KCAL/MOL
REMARK 924 INTRA-LIGAND FREE ENERGY PREDICTED BY IDOCK:   -1.05 KCAL/MOL
REMARK 927      BINDING AFFINITY PREDICTED BY RF-SCORE:    0.00 PKD
ROOT
HETATM    1  C   UNL     1      -8.020   5.760  65.263  1.00  0.00    -0.120 C  
HETATM    2  C   UNL     1      -6.608   6.249  65.509  1.00  0.00    -0.047 C  
ENDROOT
BRANCH   2   3
HETATM    3  C   UNL     1      -6.350   6.474  66.996  1.00  0.00    -0.041 C  
BRANCH   3   4
HETATM    4  C   UNL     1      -7.025   7.743  67.504  1.00  0.00    -0.078 C  
BRANCH   4   5
HETATM    5  C   UNL     1      -7.871   7.438  68.708  1.00  0.00    -0.121 C  
HETATM    6  N   UNL     1      -7.292   7.151  69.836  1.00  0.00    -0.082 NA 
HETATM    7  C   UNL     1      -8.407   6.984  70.799  1.00  0.00    -0.129 C  
HETATM    8  C   UNL     1      -9.634   6.952  69.904  1.00  0.00    -0.156 C  
HETATM    9  C   UNL     1      -8.460   8.201  71.730  1.00  0.00    -0.186 C  
HETATM   10  O   UNL     1     -10.756   6.573  70.204  1.00  0.00    -0.217 OA 
HETATM   11  N   UNL     1      -9.217   7.444  68.692  1.00  0.00    -0.144 N  
HETATM   12  C   UNL     1      -8.950   7.619  73.046  1.00  0.00    -0.228 C  
HETATM   13  C   UNL     1      -8.209   6.295  73.129  1.00  0.00    -0.116 C  
HETATM   14  C   UNL     1      -8.202   5.762  71.694  1.00  0.00    -0.119 C  
BRANCH  11  15
HETATM   15  C   UNL     1     -10.157   7.730  67.612  1.00  0.00    -0.196 C  
BRANCH  15  16
HETATM   16  C   UNL     1     -10.690   9.151  67.673  1.00  0.00    -0.257 A  
HETATM   17  C   UNL     1     -10.258  10.122  66.771  1.00  0.00    -0.289 A  
HETATM   18  C   UNL     1     -10.541  11.479  66.986  1.00  0.00    -0.277 A  
HETATM   19  C   UNL     1     -11.327  11.917  68.070  1.00  0.00    -0.352 A  
HETATM   20  C   UNL     1     -11.933  10.906  68.830  1.00  0.00    -0.230 A  
HETATM   21  C   UNL     1     -11.580   9.553  68.676  1.00  0.00     0.524 A  
BRANCH  19  22
HETATM   22  C   UNL     1     -11.431  13.380  68.398  1.00  0.00    -0.351 A  
HETATM   23  C   UNL     1     -11.416  13.771  69.762  1.00  0.00    -0.267 A  
HETATM   24  C   UNL     1     -11.625  15.092  70.179  1.00  0.00    -0.326 A  
HETATM   25  C   UNL     1     -11.816  16.089  69.241  1.00  0.00    -0.264 A  
HETATM   26  C   UNL     1     -11.798  15.760  67.890  1.00  0.00     0.093 A  
HETATM   27  C   UNL     1     -11.627  14.423  67.447  1.00  0.00    -0.398 A  
BRANCH  27  28
HETATM   28  C   UNL     1     -11.713  14.234  65.999  1.00  0.00    -0.379 A  
HETATM   29  N   UNL     1     -10.642  14.271  65.178  1.00  0.00    -0.380 NA 
HETATM   30  N   UNL     1     -11.241  14.083  63.995  1.00  0.00    -0.559 NA 
HETATM   31  H   UNL     1     -10.715  14.049  63.122  1.00  0.00     0.000 HD 
HETATM   32  N   UNL     1     -12.569  13.941  64.025  1.00  0.00    -0.685 NA 
HETATM   33  N   UNL     1     -12.888  14.072  65.305  1.00  0.00    -0.744 NA 
ENDBRANCH  27  28
ENDBRANCH  19  22
ENDBRANCH  15  16
ENDBRANCH  11  15
ENDBRANCH   4   5
ENDBRANCH   3   4
ENDBRANCH   2   3
TORSDOF 7
ENDMDL
MODEL      177
REMARK 921   NORMALIZED FREE ENERGY PREDICTED BY IDOCK:   -4.41 KCAL/MOL
REMARK 922        TOTAL FREE ENERGY PREDICTED BY IDOCK:   -8.16 KCAL/MOL
REMARK 923 INTER-LIGAND FREE ENERGY PREDICTED BY IDOCK:   -7.75 KCAL/MOL
REMARK 924 INTRA-LIGAND FREE ENERGY PREDICTED BY IDOCK:   -0.41 KCAL/MOL
REMARK 927      BINDING AFFINITY PREDICTED BY RF-SCORE:    0.00 PKD
ROOT
HETATM    1  C   UNL     1     -14.341  15.441  71.737  1.00  0.00    -0.639 C  
HETATM    2  C   UNL     1     -14.356  14.035  72.303  1.00  0.00    -0.520 C  
ENDROOT
BRANCH   2   3
HETATM    3  C   UNL     1     -13.156  13.229  71.816  1.00  0.00    -0.472 C  
BRANCH   3   4
HETATM    4  C   UNL     1     -12.156  14.098  71.062  1.00  0.00    -0.411 C  
BRANCH   4   5
HETATM    5  C   UNL     1     -11.944  13.563  69.673  1.00  0.00    -0.337 C  
HETATM    6  N   UNL     1     -11.880  14.392  68.675  1.00  0.00    -0.333 NA 
HETATM    7  C   UNL     1     -11.596  13.540  67.495  1.00  0.00    -0.350 C  
HETATM    8  C   UNL     1     -11.814  12.133  68.026  1.00  0.00    -0.285 C  
HETATM    9  C   UNL     1     -10.135  13.728  67.073  1.00  0.00    -0.256 C  
HETATM   10  O   UNL     1     -11.955  11.111  67.371  1.00  0.00    -0.532 OA 
HETATM   11  N   UNL     1     -11.812  12.252  69.393  1.00  0.00    -0.315 N  
HETATM   12  C   UNL     1     -10.177  13.562  65.563  1.00  0.00    -0.308 C  
HETATM   13  C   UNL     1     -11.458  14.285  65.178  1.00  0.00    -0.351 C  
HETATM   14  C   UNL     1     -12.449  13.939  66.292  1.00  0.00    -0.454 C  
BRANCH  11  15
HETATM   15  C   UNL     1     -11.825  11.084  70.269  1.00  0.00    -0.367 C  
BRANCH  15  16
HETATM   16  C   UNL     1     -10.753  10.074  69.898  1.00  0.00    -0.328 A  
HETATM   17  C   UNL     1     -11.043   8.713  69.813  1.00  0.00    -0.073 A  
HETATM   18  C   UNL     1     -10.014   7.763  69.732  1.00  0.00    -0.189 A  
HETATM   19  C   UNL     1      -8.656   8.134  69.663  1.00  0.00    -0.131 A  
HETATM   20  C   UNL     1      -8.407   9.507  69.524  1.00  0.00    -0.145 A  
HETATM   21  C   UNL     1      -9.423  10.464  69.697  1.00  0.00    -0.118 A  
BRANCH  19  22
HETATM   22  C   UNL     1      -7.573   7.100  69.798  1.00  0.00    -0.103 A  
HETATM   23  C   UNL     1      -6.971   6.913  71.069  1.00  0.00    -0.066 A  
HETATM   24  C   UNL     1      -5.877   6.064  71.277  1.00  0.00    -0.026 A  
HETATM   25  C   UNL     1      -5.364   5.330  70.224  1.00  0.00    -0.004 A  
HETATM   26  C   UNL     1      -5.949   5.449  68.967  1.00  0.00    -0.024 A  
HETATM   27  C   UNL     1      -7.033   6.333  68.726  1.00  0.00    -0.076 A  
BRANCH  27  28
HETATM   28  C   UNL     1      -7.479   6.402  67.335  1.00  0.00    -0.088 A  
HETATM   29  N   UNL     1      -7.436   7.529  66.594  1.00  0.00    -0.090 NA 
HETATM   30  N   UNL     1      -7.969   7.083  65.449  1.00  0.00    -0.122 NA 
HETATM   31  H   UNL     1      -8.090   7.689  64.638  1.00  0.00     0.000 HD 
HETATM   32  N   UNL     1      -8.334   5.799  65.432  1.00  0.00    -0.137 NA 
HETATM   33  N   UNL     1      -8.057   5.358  66.651  1.00  0.00    -0.105 NA 
ENDBRANCH  27  28
ENDBRANCH  19  22
ENDBRANCH  15  16
ENDBRANCH  11  15
ENDBRANCH   4   5
ENDBRANCH   3   4
ENDBRANCH   2   3
TORSDOF 7
ENDMDL
MODEL      178
REMARK 921   NORMALIZED FREE ENERGY PREDICTED BY IDOCK:   -4.40 KCAL/MOL
REMARK 922        TOTAL FREE ENERGY PREDICTED BY IDOCK:   -8.15 KCAL/MOL
REMARK 923 INTER-LIGAND FREE ENERGY PREDICTED BY IDOCK:   -6.42 KCAL/MOL
REMARK 924 INTRA-LIGAND FREE ENERGY PREDICTED BY IDOCK:   -1.73 KCAL/MOL
REMARK 927      BINDING AFFINITY PREDICTED BY RF-SCORE:    0.00 PKD
ROOT
HETATM    1  C   UNL     1      -5.745  10.291  67.310  1.00  0.00    -0.045 C  
HETATM    2  C   UNL     1      -6.312  10.190  68.712  1.00  0.00    -0.048 C  
ENDROOT
BRANCH   2   3
HETATM    3  C   UNL     1      -7.356  11.273  68.967  1.00  0.00    -0.115 C  
BRANCH   3   4
HETATM    4  C   UNL     1      -8.034  11.723  67.677  1.00  0.00    -0.143 C  
BRANCH   4   5
HETATM    5  C   UNL     1      -9.107  12.731  67.977  1.00  0.00    -0.207 C  
HETATM    6  N   UNL     1      -8.773  13.963  68.219  1.00  0.00    -0.179 NA 
HETATM    7  C   UNL     1     -10.062  14.676  68.395  1.00  0.00    -0.237 C  
HETATM    8  C   UNL     1     -11.072  13.543  68.483  1.00  0.00    -0.272 C  
HETATM    9  C   UNL     1     -10.337  15.538  67.158  1.00  0.00    -0.272 C  
HETATM   10  O   UNL     1     -12.223  13.612  68.886  1.00  0.00    -0.336 OA 
HETATM   11  N   UNL     1     -10.420  12.433  68.009  1.00  0.00    -0.211 N  
HETATM   12  C   UNL     1     -11.080  16.738  67.721  1.00  0.00    -0.135 C  
HETATM   13  C   UNL     1     -10.344  17.014  69.022  1.00  0.00    -0.330 C  
HETATM   14  C   UNL     1     -10.023  15.629  69.588  1.00  0.00    -0.290 C  
BRANCH  11  15
HETATM   15  C   UNL     1     -11.117  11.171  67.775  1.00  0.00    -0.285 C  
BRANCH  15  16
HETATM   16  C   UNL     1     -10.670  10.080  68.732  1.00  0.00    -0.250 A  
HETATM   17  C   UNL     1     -10.169   8.868  68.260  1.00  0.00    -0.239 A  
HETATM   18  C   UNL     1     -10.005   7.773  69.121  1.00  0.00    -0.182 A  
HETATM   19  C   UNL     1     -10.267   7.862  70.503  1.00  0.00    -0.198 A  
HETATM   20  C   UNL     1     -10.553   9.147  70.986  1.00  0.00    -0.362 A  
HETATM   21  C   UNL     1     -10.807  10.224  70.118  1.00  0.00    -0.362 A  
BRANCH  19  22
HETATM   22  C   UNL     1     -10.294   6.626  71.358  1.00  0.00    -0.225 A  
HETATM   23  C   UNL     1     -11.529   6.227  71.932  1.00  0.00    -0.360 A  
HETATM   24  C   UNL     1     -11.641   5.164  72.837  1.00  0.00    -0.282 A  
HETATM   25  C   UNL     1     -10.523   4.424  73.172  1.00  0.00    -0.251 A  
HETATM   26  C   UNL     1      -9.297   4.751  72.602  1.00  0.00    -0.150 A  
HETATM   27  C   UNL     1      -9.154   5.849  71.713  1.00  0.00    -0.148 A  
BRANCH  27  28
HETATM   28  C   UNL     1      -7.787   6.110  71.266  1.00  0.00    -0.111 A  
HETATM   29  N   UNL     1      -6.942   6.950  71.902  1.00  0.00    -0.069 NA 
HETATM   30  N   UNL     1      -5.871   6.864  71.101  1.00  0.00    -0.035 NA 
HETATM   31  H   UNL     1      -5.014   7.383  71.289  1.00  0.00     0.000 HD 
HETATM   32  N   UNL     1      -5.993   6.059  70.043  1.00  0.00    -0.024 NA 
HETATM   33  N   UNL     1      -7.233   5.595  70.118  1.00  0.00    -0.066 NA 
ENDBRANCH  27  28
ENDBRANCH  19  22
ENDBRANCH  15  16
ENDBRANCH  11  15
ENDBRANCH   4   5
ENDBRANCH   3   4
ENDBRANCH   2   3
TORSDOF 7
ENDMDL
MODEL      179
REMARK 921   NORMALIZED FREE ENERGY PREDICTED BY IDOCK:   -4.39 KCAL/MOL
REMARK 922        TOTAL FREE ENERGY PREDICTED BY IDOCK:   -8.13 KCAL/MOL
REMARK 923 INTER-LIGAND FREE ENERGY PREDICTED BY IDOCK:   -6.64 KCAL/MOL
REMARK 924 INTRA-LIGAND FREE ENERGY PREDICTED BY IDOCK:   -1.50 KCAL/MOL
REMARK 927      BINDING AFFINITY PREDICTED BY RF-SCORE:    0.00 PKD
ROOT
HETATM    1  C   UNL     1     -11.458  14.516  64.836  1.00  0.00    -0.396 C  
HETATM    2  C   UNL     1     -11.540  13.762  66.147  1.00  0.00    -0.369 C  
ENDROOT
BRANCH   2   3
HETATM    3  C   UNL     1     -11.768  12.271  65.917  1.00  0.00    -0.451 C  
BRANCH   3   4
HETATM    4  C   UNL     1     -11.408  11.444  67.146  1.00  0.00    -0.327 C  
BRANCH   4   5
HETATM    5  C   UNL     1     -10.165  10.640  66.887  1.00  0.00    -0.223 C  
HETATM    6  N   UNL     1      -9.916  10.224  65.682  1.00  0.00    -0.269 NA 
HETATM    7  C   UNL     1      -8.602   9.544  65.782  1.00  0.00    -0.138 C  
HETATM    8  C   UNL     1      -8.380   9.444  67.281  1.00  0.00    -0.125 C  
HETATM    9  C   UNL     1      -7.524  10.428  65.143  1.00  0.00    -0.093 C  
HETATM   10  O   UNL     1      -7.570   8.736  67.861  1.00  0.00    -0.095 OA 
HETATM   11  N   UNL     1      -9.274  10.318  67.845  1.00  0.00    -0.137 N  
HETATM   12  C   UNL     1      -6.545   9.424  64.557  1.00  0.00    -0.089 C  
HETATM   13  C   UNL     1      -7.457   8.349  63.993  1.00  0.00    -0.111 C  
HETATM   14  C   UNL     1      -8.590   8.223  65.014  1.00  0.00    -0.102 C  
BRANCH  11  15
HETATM   15  C   UNL     1      -9.251  10.633  69.271  1.00  0.00    -0.104 C  
BRANCH  15  16
HETATM   16  C   UNL     1      -9.664   9.450  70.128  1.00  0.00    -0.274 A  
HETATM   17  C   UNL     1      -8.843   8.982  71.153  1.00  0.00    -0.282 A  
HETATM   18  C   UNL     1      -9.094   7.745  71.765  1.00  0.00    -0.171 A  
HETATM   19  C   UNL     1     -10.212   6.956  71.430  1.00  0.00    -0.212 A  
HETATM   20  C   UNL     1     -11.138   7.552  70.562  1.00  0.00    -0.275 A  
HETATM   21  C   UNL     1     -10.848   8.746  69.877  1.00  0.00    -0.211 A  
BRANCH  19  22
HETATM   22  C   UNL     1     -10.335   5.547  71.939  1.00  0.00    -0.270 A  
HETATM   23  C   UNL     1     -10.964   5.333  73.193  1.00  0.00    -0.362 A  
HETATM   24  C   UNL     1     -11.024   4.078  73.811  1.00  0.00    -0.326 A  
HETATM   25  C   UNL     1     -10.494   2.970  73.176  1.00  0.00    -0.256 A  
HETATM   26  C   UNL     1      -9.904   3.124  71.926  1.00  0.00    -0.238 A  
HETATM   27  C   UNL     1      -9.797   4.393  71.299  1.00  0.00    -0.260 A  
BRANCH  27  28
HETATM   28  C   UNL     1      -9.078   4.397  70.026  1.00  0.00    -0.106 A  
HETATM   29  N   UNL     1      -9.692   4.465  68.825  1.00  0.00    -0.154 NA 
HETATM   30  N   UNL     1      -8.630   4.403  68.010  1.00  0.00    -0.101 NA 
HETATM   31  H   UNL     1      -8.725   4.434  66.996  1.00  0.00     0.000 HD 
HETATM   32  N   UNL     1      -7.439   4.300  68.605  1.00  0.00    -0.059 NA 
HETATM   33  N   UNL     1      -7.716   4.259  69.901  1.00  0.00    -0.053 NA 
ENDBRANCH  27  28
ENDBRANCH  19  22
ENDBRANCH  15  16
ENDBRANCH  11  15
ENDBRANCH   4   5
ENDBRANCH   3   4
ENDBRANCH   2   3
TORSDOF 7
ENDMDL
MODEL      180
REMARK 921   NORMALIZED FREE ENERGY PREDICTED BY IDOCK:   -4.38 KCAL/MOL
REMARK 922        TOTAL FREE ENERGY PREDICTED BY IDOCK:   -8.12 KCAL/MOL
REMARK 923 INTER-LIGAND FREE ENERGY PREDICTED BY IDOCK:   -7.14 KCAL/MOL
REMARK 924 INTRA-LIGAND FREE ENERGY PREDICTED BY IDOCK:   -0.98 KCAL/MOL
REMARK 927      BINDING AFFINITY PREDICTED BY RF-SCORE:    0.00 PKD
ROOT
HETATM    1  C   UNL     1     -12.618   8.168  71.019  1.00  0.00    -0.068 C  
HETATM    2  C   UNL     1     -12.125   6.757  71.267  1.00  0.00    -0.421 C  
ENDROOT
BRANCH   2   3
HETATM    3  C   UNL     1     -10.814   6.757  72.047  1.00  0.00    -0.257 C  
BRANCH   3   4
HETATM    4  C   UNL     1     -10.330   5.342  72.344  1.00  0.00    -0.257 C  
BRANCH   4   5
HETATM    5  C   UNL     1      -9.325   4.908  71.315  1.00  0.00    -0.150 C  
HETATM    6  N   UNL     1      -9.236   3.649  71.004  1.00  0.00    -0.113 NA 
HETATM    7  C   UNL     1      -8.217   3.598  69.928  1.00  0.00    -0.052 C  
HETATM    8  C   UNL     1      -7.615   4.993  69.958  1.00  0.00    -0.060 C  
HETATM    9  C   UNL     1      -8.911   3.349  68.584  1.00  0.00    -0.183 C  
HETATM   10  O   UNL     1      -6.568   5.355  69.442  1.00  0.00    -0.043 OA 
HETATM   11  N   UNL     1      -8.495   5.758  70.681  1.00  0.00    -0.126 N  
HETATM   12  C   UNL     1      -7.896   2.526  67.808  1.00  0.00    -0.060 C  
HETATM   13  C   UNL     1      -7.340   1.587  68.867  1.00  0.00    -0.039 C  
HETATM   14  C   UNL     1      -7.238   2.443  70.131  1.00  0.00    -0.033 C  
BRANCH  11  15
HETATM   15  C   UNL     1      -8.349   7.207  70.789  1.00  0.00    -0.128 C  
BRANCH  15  16
HETATM   16  C   UNL     1      -8.682   7.918  69.489  1.00  0.00    -0.134 A  
HETATM   17  C   UNL     1      -8.067   9.121  69.147  1.00  0.00    -0.105 A  
HETATM   18  C   UNL     1      -8.556   9.904  68.092  1.00  0.00    -0.118 A  
HETATM   19  C   UNL     1      -9.637   9.487  67.289  1.00  0.00    -0.192 A  
HETATM   20  C   UNL     1     -10.090   8.179  67.510  1.00  0.00    -0.286 A  
HETATM   21  C   UNL     1      -9.666   7.428  68.622  1.00  0.00    -0.152 A  
BRANCH  19  22
HETATM   22  C   UNL     1     -10.276  10.436  66.314  1.00  0.00    -0.286 A  
HETATM   23  C   UNL     1     -10.021  10.258  64.929  1.00  0.00    -0.393 A  
HETATM   24  C   UNL     1     -10.470  11.153  63.950  1.00  0.00    -0.445 A  
HETATM   25  C   UNL     1     -11.234  12.246  64.314  1.00  0.00    -0.409 A  
HETATM   26  C   UNL     1     -11.545  12.439  65.655  1.00  0.00    -0.441 A  
HETATM   27  C   UNL     1     -11.068  11.566  66.668  1.00  0.00    -0.355 A  
BRANCH  27  28
HETATM   28  C   UNL     1     -11.415  11.954  68.034  1.00  0.00    -0.323 A  
HETATM   29  N   UNL     1     -11.051  13.129  68.591  1.00  0.00    -0.257 NA 
HETATM   30  N   UNL     1     -11.569  12.983  69.818  1.00  0.00    -0.470 NA 
HETATM   31  H   UNL     1     -11.483  13.708  70.530  1.00  0.00     0.000 HD 
HETATM   32  N   UNL     1     -12.203  11.832  70.054  1.00  0.00    -0.271 NA 
HETATM   33  N   UNL     1     -12.081  11.147  68.926  1.00  0.00    -0.519 NA 
ENDBRANCH  27  28
ENDBRANCH  19  22
ENDBRANCH  15  16
ENDBRANCH  11  15
ENDBRANCH   4   5
ENDBRANCH   3   4
ENDBRANCH   2   3
TORSDOF 7
ENDMDL
MODEL      181
REMARK 921   NORMALIZED FREE ENERGY PREDICTED BY IDOCK:   -4.36 KCAL/MOL
REMARK 922        TOTAL FREE ENERGY PREDICTED BY IDOCK:   -8.09 KCAL/MOL
REMARK 923 INTER-LIGAND FREE ENERGY PREDICTED BY IDOCK:   -7.10 KCAL/MOL
REMARK 924 INTRA-LIGAND FREE ENERGY PREDICTED BY IDOCK:   -0.99 KCAL/MOL
REMARK 927      BINDING AFFINITY PREDICTED BY RF-SCORE:    0.00 PKD
ROOT
HETATM    1  C   UNL     1      -9.007   2.445  72.285  1.00  0.00    -0.111 C  
HETATM    2  C   UNL     1      -8.986   2.907  70.843  1.00  0.00    -0.164 C  
ENDROOT
BRANCH   2   3
HETATM    3  C   UNL     1      -9.163   4.419  70.742  1.00  0.00    -0.203 C  
BRANCH   3   4
HETATM    4  C   UNL     1     -10.104   4.807  69.607  1.00  0.00    -0.275 C  
BRANCH   4   5
HETATM    5  C   UNL     1      -9.401   4.686  68.284  1.00  0.00    -0.136 C  
HETATM    6  N   UNL     1      -9.714   3.709  67.485  1.00  0.00    -0.137 NA 
HETATM    7  C   UNL     1      -8.896   3.941  66.270  1.00  0.00    -0.124 C  
HETATM    8  C   UNL     1      -7.923   5.022  66.710  1.00  0.00    -0.104 C  
HETATM    9  C   UNL     1      -9.796   4.462  65.145  1.00  0.00    -0.193 C  
HETATM   10  O   UNL     1      -6.891   5.358  66.149  1.00  0.00    -0.055 OA 
HETATM   11  N   UNL     1      -8.452   5.543  67.864  1.00  0.00    -0.099 N  
HETATM   12  C   UNL     1      -9.163   3.887  63.888  1.00  0.00    -0.137 C  
HETATM   13  C   UNL     1      -8.767   2.485  64.320  1.00  0.00    -0.097 C  
HETATM   14  C   UNL     1      -8.267   2.646  65.757  1.00  0.00    -0.087 C  
BRANCH  11  15
HETATM   15  C   UNL     1      -7.888   6.730  68.503  1.00  0.00    -0.118 C  
BRANCH  15  16
HETATM   16  C   UNL     1      -8.667   7.990  68.168  1.00  0.00    -0.126 A  
HETATM   17  C   UNL     1     -10.060   7.982  68.112  1.00  0.00    -0.234 A  
HETATM   18  C   UNL     1     -10.762   9.060  67.553  1.00  0.00    -0.239 A  
HETATM   19  C   UNL     1     -10.109  10.219  67.089  1.00  0.00    -0.259 A  
HETATM   20  C   UNL     1      -8.736  10.294  67.361  1.00  0.00    -0.128 A  
HETATM   21  C   UNL     1      -8.015   9.183  67.837  1.00  0.00    -0.101 A  
BRANCH  19  22
HETATM   22  C   UNL     1     -10.859  11.256  66.300  1.00  0.00    -0.296 A  
HETATM   23  C   UNL     1     -10.817  11.189  64.883  1.00  0.00    -0.261 A  
HETATM   24  C   UNL     1     -11.380  12.169  64.057  1.00  0.00    -0.468 A  
HETATM   25  C   UNL     1     -12.050  13.241  64.616  1.00  0.00    -0.458 A  
HETATM   26  C   UNL     1     -12.152  13.328  66.000  1.00  0.00    -0.491 A  
HETATM   27  C   UNL     1     -11.555  12.366  66.858  1.00  0.00    -0.437 A  
BRANCH  27  28
HETATM   28  C   UNL     1     -11.684  12.645  68.287  1.00  0.00    -0.342 A  
HETATM   29  N   UNL     1     -12.105  11.733  69.189  1.00  0.00    -0.274 NA 
HETATM   30  N   UNL     1     -12.080  12.472  70.306  1.00  0.00    -0.408 NA 
HETATM   31  H   UNL     1     -12.342  12.087  71.213  1.00  0.00     0.000 HD 
HETATM   32  N   UNL     1     -11.691  13.740  70.162  1.00  0.00    -0.264 NA 
HETATM   33  N   UNL     1     -11.467  13.875  68.862  1.00  0.00    -0.279 NA 
ENDBRANCH  27  28
ENDBRANCH  19  22
ENDBRANCH  15  16
ENDBRANCH  11  15
ENDBRANCH   4   5
ENDBRANCH   3   4
ENDBRANCH   2   3
TORSDOF 7
ENDMDL
MODEL      182
REMARK 921   NORMALIZED FREE ENERGY PREDICTED BY IDOCK:   -4.29 KCAL/MOL
REMARK 922        TOTAL FREE ENERGY PREDICTED BY IDOCK:   -7.99 KCAL/MOL
REMARK 923 INTER-LIGAND FREE ENERGY PREDICTED BY IDOCK:   -6.36 KCAL/MOL
REMARK 924 INTRA-LIGAND FREE ENERGY PREDICTED BY IDOCK:   -1.63 KCAL/MOL
REMARK 927      BINDING AFFINITY PREDICTED BY RF-SCORE:    0.00 PKD
ROOT
HETATM    1  C   UNL     1     -12.547   9.442  72.300  1.00  0.00    -0.378 C  
HETATM    2  C   UNL     1     -12.162   7.986  72.131  1.00  0.00    -0.377 C  
ENDROOT
BRANCH   2   3
HETATM    3  C   UNL     1     -11.451   7.752  70.802  1.00  0.00    -0.285 C  
BRANCH   3   4
HETATM    4  C   UNL     1     -11.007   9.060  70.157  1.00  0.00    -0.256 C  
BRANCH   4   5
HETATM    5  C   UNL     1      -9.711   8.865  69.420  1.00  0.00    -0.169 C  
HETATM    6  N   UNL     1      -8.635   8.585  70.092  1.00  0.00    -0.128 NA 
HETATM    7  C   UNL     1      -7.587   8.392  69.059  1.00  0.00    -0.092 C  
HETATM    8  C   UNL     1      -8.255   8.900  67.793  1.00  0.00    -0.110 C  
HETATM    9  C   UNL     1      -7.273   6.897  68.931  1.00  0.00    -0.091 C  
HETATM   10  O   UNL     1      -7.710   9.188  66.737  1.00  0.00    -0.096 OA 
HETATM   11  N   UNL     1      -9.594   8.962  68.082  1.00  0.00    -0.143 N  
HETATM   12  C   UNL     1      -5.793   6.875  68.584  1.00  0.00    -0.018 C  
HETATM   13  C   UNL     1      -5.221   7.972  69.467  1.00  0.00    -0.026 C  
HETATM   14  C   UNL     1      -6.279   9.078  69.447  1.00  0.00    -0.040 C  
BRANCH  11  15
HETATM   15  C   UNL     1     -10.593   9.247  67.055  1.00  0.00    -0.193 C  
BRANCH  15  16
HETATM   16  C   UNL     1     -10.735  10.734  66.787  1.00  0.00    -0.291 A  
HETATM   17  C   UNL     1     -10.109  11.332  65.694  1.00  0.00    -0.295 A  
HETATM   18  C   UNL     1     -10.020  12.728  65.592  1.00  0.00    -0.249 A  
HETATM   19  C   UNL     1     -10.612  13.587  66.539  1.00  0.00    -0.281 A  
HETATM   20  C   UNL     1     -11.422  12.967  67.501  1.00  0.00    -0.386 A  
HETATM   21  C   UNL     1     -11.440  11.569  67.662  1.00  0.00    -0.357 A  
BRANCH  19  22
HETATM   22  C   UNL     1     -10.316  15.061  66.525  1.00  0.00    -0.287 A  
HETATM   23  C   UNL     1     -11.133  15.908  65.733  1.00  0.00    -0.076 A  
HETATM   24  C   UNL     1     -10.872  17.272  65.556  1.00  0.00    -0.024 A  
HETATM   25  C   UNL     1      -9.802  17.859  66.205  1.00  0.00    -0.307 A  
HETATM   26  C   UNL     1      -8.997  17.077  67.027  1.00  0.00    -0.236 A  
HETATM   27  C   UNL     1      -9.220  15.684  67.188  1.00  0.00    -0.226 A  
BRANCH  27  28
HETATM   28  C   UNL     1      -8.237  14.991  68.020  1.00  0.00    -0.137 A  
HETATM   29  N   UNL     1      -8.283  14.974  69.369  1.00  0.00    -0.181 NA 
HETATM   30  N   UNL     1      -7.180  14.261  69.636  1.00  0.00    -0.353 NA 
HETATM   31  H   UNL     1      -6.897  14.043  70.591  1.00  0.00     0.000 HD 
HETATM   32  N   UNL     1      -6.474  13.854  68.579  1.00  0.00    -0.085 NA 
HETATM   33  N   UNL     1      -7.123  14.347  67.534  1.00  0.00    -0.187 NA 
ENDBRANCH  27  28
ENDBRANCH  19  22
ENDBRANCH  15  16
ENDBRANCH  11  15
ENDBRANCH   4   5
ENDBRANCH   3   4
ENDBRANCH   2   3
TORSDOF 7
ENDMDL
MODEL      183
REMARK 921   NORMALIZED FREE ENERGY PREDICTED BY IDOCK:   -4.27 KCAL/MOL
REMARK 922        TOTAL FREE ENERGY PREDICTED BY IDOCK:   -7.97 KCAL/MOL
REMARK 923 INTER-LIGAND FREE ENERGY PREDICTED BY IDOCK:   -7.47 KCAL/MOL
REMARK 924 INTRA-LIGAND FREE ENERGY PREDICTED BY IDOCK:   -0.50 KCAL/MOL
REMARK 927      BINDING AFFINITY PREDICTED BY RF-SCORE:    0.00 PKD
ROOT
HETATM    1  C   UNL     1     -11.997  13.450  66.837  1.00  0.00    -0.437 C  
HETATM    2  C   UNL     1     -11.872  14.585  67.832  1.00  0.00    -0.370 C  
ENDROOT
BRANCH   2   3
HETATM    3  C   UNL     1     -11.269  14.104  69.149  1.00  0.00    -0.307 C  
BRANCH   3   4
HETATM    4  C   UNL     1     -10.609  15.241  69.921  1.00  0.00    -0.291 C  
BRANCH   4   5
HETATM    5  C   UNL     1     -10.008  16.237  68.969  1.00  0.00    -0.256 C  
HETATM    6  N   UNL     1     -10.785  17.082  68.360  1.00  0.00    -0.367 NA 
HETATM    7  C   UNL     1      -9.864  17.942  67.576  1.00  0.00    -0.309 C  
HETATM    8  C   UNL     1      -8.539  17.205  67.674  1.00  0.00    -0.212 C  
HETATM    9  C   UNL     1      -9.760  19.316  68.247  1.00  0.00    -0.459 C  
HETATM   10  O   UNL     1      -7.547  17.378  66.982  1.00  0.00    -0.185 OA 
HETATM   11  N   UNL     1      -8.690  16.313  68.705  1.00  0.00    -0.215 N  
HETATM   12  C   UNL     1      -9.567  20.267  67.077  1.00  0.00    -0.572 C  
HETATM   13  C   UNL     1     -10.510  19.708  66.025  1.00  0.00    -0.622 C  
HETATM   14  C   UNL     1     -10.389  18.189  66.162  1.00  0.00    -0.394 C  
BRANCH  11  15
HETATM   15  C   UNL     1      -7.568  15.533  69.221  1.00  0.00    -0.221 C  
BRANCH  15  16
HETATM   16  C   UNL     1      -7.534  14.126  68.651  1.00  0.00    -0.125 A  
HETATM   17  C   UNL     1      -8.140  13.827  67.432  1.00  0.00    -0.188 A  
HETATM   18  C   UNL     1      -8.338  12.497  67.035  1.00  0.00    -0.144 A  
HETATM   19  C   UNL     1      -7.878  11.409  67.804  1.00  0.00    -0.117 A  
HETATM   20  C   UNL     1      -7.079  11.740  68.907  1.00  0.00    -0.114 A  
HETATM   21  C   UNL     1      -6.954  13.066  69.360  1.00  0.00     0.104 A  
BRANCH  19  22
HETATM   22  C   UNL     1      -8.293  10.004  67.468  1.00  0.00    -0.118 A  
HETATM   23  C   UNL     1      -8.956   9.771  66.235  1.00  0.00    -0.180 A  
HETATM   24  C   UNL     1      -9.488   8.525  65.880  1.00  0.00    -0.207 A  
HETATM   25  C   UNL     1      -9.341   7.444  66.729  1.00  0.00    -0.202 A  
HETATM   26  C   UNL     1      -8.662   7.615  67.931  1.00  0.00    -0.124 A  
HETATM   27  C   UNL     1      -8.149   8.878  68.328  1.00  0.00    -0.109 A  
BRANCH  27  28
HETATM   28  C   UNL     1      -7.534   8.907  69.655  1.00  0.00    -0.071 A  
HETATM   29  N   UNL     1      -8.136   9.432  70.743  1.00  0.00    -0.260 NA 
HETATM   30  N   UNL     1      -7.176   9.248  71.660  1.00  0.00    -0.325 NA 
HETATM   31  H   UNL     1      -7.295   9.533  72.631  1.00  0.00     0.000 HD 
HETATM   32  N   UNL     1      -6.054   8.669  71.226  1.00  0.00    -0.042 NA 
HETATM   33  N   UNL     1      -6.257   8.477  69.930  1.00  0.00    -0.031 NA 
ENDBRANCH  27  28
ENDBRANCH  19  22
ENDBRANCH  15  16
ENDBRANCH  11  15
ENDBRANCH   4   5
ENDBRANCH   3   4
ENDBRANCH   2   3
TORSDOF 7
ENDMDL
MODEL      184
REMARK 921   NORMALIZED FREE ENERGY PREDICTED BY IDOCK:   -4.27 KCAL/MOL
REMARK 922        TOTAL FREE ENERGY PREDICTED BY IDOCK:   -7.96 KCAL/MOL
REMARK 923 INTER-LIGAND FREE ENERGY PREDICTED BY IDOCK:   -7.39 KCAL/MOL
REMARK 924 INTRA-LIGAND FREE ENERGY PREDICTED BY IDOCK:   -0.57 KCAL/MOL
REMARK 927      BINDING AFFINITY PREDICTED BY RF-SCORE:    0.00 PKD
ROOT
HETATM    1  C   UNL     1      -9.404   3.958  66.023  1.00  0.00    -0.173 C  
HETATM    2  C   UNL     1     -10.087   4.864  67.027  1.00  0.00    -0.243 C  
ENDROOT
BRANCH   2   3
HETATM    3  C   UNL     1      -9.539   6.287  66.954  1.00  0.00    -0.173 C  
BRANCH   3   4
HETATM    4  C   UNL     1     -10.480   7.292  67.609  1.00  0.00    -0.310 C  
BRANCH   4   5
HETATM    5  C   UNL     1      -9.851   7.862  68.849  1.00  0.00    -0.173 C  
HETATM    6  N   UNL     1     -10.137   7.340  70.005  1.00  0.00    -0.187 NA 
HETATM    7  C   UNL     1      -9.298   8.088  70.973  1.00  0.00    -0.149 C  
HETATM    8  C   UNL     1      -8.769   9.247  70.147  1.00  0.00    -0.204 C  
HETATM    9  C   UNL     1      -8.142   7.194  71.437  1.00  0.00    -0.106 C  
HETATM   10  O   UNL     1      -8.250  10.273  70.563  1.00  0.00     0.056 OA 
HETATM   11  N   UNL     1      -8.991   8.898  68.839  1.00  0.00    -0.136 N  
HETATM   12  C   UNL     1      -7.912   7.631  72.875  1.00  0.00    -0.140 C  
HETATM   13  C   UNL     1      -9.324   7.836  73.397  1.00  0.00    -0.346 C  
HETATM   14  C   UNL     1     -10.085   8.465  72.228  1.00  0.00    -0.382 C  
BRANCH  11  15
HETATM   15  C   UNL     1      -8.462   9.687  67.729  1.00  0.00    -0.125 C  
BRANCH  15  16
HETATM   16  C   UNL     1      -8.785  11.164  67.867  1.00  0.00    -0.136 A  
HETATM   17  C   UNL     1     -10.103  11.609  67.948  1.00  0.00    -0.198 A  
HETATM   18  C   UNL     1     -10.412  12.970  67.811  1.00  0.00    -0.232 A  
HETATM   19  C   UNL     1      -9.413  13.953  67.657  1.00  0.00    -0.212 A  
HETATM   20  C   UNL     1      -8.093  13.505  67.804  1.00  0.00    -0.177 A  
HETATM   21  C   UNL     1      -7.776  12.135  67.849  1.00  0.00    -0.134 A  
BRANCH  19  22
HETATM   22  C   UNL     1      -9.779  15.365  67.295  1.00  0.00    -0.212 A  
HETATM   23  C   UNL     1      -9.345  16.415  68.145  1.00  0.00    -0.209 A  
HETATM   24  C   UNL     1      -9.730  17.750  67.965  1.00  0.00    -0.304 A  
HETATM   25  C   UNL     1     -10.533  18.097  66.895  1.00  0.00    -0.372 A  
HETATM   26  C   UNL     1     -10.949  17.108  66.011  1.00  0.00     0.178 A  
HETATM   27  C   UNL     1     -10.604  15.743  66.197  1.00  0.00    -0.318 A  
BRANCH  27  28
HETATM   28  C   UNL     1     -11.187  14.818  65.227  1.00  0.00    -0.366 A  
HETATM   29  N   UNL     1     -10.454  14.091  64.357  1.00  0.00    -0.263 NA 
HETATM   30  N   UNL     1     -11.430  13.457  63.693  1.00  0.00    -0.625 NA 
HETATM   31  H   UNL     1     -11.231  12.799  62.940  1.00  0.00     0.000 HD 
HETATM   32  N   UNL     1     -12.678  13.737  64.076  1.00  0.00    -0.612 NA 
HETATM   33  N   UNL     1     -12.537  14.638  65.038  1.00  0.00    -0.402 NA 
ENDBRANCH  27  28
ENDBRANCH  19  22
ENDBRANCH  15  16
ENDBRANCH  11  15
ENDBRANCH   4   5
ENDBRANCH   3   4
ENDBRANCH   2   3
TORSDOF 7
ENDMDL
MODEL      185
REMARK 921   NORMALIZED FREE ENERGY PREDICTED BY IDOCK:   -4.23 KCAL/MOL
REMARK 922        TOTAL FREE ENERGY PREDICTED BY IDOCK:   -7.91 KCAL/MOL
REMARK 923 INTER-LIGAND FREE ENERGY PREDICTED BY IDOCK:   -6.91 KCAL/MOL
REMARK 924 INTRA-LIGAND FREE ENERGY PREDICTED BY IDOCK:   -1.00 KCAL/MOL
REMARK 927      BINDING AFFINITY PREDICTED BY RF-SCORE:    0.00 PKD
ROOT
HETATM    1  C   UNL     1      -6.376   7.133  65.946  1.00  0.00    -0.044 C  
HETATM    2  C   UNL     1      -6.877   7.943  64.767  1.00  0.00    -0.055 C  
ENDROOT
BRANCH   2   3
HETATM    3  C   UNL     1      -7.628   9.188  65.228  1.00  0.00    -0.098 C  
BRANCH   3   4
HETATM    4  C   UNL     1      -8.939   9.373  64.473  1.00  0.00    -0.227 C  
BRANCH   4   5
HETATM    5  C   UNL     1      -9.780  10.427  65.138  1.00  0.00    -0.291 C  
HETATM    6  N   UNL     1      -9.837  11.616  64.618  1.00  0.00    -0.243 NA 
HETATM    7  C   UNL     1     -10.796  12.355  65.475  1.00  0.00    -0.281 C  
HETATM    8  C   UNL     1     -10.982  11.427  66.663  1.00  0.00    -0.285 C  
HETATM    9  C   UNL     1     -12.120  12.527  64.722  1.00  0.00    -0.497 C  
HETATM   10  O   UNL     1     -11.469  11.707  67.748  1.00  0.00    -0.284 OA 
HETATM   11  N   UNL     1     -10.494  10.210  66.259  1.00  0.00    -0.167 N  
HETATM   12  C   UNL     1     -12.638  13.867  65.217  1.00  0.00    -0.508 C  
HETATM   13  C   UNL     1     -11.378  14.714  65.284  1.00  0.00    -0.354 C  
HETATM   14  C   UNL     1     -10.296  13.763  65.798  1.00  0.00    -0.315 C  
BRANCH  11  15
HETATM   15  C   UNL     1     -10.652   9.007  67.071  1.00  0.00    -0.200 C  
BRANCH  15  16
HETATM   16  C   UNL     1      -9.876   9.086  68.374  1.00  0.00    -0.183 A  
HETATM   17  C   UNL     1      -8.492   8.927  68.399  1.00  0.00    -0.129 A  
HETATM   18  C   UNL     1      -7.812   8.737  69.611  1.00  0.00    -0.090 A  
HETATM   19  C   UNL     1      -8.476   8.767  70.854  1.00  0.00    -0.209 A  
HETATM   20  C   UNL     1      -9.824   9.150  70.815  1.00  0.00    -0.334 A  
HETATM   21  C   UNL     1     -10.529   9.251  69.602  1.00  0.00    -0.234 A  
BRANCH  19  22
HETATM   22  C   UNL     1      -7.766   8.345  72.111  1.00  0.00    -0.159 A  
HETATM   23  C   UNL     1      -6.484   8.891  72.380  1.00  0.00     0.019 A  
HETATM   24  C   UNL     1      -5.690   8.477  73.456  1.00  0.00    -0.095 A  
HETATM   25  C   UNL     1      -6.166   7.526  74.339  1.00  0.00    -0.081 A  
HETATM   26  C   UNL     1      -7.435   6.993  74.140  1.00  0.00    -0.117 A  
HETATM   27  C   UNL     1      -8.241   7.369  73.033  1.00  0.00    -0.139 A  
BRANCH  27  28
HETATM   28  C   UNL     1      -9.513   6.657  72.922  1.00  0.00    -0.138 A  
HETATM   29  N   UNL     1     -10.575   6.902  73.718  1.00  0.00    -0.359 NA 
HETATM   30  N   UNL     1     -11.441   5.994  73.247  1.00  0.00    -0.443 NA 
HETATM   31  H   UNL     1     -12.382   5.898  73.628  1.00  0.00     0.000 HD 
HETATM   32  N   UNL     1     -11.000   5.224  72.250  1.00  0.00    -0.214 NA 
HETATM   33  N   UNL     1      -9.749   5.616  72.055  1.00  0.00    -0.154 NA 
ENDBRANCH  27  28
ENDBRANCH  19  22
ENDBRANCH  15  16
ENDBRANCH  11  15
ENDBRANCH   4   5
ENDBRANCH   3   4
ENDBRANCH   2   3
TORSDOF 7
ENDMDL
MODEL      186
REMARK 921   NORMALIZED FREE ENERGY PREDICTED BY IDOCK:   -4.22 KCAL/MOL
REMARK 922        TOTAL FREE ENERGY PREDICTED BY IDOCK:   -7.90 KCAL/MOL
REMARK 923 INTER-LIGAND FREE ENERGY PREDICTED BY IDOCK:   -6.81 KCAL/MOL
REMARK 924 INTRA-LIGAND FREE ENERGY PREDICTED BY IDOCK:   -1.09 KCAL/MOL
REMARK 927      BINDING AFFINITY PREDICTED BY RF-SCORE:    0.00 PKD
ROOT
HETATM    1  C   UNL     1     -10.807  11.802  62.966  1.00  0.00    -0.144 C  
HETATM    2  C   UNL     1     -12.268  11.796  63.369  1.00  0.00    -0.461 C  
ENDROOT
BRANCH   2   3
HETATM    3  C   UNL     1     -12.457  12.346  64.779  1.00  0.00    -0.480 C  
BRANCH   3   4
HETATM    4  C   UNL     1     -11.588  13.572  65.032  1.00  0.00    -0.345 C  
BRANCH   4   5
HETATM    5  C   UNL     1     -11.325  13.731  66.503  1.00  0.00    -0.325 C  
HETATM    6  N   UNL     1     -12.078  14.525  67.202  1.00  0.00    -0.351 NA 
HETATM    7  C   UNL     1     -11.589  14.380  68.595  1.00  0.00    -0.314 C  
HETATM    8  C   UNL     1     -10.293  13.606  68.425  1.00  0.00    -0.248 C  
HETATM    9  C   UNL     1     -12.598  13.556  69.403  1.00  0.00     0.217 C  
HETATM   10  O   UNL     1      -9.401  13.472  69.249  1.00  0.00     0.392 OA 
HETATM   11  N   UNL     1     -10.339  13.086  67.156  1.00  0.00    -0.242 N  
HETATM   12  C   UNL     1     -12.496  14.144  70.801  1.00  0.00    -0.436 C  
HETATM   13  C   UNL     1     -12.367  15.635  70.534  1.00  0.00    -0.443 C  
HETATM   14  C   UNL     1     -11.473  15.733  69.296  1.00  0.00    -0.368 C  
BRANCH  11  15
HETATM   15  C   UNL     1      -9.342  12.133  66.677  1.00  0.00    -0.226 C  
BRANCH  15  16
HETATM   16  C   UNL     1      -9.411  10.807  67.414  1.00  0.00    -0.163 A  
HETATM   17  C   UNL     1     -10.429   9.891  67.156  1.00  0.00    -0.305 A  
HETATM   18  C   UNL     1     -10.646   8.799  68.008  1.00  0.00    -0.218 A  
HETATM   19  C   UNL     1      -9.814   8.535  69.114  1.00  0.00    -0.186 A  
HETATM   20  C   UNL     1      -8.670   9.339  69.220  1.00  0.00    -0.141 A  
HETATM   21  C   UNL     1      -8.497  10.487  68.426  1.00  0.00    -0.128 A  
BRANCH  19  22
HETATM   22  C   UNL     1     -10.197   7.495  70.129  1.00  0.00    -0.206 A  
HETATM   23  C   UNL     1     -11.425   7.646  70.823  1.00  0.00    -0.295 A  
HETATM   24  C   UNL     1     -11.819   6.801  71.869  1.00  0.00    -0.366 A  
HETATM   25  C   UNL     1     -11.016   5.738  72.236  1.00  0.00    -0.314 A  
HETATM   26  C   UNL     1      -9.822   5.525  71.556  1.00  0.00    -0.221 A  
HETATM   27  C   UNL     1      -9.384   6.392  70.521  1.00  0.00    -0.169 A  
BRANCH  27  28
HETATM   28  C   UNL     1      -8.070   6.078  69.963  1.00  0.00    -0.114 A  
HETATM   29  N   UNL     1      -7.811   6.045  68.639  1.00  0.00    -0.099 NA 
HETATM   30  N   UNL     1      -6.519   5.688  68.656  1.00  0.00    -0.041 NA 
HETATM   31  H   UNL     1      -5.981   5.568  67.799  1.00  0.00     0.000 HD 
HETATM   32  N   UNL     1      -5.980   5.497  69.862  1.00  0.00    -0.020 NA 
HETATM   33  N   UNL     1      -6.975   5.711  70.711  1.00  0.00    -0.056 NA 
ENDBRANCH  27  28
ENDBRANCH  19  22
ENDBRANCH  15  16
ENDBRANCH  11  15
ENDBRANCH   4   5
ENDBRANCH   3   4
ENDBRANCH   2   3
TORSDOF 7
ENDMDL
MODEL      187
REMARK 921   NORMALIZED FREE ENERGY PREDICTED BY IDOCK:   -4.21 KCAL/MOL
REMARK 922        TOTAL FREE ENERGY PREDICTED BY IDOCK:   -7.87 KCAL/MOL
REMARK 923 INTER-LIGAND FREE ENERGY PREDICTED BY IDOCK:   -7.25 KCAL/MOL
REMARK 924 INTRA-LIGAND FREE ENERGY PREDICTED BY IDOCK:   -0.63 KCAL/MOL
REMARK 927      BINDING AFFINITY PREDICTED BY RF-SCORE:    0.00 PKD
ROOT
HETATM    1  C   UNL     1     -10.478   4.772  74.158  1.00  0.00    -0.335 C  
HETATM    2  C   UNL     1      -9.514   5.790  73.581  1.00  0.00    -0.139 C  
ENDROOT
BRANCH   2   3
HETATM    3  C   UNL     1     -10.024   6.345  72.254  1.00  0.00    -0.178 C  
BRANCH   3   4
HETATM    4  C   UNL     1      -9.677   7.820  72.085  1.00  0.00    -0.240 C  
BRANCH   4   5
HETATM    5  C   UNL     1      -8.985   8.045  70.770  1.00  0.00    -0.144 C  
HETATM    6  N   UNL     1      -7.687   8.042  70.726  1.00  0.00    -0.080 NA 
HETATM    7  C   UNL     1      -7.359   8.216  69.289  1.00  0.00    -0.077 C  
HETATM    8  C   UNL     1      -8.696   8.590  68.674  1.00  0.00    -0.139 C  
HETATM    9  C   UNL     1      -6.866   6.882  68.717  1.00  0.00    -0.066 C  
HETATM   10  O   UNL     1      -8.889   9.084  67.573  1.00  0.00    -0.123 OA 
HETATM   11  N   UNL     1      -9.640   8.252  69.612  1.00  0.00    -0.167 N  
HETATM   12  C   UNL     1      -5.848   7.301  67.669  1.00  0.00    -0.030 C  
HETATM   13  C   UNL     1      -5.128   8.459  68.340  1.00  0.00    -0.033 C  
HETATM   14  C   UNL     1      -6.225   9.220  69.087  1.00  0.00    -0.042 C  
BRANCH  11  15
HETATM   15  C   UNL     1     -11.070   8.305  69.320  1.00  0.00     0.162 C  
BRANCH  15  16
HETATM   16  C   UNL     1     -11.696   9.622  69.741  1.00  0.00     0.057 A  
HETATM   17  C   UNL     1     -11.676  10.732  68.898  1.00  0.00    -0.338 A  
HETATM   18  C   UNL     1     -12.012  12.006  69.379  1.00  0.00    -0.334 A  
HETATM   19  C   UNL     1     -12.449  12.215  70.702  1.00  0.00    -0.330 A  
HETATM   20  C   UNL     1     -12.674  11.057  71.459  1.00  0.00    -0.521 A  
HETATM   21  C   UNL     1     -12.253   9.790  71.015  1.00  0.00    -0.436 A  
BRANCH  19  22
HETATM   22  C   UNL     1     -12.591  13.608  71.250  1.00  0.00    -0.435 A  
HETATM   23  C   UNL     1     -13.360  13.797  72.427  1.00  0.00    -0.635 A  
HETATM   24  C   UNL     1     -13.652  15.062  72.952  1.00  0.00    -0.525 A  
HETATM   25  C   UNL     1     -13.147  16.195  72.342  1.00  0.00    -0.225 A  
HETATM   26  C   UNL     1     -12.353  16.057  71.208  1.00  0.00    -0.360 A  
HETATM   27  C   UNL     1     -12.077  14.787  70.637  1.00  0.00    -0.374 A  
BRANCH  27  28
HETATM   28  C   UNL     1     -11.296  14.819  69.402  1.00  0.00    -0.285 A  
HETATM   29  N   UNL     1      -9.990  14.481  69.337  1.00  0.00    -0.039 NA 
HETATM   30  N   UNL     1      -9.748  14.707  68.039  1.00  0.00    -0.212 NA 
HETATM   31  H   UNL     1      -8.830  14.547  67.625  1.00  0.00     0.000 HD 
HETATM   32  N   UNL     1     -10.780  15.153  67.319  1.00  0.00    -0.298 NA 
HETATM   33  N   UNL     1     -11.772  15.264  68.191  1.00  0.00    -0.330 NA 
ENDBRANCH  27  28
ENDBRANCH  19  22
ENDBRANCH  15  16
ENDBRANCH  11  15
ENDBRANCH   4   5
ENDBRANCH   3   4
ENDBRANCH   2   3
TORSDOF 7
ENDMDL
MODEL      188
REMARK 921   NORMALIZED FREE ENERGY PREDICTED BY IDOCK:   -4.19 KCAL/MOL
REMARK 922        TOTAL FREE ENERGY PREDICTED BY IDOCK:   -7.85 KCAL/MOL
REMARK 923 INTER-LIGAND FREE ENERGY PREDICTED BY IDOCK:   -6.50 KCAL/MOL
REMARK 924 INTRA-LIGAND FREE ENERGY PREDICTED BY IDOCK:   -1.35 KCAL/MOL
REMARK 927      BINDING AFFINITY PREDICTED BY RF-SCORE:    0.00 PKD
ROOT
HETATM    1  C   UNL     1      -9.733   2.635  71.167  1.00  0.00    -0.181 C  
HETATM    2  C   UNL     1      -9.518   3.300  69.822  1.00  0.00    -0.212 C  
ENDROOT
BRANCH   2   3
HETATM    3  C   UNL     1      -9.711   4.811  69.914  1.00  0.00    -0.274 C  
BRANCH   3   4
HETATM    4  C   UNL     1     -10.238   5.396  68.608  1.00  0.00    -0.246 C  
BRANCH   4   5
HETATM    5  C   UNL     1      -9.113   5.582  67.629  1.00  0.00    -0.107 C  
HETATM    6  N   UNL     1      -8.980   4.742  66.646  1.00  0.00    -0.110 NA 
HETATM    7  C   UNL     1      -7.837   5.264  65.857  1.00  0.00    -0.103 C  
HETATM    8  C   UNL     1      -7.252   6.332  66.765  1.00  0.00    -0.074 C  
HETATM    9  C   UNL     1      -8.363   5.896  64.563  1.00  0.00    -0.069 C  
HETATM   10  O   UNL     1      -6.152   6.858  66.671  1.00  0.00    -0.031 OA 
HETATM   11  N   UNL     1      -8.218   6.585  67.706  1.00  0.00    -0.115 N  
HETATM   12  C   UNL     1      -7.256   5.619  63.559  1.00  0.00    -0.053 C  
HETATM   13  C   UNL     1      -6.827   4.204  63.909  1.00  0.00    -0.045 C  
HETATM   14  C   UNL     1      -6.883   4.147  65.437  1.00  0.00    -0.057 C  
BRANCH  11  15
HETATM   15  C   UNL     1      -8.095   7.682  68.662  1.00  0.00    -0.127 C  
BRANCH  15  16
HETATM   16  C   UNL     1      -8.834   8.928  68.207  1.00  0.00    -0.134 A  
HETATM   17  C   UNL     1      -8.374   9.687  67.132  1.00  0.00    -0.121 A  
HETATM   18  C   UNL     1      -8.894  10.964  66.879  1.00  0.00    -0.145 A  
HETATM   19  C   UNL     1      -9.944  11.510  67.645  1.00  0.00    -0.199 A  
HETATM   20  C   UNL     1     -10.536  10.641  68.572  1.00  0.00    -0.229 A  
HETATM   21  C   UNL     1      -9.961   9.397  68.892  1.00  0.00    -0.188 A  
BRANCH  19  22
HETATM   22  C   UNL     1     -10.330  12.955  67.494  1.00  0.00    -0.223 A  
HETATM   23  C   UNL     1     -10.199  13.812  68.618  1.00  0.00    -0.209 A  
HETATM   24  C   UNL     1     -10.640  15.141  68.619  1.00  0.00    -0.234 A  
HETATM   25  C   UNL     1     -11.193  15.684  67.475  1.00  0.00    -0.245 A  
HETATM   26  C   UNL     1     -11.304  14.895  66.335  1.00  0.00    -0.308 A  
HETATM   27  C   UNL     1     -10.899  13.534  66.324  1.00  0.00    -0.291 A  
BRANCH  27  28
HETATM   28  C   UNL     1     -11.157  12.822  65.074  1.00  0.00    -0.285 A  
HETATM   29  N   UNL     1     -10.287  12.790  64.042  1.00  0.00    -0.412 NA 
HETATM   30  N   UNL     1     -10.987  12.062  63.161  1.00  0.00    -0.692 NA 
HETATM   31  H   UNL     1     -10.619  11.830  62.239  1.00  0.00     0.000 HD 
HETATM   32  N   UNL     1     -12.194  11.659  63.562  1.00  0.00    -0.371 NA 
HETATM   33  N   UNL     1     -12.331  12.170  64.777  1.00  0.00    -0.406 NA 
ENDBRANCH  27  28
ENDBRANCH  19  22
ENDBRANCH  15  16
ENDBRANCH  11  15
ENDBRANCH   4   5
ENDBRANCH   3   4
ENDBRANCH   2   3
TORSDOF 7
ENDMDL
MODEL      189
REMARK 921   NORMALIZED FREE ENERGY PREDICTED BY IDOCK:   -4.17 KCAL/MOL
REMARK 922        TOTAL FREE ENERGY PREDICTED BY IDOCK:   -7.83 KCAL/MOL
REMARK 923 INTER-LIGAND FREE ENERGY PREDICTED BY IDOCK:   -6.33 KCAL/MOL
REMARK 924 INTRA-LIGAND FREE ENERGY PREDICTED BY IDOCK:   -1.50 KCAL/MOL
REMARK 927      BINDING AFFINITY PREDICTED BY RF-SCORE:    0.00 PKD
ROOT
HETATM    1  C   UNL     1      -8.980  18.741  67.460  1.00  0.00    -0.291 C  
HETATM    2  C   UNL     1      -9.642  17.379  67.421  1.00  0.00    -0.257 C  
ENDROOT
BRANCH   2   3
HETATM    3  C   UNL     1      -8.756  16.314  68.060  1.00  0.00    -0.178 C  
BRANCH   3   4
HETATM    4  C   UNL     1      -8.289  15.278  67.043  1.00  0.00    -0.267 C  
BRANCH   4   5
HETATM    5  C   UNL     1      -9.456  14.468  66.551  1.00  0.00    -0.289 C  
HETATM    6  N   UNL     1      -9.913  14.673  65.352  1.00  0.00    -0.361 NA 
HETATM    7  C   UNL     1     -10.990  13.668  65.183  1.00  0.00    -0.330 C  
HETATM    8  C   UNL     1     -11.180  13.127  66.590  1.00  0.00    -0.304 C  
HETATM    9  C   UNL     1     -10.503  12.556  64.247  1.00  0.00    -0.404 C  
HETATM   10  O   UNL     1     -12.125  12.474  67.007  1.00  0.00    -0.521 OA 
HETATM   11  N   UNL     1     -10.068  13.522  67.289  1.00  0.00    -0.233 N  
HETATM   12  C   UNL     1     -11.766  12.131  63.516  1.00  0.00    -0.579 C  
HETATM   13  C   UNL     1     -12.471  13.453  63.259  1.00  0.00    -0.137 C  
HETATM   14  C   UNL     1     -12.230  14.275  64.527  1.00  0.00    -0.476 C  
BRANCH  11  15
HETATM   15  C   UNL     1      -9.799  13.047  68.644  1.00  0.00    -0.068 C  
BRANCH  15  16
HETATM   16  C   UNL     1      -9.141  11.678  68.654  1.00  0.00    -0.103 A  
HETATM   17  C   UNL     1      -7.754  11.545  68.626  1.00  0.00    -0.139 A  
HETATM   18  C   UNL     1      -7.157  10.301  68.371  1.00  0.00    -0.078 A  
HETATM   19  C   UNL     1      -7.916   9.126  68.204  1.00  0.00    -0.100 A  
HETATM   20  C   UNL     1      -9.290   9.248  68.459  1.00  0.00    -0.143 A  
HETATM   21  C   UNL     1      -9.903  10.503  68.623  1.00  0.00    -0.183 A  
BRANCH  19  22
HETATM   22  C   UNL     1      -7.269   7.860  67.718  1.00  0.00    -0.091 A  
HETATM   23  C   UNL     1      -6.776   6.940  68.680  1.00  0.00    -0.060 A  
HETATM   24  C   UNL     1      -6.053   5.791  68.335  1.00  0.00    -0.025 A  
HETATM   25  C   UNL     1      -5.830   5.490  67.005  1.00  0.00    -0.018 A  
HETATM   26  C   UNL     1      -6.330   6.341  66.025  1.00  0.00    -0.039 A  
HETATM   27  C   UNL     1      -7.031   7.531  66.352  1.00  0.00    -0.070 A  
BRANCH  27  28
HETATM   28  C   UNL     1      -7.420   8.356  65.210  1.00  0.00    -0.086 A  
HETATM   29  N   UNL     1      -8.700   8.672  64.921  1.00  0.00    -0.139 NA 
HETATM   30  N   UNL     1      -8.523   9.388  63.802  1.00  0.00    -0.184 NA 
HETATM   31  H   UNL     1      -9.305   9.802  63.296  1.00  0.00     0.000 HD 
HETATM   32  N   UNL     1      -7.261   9.527  63.388  1.00  0.00    -0.103 NA 
HETATM   33  N   UNL     1      -6.545   8.839  64.265  1.00  0.00    -0.071 NA 
ENDBRANCH  27  28
ENDBRANCH  19  22
ENDBRANCH  15  16
ENDBRANCH  11  15
ENDBRANCH   4   5
ENDBRANCH   3   4
ENDBRANCH   2   3
TORSDOF 7
ENDMDL
MODEL      190
REMARK 921   NORMALIZED FREE ENERGY PREDICTED BY IDOCK:   -4.17 KCAL/MOL
REMARK 922        TOTAL FREE ENERGY PREDICTED BY IDOCK:   -7.83 KCAL/MOL
REMARK 923 INTER-LIGAND FREE ENERGY PREDICTED BY IDOCK:   -6.49 KCAL/MOL
REMARK 924 INTRA-LIGAND FREE ENERGY PREDICTED BY IDOCK:   -1.34 KCAL/MOL
REMARK 927      BINDING AFFINITY PREDICTED BY RF-SCORE:    0.00 PKD
ROOT
HETATM    1  C   UNL     1     -12.643  12.207  63.896  1.00  0.00    -0.545 C  
HETATM    2  C   UNL     1     -12.156  13.430  64.647  1.00  0.00    -0.456 C  
ENDROOT
BRANCH   2   3
HETATM    3  C   UNL     1     -11.703  13.070  66.059  1.00  0.00    -0.442 C  
BRANCH   3   4
HETATM    4  C   UNL     1     -11.192  11.636  66.143  1.00  0.00    -0.314 C  
BRANCH   4   5
HETATM    5  C   UNL     1      -9.750  11.621  66.566  1.00  0.00    -0.206 C  
HETATM    6  N   UNL     1      -9.281  12.612  67.262  1.00  0.00    -0.188 NA 
HETATM    7  C   UNL     1      -7.877  12.234  67.558  1.00  0.00    -0.166 C  
HETATM    8  C   UNL     1      -7.648  11.033  66.656  1.00  0.00    -0.146 C  
HETATM    9  C   UNL     1      -7.763  11.823  69.030  1.00  0.00     0.027 C  
HETATM   10  O   UNL     1      -6.574  10.536  66.350  1.00  0.00    -0.090 OA 
HETATM   11  N   UNL     1      -8.897  10.623  66.264  1.00  0.00    -0.156 N  
HETATM   12  C   UNL     1      -6.361  12.269  69.414  1.00  0.00    -0.118 C  
HETATM   13  C   UNL     1      -6.226  13.608  68.709  1.00  0.00    -0.089 C  
HETATM   14  C   UNL     1      -6.922  13.410  67.361  1.00  0.00    -0.098 C  
BRANCH  11  15
HETATM   15  C   UNL     1      -9.104   9.383  65.521  1.00  0.00    -0.218 C  
BRANCH  15  16
HETATM   16  C   UNL     1      -9.362   8.199  66.436  1.00  0.00    -0.269 A  
HETATM   17  C   UNL     1     -10.656   7.862  66.831  1.00  0.00    -0.333 A  
HETATM   18  C   UNL     1     -10.874   6.947  67.871  1.00  0.00    -0.287 A  
HETATM   19  C   UNL     1      -9.814   6.278  68.514  1.00  0.00    -0.152 A  
HETATM   20  C   UNL     1      -8.544   6.466  67.950  1.00  0.00    -0.116 A  
HETATM   21  C   UNL     1      -8.308   7.448  66.971  1.00  0.00    -0.121 A  
BRANCH  19  22
HETATM   22  C   UNL     1     -10.060   5.476  69.762  1.00  0.00    -0.302 A  
HETATM   23  C   UNL     1     -10.745   6.094  70.840  1.00  0.00    -0.316 A  
HETATM   24  C   UNL     1     -10.920   5.479  72.085  1.00  0.00    -0.291 A  
HETATM   25  C   UNL     1     -10.453   4.194  72.291  1.00  0.00    -0.141 A  
HETATM   26  C   UNL     1      -9.812   3.532  71.250  1.00  0.00    -0.205 A  
HETATM   27  C   UNL     1      -9.588   4.151  69.992  1.00  0.00    -0.274 A  
BRANCH  27  28
HETATM   28  C   UNL     1      -8.829   3.351  69.033  1.00  0.00    -0.107 A  
HETATM   29  N   UNL     1      -9.400   2.645  68.035  1.00  0.00    -0.207 NA 
HETATM   30  N   UNL     1      -8.314   2.084  67.486  1.00  0.00    -0.068 NA 
HETATM   31  H   UNL     1      -8.376   1.467  66.677  1.00  0.00     0.000 HD 
HETATM   32  N   UNL     1      -7.147   2.381  68.062  1.00  0.00    -0.047 NA 
HETATM   33  N   UNL     1      -7.467   3.167  69.080  1.00  0.00    -0.048 NA 
ENDBRANCH  27  28
ENDBRANCH  19  22
ENDBRANCH  15  16
ENDBRANCH  11  15
ENDBRANCH   4   5
ENDBRANCH   3   4
ENDBRANCH   2   3
TORSDOF 7
ENDMDL
MODEL      191
REMARK 921   NORMALIZED FREE ENERGY PREDICTED BY IDOCK:   -4.15 KCAL/MOL
REMARK 922        TOTAL FREE ENERGY PREDICTED BY IDOCK:   -7.79 KCAL/MOL
REMARK 923 INTER-LIGAND FREE ENERGY PREDICTED BY IDOCK:   -6.88 KCAL/MOL
REMARK 924 INTRA-LIGAND FREE ENERGY PREDICTED BY IDOCK:   -0.91 KCAL/MOL
REMARK 927      BINDING AFFINITY PREDICTED BY RF-SCORE:    0.00 PKD
ROOT
HETATM    1  C   UNL     1     -12.629  13.985  67.168  1.00  0.00     0.147 C  
HETATM    2  C   UNL     1     -12.453  13.160  65.910  1.00  0.00    -0.386 C  
ENDROOT
BRANCH   2   3
HETATM    3  C   UNL     1     -11.493  13.835  64.934  1.00  0.00    -0.351 C  
BRANCH   3   4
HETATM    4  C   UNL     1     -10.165  14.186  65.597  1.00  0.00    -0.357 C  
BRANCH   4   5
HETATM    5  C   UNL     1      -9.586  12.978  66.278  1.00  0.00    -0.238 C  
HETATM    6  N   UNL     1      -9.138  11.995  65.556  1.00  0.00     0.045 NA 
HETATM    7  C   UNL     1      -8.585  11.029  66.537  1.00  0.00    -0.165 C  
HETATM    8  C   UNL     1      -9.089  11.563  67.867  1.00  0.00    -0.167 C  
HETATM    9  C   UNL     1      -7.053  11.080  66.490  1.00  0.00    -0.136 C  
HETATM   10  O   UNL     1      -9.117  10.972  68.935  1.00  0.00    -0.175 OA 
HETATM   11  N   UNL     1      -9.499  12.848  67.615  1.00  0.00    -0.190 N  
HETATM   12  C   UNL     1      -6.642   9.650  66.799  1.00  0.00    -0.067 C  
HETATM   13  C   UNL     1      -7.666   8.829  66.032  1.00  0.00    -0.097 C  
HETATM   14  C   UNL     1      -8.981   9.593  66.199  1.00  0.00    -0.186 C  
BRANCH  11  15
HETATM   15  C   UNL     1      -9.893  13.756  68.689  1.00  0.00    -0.157 C  
BRANCH  15  16
HETATM   16  C   UNL     1      -9.116  15.060  68.656  1.00  0.00    -0.191 A  
HETATM   17  C   UNL     1      -9.755  16.285  68.838  1.00  0.00    -0.248 A  
HETATM   18  C   UNL     1      -9.096  17.489  68.549  1.00  0.00    -0.277 A  
HETATM   19  C   UNL     1      -7.750  17.525  68.133  1.00  0.00    -0.231 A  
HETATM   20  C   UNL     1      -7.068  16.301  68.175  1.00  0.00    -0.141 A  
HETATM   21  C   UNL     1      -7.744  15.084  68.374  1.00  0.00    -0.113 A  
BRANCH  19  22
HETATM   22  C   UNL     1      -7.141  18.801  67.623  1.00  0.00    -0.223 A  
HETATM   23  C   UNL     1      -7.309  19.131  66.253  1.00  0.00    -0.278 A  
HETATM   24  C   UNL     1      -6.684  20.230  65.651  1.00  0.00    -0.287 A  
HETATM   25  C   UNL     1      -5.897  21.076  66.409  1.00  0.00    -0.305 A  
HETATM   26  C   UNL     1      -5.736  20.817  67.766  1.00  0.00    -0.313 A  
HETATM   27  C   UNL     1      -6.327  19.685  68.388  1.00  0.00    -0.289 A  
BRANCH  27  28
HETATM   28  C   UNL     1      -5.996  19.511  69.801  1.00  0.00    -0.275 A  
HETATM   29  N   UNL     1      -5.151  18.561  70.256  1.00  0.00    -0.207 NA 
HETATM   30  N   UNL     1      -5.214  18.796  71.574  1.00  0.00    -0.453 NA 
HETATM   31  H   UNL     1      -4.679  18.247  72.246  1.00  0.00     0.000 HD 
HETATM   32  N   UNL     1      -6.019  19.791  71.954  1.00  0.00    -0.221 NA 
HETATM   33  N   UNL     1      -6.555  20.236  70.827  1.00  0.00    -0.349 NA 
ENDBRANCH  27  28
ENDBRANCH  19  22
ENDBRANCH  15  16
ENDBRANCH  11  15
ENDBRANCH   4   5
ENDBRANCH   3   4
ENDBRANCH   2   3
TORSDOF 7
ENDMDL
MODEL      192
REMARK 921   NORMALIZED FREE ENERGY PREDICTED BY IDOCK:   -4.13 KCAL/MOL
REMARK 922        TOTAL FREE ENERGY PREDICTED BY IDOCK:   -7.77 KCAL/MOL
REMARK 923 INTER-LIGAND FREE ENERGY PREDICTED BY IDOCK:   -6.37 KCAL/MOL
REMARK 924 INTRA-LIGAND FREE ENERGY PREDICTED BY IDOCK:   -1.41 KCAL/MOL
REMARK 927      BINDING AFFINITY PREDICTED BY RF-SCORE:    0.00 PKD
ROOT
HETATM    1  C   UNL     1      -8.350  14.479  68.614  1.00  0.00    -0.164 C  
HETATM    2  C   UNL     1      -7.304  13.964  67.646  1.00  0.00    -0.186 C  
ENDROOT
BRANCH   2   3
HETATM    3  C   UNL     1      -7.042  12.475  67.853  1.00  0.00    -0.111 C  
BRANCH   3   4
HETATM    4  C   UNL     1      -7.533  11.642  66.674  1.00  0.00    -0.037 C  
BRANCH   4   5
HETATM    5  C   UNL     1      -8.999  11.878  66.444  1.00  0.00    -0.180 C  
HETATM    6  N   UNL     1      -9.386  12.448  65.342  1.00  0.00     0.070 NA 
HETATM    7  C   UNL     1     -10.868  12.452  65.421  1.00  0.00    -0.285 C  
HETATM    8  C   UNL     1     -11.137  12.051  66.861  1.00  0.00    -0.302 C  
HETATM    9  C   UNL     1     -11.428  11.395  64.462  1.00  0.00    -0.123 C  
HETATM   10  O   UNL     1     -12.187  12.168  67.475  1.00  0.00    -0.474 OA 
HETATM   11  N   UNL     1      -9.956  11.527  67.324  1.00  0.00    -0.190 N  
HETATM   12  C   UNL     1     -12.742  12.001  63.996  1.00  0.00    -0.415 C  
HETATM   13  C   UNL     1     -12.393  13.469  63.816  1.00  0.00    -0.392 C  
HETATM   14  C   UNL     1     -11.453  13.792  64.979  1.00  0.00    -0.340 C  
BRANCH  11  15
HETATM   15  C   UNL     1      -9.861  10.871  68.625  1.00  0.00    -0.190 C  
BRANCH  15  16
HETATM   16  C   UNL     1      -9.595   9.381  68.501  1.00  0.00    -0.154 A  
HETATM   17  C   UNL     1     -10.564   8.515  67.998  1.00  0.00    -0.197 A  
HETATM   18  C   UNL     1     -10.423   7.126  68.127  1.00  0.00    -0.244 A  
HETATM   19  C   UNL     1      -9.277   6.540  68.700  1.00  0.00    -0.127 A  
HETATM   20  C   UNL     1      -8.225   7.420  68.992  1.00  0.00    -0.128 A  
HETATM   21  C   UNL     1      -8.395   8.816  68.951  1.00  0.00    -0.127 A  
BRANCH  19  22
HETATM   22  C   UNL     1      -9.248   5.072  69.023  1.00  0.00    -0.157 A  
HETATM   23  C   UNL     1      -8.962   4.155  67.979  1.00  0.00    -0.150 A  
HETATM   24  C   UNL     1      -9.027   2.766  68.146  1.00  0.00    -0.198 A  
HETATM   25  C   UNL     1      -9.339   2.233  69.382  1.00  0.00    -0.169 A  
HETATM   26  C   UNL     1      -9.587   3.093  70.447  1.00  0.00    -0.192 A  
HETATM   27  C   UNL     1      -9.565   4.504  70.291  1.00  0.00    -0.263 A  
BRANCH  27  28
HETATM   28  C   UNL     1      -9.926   5.265  71.486  1.00  0.00    -0.182 A  
HETATM   29  N   UNL     1      -9.047   5.584  72.460  1.00  0.00    -0.136 NA 
HETATM   30  N   UNL     1      -9.857   6.229  73.311  1.00  0.00    -0.162 NA 
HETATM   31  H   UNL     1      -9.515   6.624  74.186  1.00  0.00     0.000 HD 
HETATM   32  N   UNL     1     -11.138   6.323  72.945  1.00  0.00    -0.253 NA 
HETATM   33  N   UNL     1     -11.203   5.677  71.790  1.00  0.00    -0.208 NA 
ENDBRANCH  27  28
ENDBRANCH  19  22
ENDBRANCH  15  16
ENDBRANCH  11  15
ENDBRANCH   4   5
ENDBRANCH   3   4
ENDBRANCH   2   3
TORSDOF 7
ENDMDL
MODEL      193
REMARK 921   NORMALIZED FREE ENERGY PREDICTED BY IDOCK:   -4.11 KCAL/MOL
REMARK 922        TOTAL FREE ENERGY PREDICTED BY IDOCK:   -7.74 KCAL/MOL
REMARK 923 INTER-LIGAND FREE ENERGY PREDICTED BY IDOCK:   -7.64 KCAL/MOL
REMARK 924 INTRA-LIGAND FREE ENERGY PREDICTED BY IDOCK:   -0.10 KCAL/MOL
REMARK 927      BINDING AFFINITY PREDICTED BY RF-SCORE:    0.00 PKD
ROOT
HETATM    1  C   UNL     1     -11.134   6.036  69.485  1.00  0.00    -0.468 C  
HETATM    2  C   UNL     1      -9.637   5.889  69.665  1.00  0.00    -0.183 C  
ENDROOT
BRANCH   2   3
HETATM    3  C   UNL     1      -8.900   6.054  68.339  1.00  0.00    -0.112 C  
BRANCH   3   4
HETATM    4  C   UNL     1      -7.996   7.282  68.340  1.00  0.00    -0.124 C  
BRANCH   4   5
HETATM    5  C   UNL     1      -8.012   7.942  66.989  1.00  0.00    -0.112 C  
HETATM    6  N   UNL     1      -6.901   8.060  66.326  1.00  0.00    -0.058 NA 
HETATM    7  C   UNL     1      -7.296   8.677  65.036  1.00  0.00    -0.086 C  
HETATM    8  C   UNL     1      -8.733   9.103  65.285  1.00  0.00    -0.188 C  
HETATM    9  C   UNL     1      -7.240   7.617  63.930  1.00  0.00    -0.081 C  
HETATM   10  O   UNL     1      -9.397   9.881  64.617  1.00  0.00    -0.249 OA 
HETATM   11  N   UNL     1      -9.128   8.426  66.411  1.00  0.00    -0.175 N  
HETATM   12  C   UNL     1      -6.828   8.410  62.701  1.00  0.00    -0.090 C  
HETATM   13  C   UNL     1      -5.791   9.375  63.252  1.00  0.00    -0.089 C  
HETATM   14  C   UNL     1      -6.332   9.787  64.622  1.00  0.00    -0.106 C  
BRANCH  11  15
HETATM   15  C   UNL     1     -10.513   8.442  66.875  1.00  0.00    -0.289 C  
BRANCH  15  16
HETATM   16  C   UNL     1     -10.806   9.630  67.774  1.00  0.00    -0.278 A  
HETATM   17  C   UNL     1     -10.499   9.599  69.133  1.00  0.00    -0.230 A  
HETATM   18  C   UNL     1     -11.001  10.576  70.005  1.00  0.00    -0.351 A  
HETATM   19  C   UNL     1     -11.773  11.663  69.548  1.00  0.00    -0.410 A  
HETATM   20  C   UNL     1     -11.876  11.792  68.156  1.00  0.00    -0.324 A  
HETATM   21  C   UNL     1     -11.455  10.771  67.285  1.00  0.00    -0.034 A  
BRANCH  19  22
HETATM   22  C   UNL     1     -12.476  12.565  70.523  1.00  0.00    -0.266 A  
HETATM   23  C   UNL     1     -12.442  13.965  70.295  1.00  0.00    -0.380 A  
HETATM   24  C   UNL     1     -12.961  14.898  71.201  1.00  0.00    -0.432 A  
HETATM   25  C   UNL     1     -13.580  14.464  72.359  1.00  0.00    -0.578 A  
HETATM   26  C   UNL     1     -13.675  13.099  72.605  1.00  0.00    -0.394 A  
HETATM   27  C   UNL     1     -13.120  12.137  71.720  1.00  0.00    -0.457 A  
BRANCH  27  28
HETATM   28  C   UNL     1     -13.233  10.749  72.163  1.00  0.00    -0.255 A  
HETATM   29  N   UNL     1     -14.397  10.181  72.545  1.00  0.00     0.435 NA 
HETATM   30  N   UNL     1     -13.968   8.956  72.877  1.00  0.00    -1.052 NA 
HETATM   31  H   UNL     1     -14.604   8.235  73.216  1.00  0.00     0.000 HD 
HETATM   32  N   UNL     1     -12.659   8.734  72.736  1.00  0.00    -0.255 NA 
HETATM   33  N   UNL     1     -12.169   9.890  72.311  1.00  0.00     0.028 NA 
ENDBRANCH  27  28
ENDBRANCH  19  22
ENDBRANCH  15  16
ENDBRANCH  11  15
ENDBRANCH   4   5
ENDBRANCH   3   4
ENDBRANCH   2   3
TORSDOF 7
ENDMDL
MODEL      194
REMARK 921   NORMALIZED FREE ENERGY PREDICTED BY IDOCK:   -4.10 KCAL/MOL
REMARK 922        TOTAL FREE ENERGY PREDICTED BY IDOCK:   -7.72 KCAL/MOL
REMARK 923 INTER-LIGAND FREE ENERGY PREDICTED BY IDOCK:   -6.82 KCAL/MOL
REMARK 924 INTRA-LIGAND FREE ENERGY PREDICTED BY IDOCK:   -0.90 KCAL/MOL
REMARK 927      BINDING AFFINITY PREDICTED BY RF-SCORE:    0.00 PKD
ROOT
HETATM    1  C   UNL     1     -12.792  10.437  71.495  1.00  0.00    -0.569 C  
HETATM    2  C   UNL     1     -11.829   9.297  71.757  1.00  0.00    -0.454 C  
ENDROOT
BRANCH   2   3
HETATM    3  C   UNL     1     -10.997   8.979  70.518  1.00  0.00    -0.295 C  
BRANCH   3   4
HETATM    4  C   UNL     1      -9.507   8.917  70.835  1.00  0.00    -0.295 C  
BRANCH   4   5
HETATM    5  C   UNL     1      -8.773   8.181  69.749  1.00  0.00    -0.135 C  
HETATM    6  N   UNL     1      -9.279   7.084  69.270  1.00  0.00    -0.140 NA 
HETATM    7  C   UNL     1      -8.347   6.681  68.189  1.00  0.00    -0.117 C  
HETATM    8  C   UNL     1      -7.154   7.598  68.403  1.00  0.00    -0.081 C  
HETATM    9  C   UNL     1      -8.996   6.962  66.830  1.00  0.00    -0.141 C  
HETATM   10  O   UNL     1      -6.033   7.471  67.933  1.00  0.00    -0.036 OA 
HETATM   11  N   UNL     1      -7.603   8.597  69.229  1.00  0.00    -0.092 N  
HETATM   12  C   UNL     1      -8.454   5.853  65.942  1.00  0.00    -0.141 C  
HETATM   13  C   UNL     1      -8.477   4.642  66.860  1.00  0.00    -0.105 C  
HETATM   14  C   UNL     1      -8.053   5.182  68.227  1.00  0.00    -0.087 C  
BRANCH  11  15
HETATM   15  C   UNL     1      -6.789   9.772  69.531  1.00  0.00    -0.060 C  
BRANCH  15  16
HETATM   16  C   UNL     1      -7.202  10.984  68.715  1.00  0.00    -0.091 A  
HETATM   17  C   UNL     1      -6.267  11.938  68.316  1.00  0.00    -0.050 A  
HETATM   18  C   UNL     1      -6.678  13.175  67.799  1.00  0.00    -0.149 A  
HETATM   19  C   UNL     1      -8.037  13.486  67.592  1.00  0.00    -0.180 A  
HETATM   20  C   UNL     1      -8.939  12.431  67.790  1.00  0.00    -0.182 A  
HETATM   21  C   UNL     1      -8.544  11.223  68.394  1.00  0.00    -0.155 A  
BRANCH  19  22
HETATM   22  C   UNL     1      -8.457  14.887  67.246  1.00  0.00    -0.229 A  
HETATM   23  C   UNL     1      -7.634  15.963  67.666  1.00  0.00    -0.171 A  
HETATM   24  C   UNL     1      -7.992  17.307  67.500  1.00  0.00    -0.194 A  
HETATM   25  C   UNL     1      -9.176  17.631  66.865  1.00  0.00    -0.270 A  
HETATM   26  C   UNL     1      -9.997  16.610  66.399  1.00  0.00    -0.316 A  
HETATM   27  C   UNL     1      -9.672  15.241  66.591  1.00  0.00    -0.268 A  
BRANCH  27  28
HETATM   28  C   UNL     1     -10.677  14.292  66.115  1.00  0.00    -0.295 A  
HETATM   29  N   UNL     1     -10.488  13.474  65.059  1.00  0.00    -0.356 NA 
HETATM   30  N   UNL     1     -11.676  12.856  65.019  1.00  0.00    -0.327 NA 
HETATM   31  H   UNL     1     -11.890  12.143  64.322  1.00  0.00     0.000 HD 
HETATM   32  N   UNL     1     -12.562  13.228  65.945  1.00  0.00    -0.414 NA 
HETATM   33  N   UNL     1     -11.945  14.176  66.635  1.00  0.00    -0.427 NA 
ENDBRANCH  27  28
ENDBRANCH  19  22
ENDBRANCH  15  16
ENDBRANCH  11  15
ENDBRANCH   4   5
ENDBRANCH   3   4
ENDBRANCH   2   3
TORSDOF 7
ENDMDL
MODEL      195
REMARK 921   NORMALIZED FREE ENERGY PREDICTED BY IDOCK:   -4.09 KCAL/MOL
REMARK 922        TOTAL FREE ENERGY PREDICTED BY IDOCK:   -7.71 KCAL/MOL
REMARK 923 INTER-LIGAND FREE ENERGY PREDICTED BY IDOCK:   -5.86 KCAL/MOL
REMARK 924 INTRA-LIGAND FREE ENERGY PREDICTED BY IDOCK:   -1.85 KCAL/MOL
REMARK 927      BINDING AFFINITY PREDICTED BY RF-SCORE:    0.00 PKD
ROOT
HETATM    1  C   UNL     1      -8.096   5.083  65.792  1.00  0.00    -0.113 C  
HETATM    2  C   UNL     1      -6.741   5.245  66.449  1.00  0.00    -0.057 C  
ENDROOT
BRANCH   2   3
HETATM    3  C   UNL     1      -6.862   5.280  67.970  1.00  0.00    -0.060 C  
BRANCH   3   4
HETATM    4  C   UNL     1      -7.026   6.702  68.494  1.00  0.00    -0.080 C  
BRANCH   4   5
HETATM    5  C   UNL     1      -7.739   6.691  69.817  1.00  0.00    -0.113 C  
HETATM    6  N   UNL     1      -7.046   6.784  70.913  1.00  0.00    -0.067 NA 
HETATM    7  C   UNL     1      -8.059   6.815  71.997  1.00  0.00    -0.101 C  
HETATM    8  C   UNL     1      -9.343   6.437  71.279  1.00  0.00    -0.156 C  
HETATM    9  C   UNL     1      -8.161   8.240  72.553  1.00  0.00    -0.209 C  
HETATM   10  O   UNL     1     -10.393   6.076  71.788  1.00  0.00    -0.204 OA 
HETATM   11  N   UNL     1      -9.076   6.591  69.942  1.00  0.00    -0.143 N  
HETATM   12  C   UNL     1      -8.483   8.023  74.023  1.00  0.00    -0.312 C  
HETATM   13  C   UNL     1      -7.607   6.838  74.391  1.00  0.00    -0.108 C  
HETATM   14  C   UNL     1      -7.659   5.920  73.169  1.00  0.00    -0.098 C  
BRANCH  11  15
HETATM   15  C   UNL     1     -10.123   6.485  68.929  1.00  0.00    -0.164 C  
BRANCH  15  16
HETATM   16  C   UNL     1     -10.519   7.838  68.365  1.00  0.00    -0.207 A  
HETATM   17  C   UNL     1     -10.612   8.047  66.990  1.00  0.00    -0.364 A  
HETATM   18  C   UNL     1     -10.717   9.344  66.466  1.00  0.00    -0.012 A  
HETATM   19  C   UNL     1     -10.803  10.481  67.293  1.00  0.00    -0.338 A  
HETATM   20  C   UNL     1     -10.932  10.227  68.666  1.00  0.00    -0.289 A  
HETATM   21  C   UNL     1     -10.736   8.940  69.201  1.00  0.00    -0.162 A  
BRANCH  19  22
HETATM   22  C   UNL     1     -10.693  11.862  66.709  1.00  0.00    -0.282 A  
HETATM   23  C   UNL     1     -11.767  12.350  65.920  1.00  0.00    -0.476 A  
HETATM   24  C   UNL     1     -11.716  13.570  65.235  1.00  0.00    -0.341 A  
HETATM   25  C   UNL     1     -10.600  14.378  65.347  1.00  0.00    -0.380 A  
HETATM   26  C   UNL     1      -9.539  13.960  66.143  1.00  0.00    -0.249 A  
HETATM   27  C   UNL     1      -9.553  12.709  66.815  1.00  0.00    -0.241 A  
BRANCH  27  28
HETATM   28  C   UNL     1      -8.329  12.384  67.544  1.00  0.00    -0.173 A  
HETATM   29  N   UNL     1      -7.918  13.049  68.644  1.00  0.00    -0.080 NA 
HETATM   30  N   UNL     1      -6.770  12.407  68.898  1.00  0.00    -0.093 NA 
HETATM   31  H   UNL     1      -6.176  12.654  69.689  1.00  0.00     0.000 HD 
HETATM   32  N   UNL     1      -6.449  11.424  68.053  1.00  0.00    -0.056 NA 
HETATM   33  N   UNL     1      -7.425  11.422  67.157  1.00  0.00    -0.130 NA 
ENDBRANCH  27  28
ENDBRANCH  19  22
ENDBRANCH  15  16
ENDBRANCH  11  15
ENDBRANCH   4   5
ENDBRANCH   3   4
ENDBRANCH   2   3
TORSDOF 7
ENDMDL
MODEL      196
REMARK 921   NORMALIZED FREE ENERGY PREDICTED BY IDOCK:   -4.06 KCAL/MOL
REMARK 922        TOTAL FREE ENERGY PREDICTED BY IDOCK:   -7.67 KCAL/MOL
REMARK 923 INTER-LIGAND FREE ENERGY PREDICTED BY IDOCK:   -6.29 KCAL/MOL
REMARK 924 INTRA-LIGAND FREE ENERGY PREDICTED BY IDOCK:   -1.38 KCAL/MOL
REMARK 927      BINDING AFFINITY PREDICTED BY RF-SCORE:    0.00 PKD
ROOT
HETATM    1  C   UNL     1      -6.965   8.832  71.467  1.00  0.00    -0.091 C  
HETATM    2  C   UNL     1      -7.786   8.307  72.628  1.00  0.00    -0.169 C  
ENDROOT
BRANCH   2   3
HETATM    3  C   UNL     1      -7.849   6.783  72.618  1.00  0.00    -0.100 C  
BRANCH   3   4
HETATM    4  C   UNL     1      -9.162   6.265  73.194  1.00  0.00    -0.131 C  
BRANCH   4   5
HETATM    5  C   UNL     1     -10.328   6.892  72.482  1.00  0.00    -0.196 C  
HETATM    6  N   UNL     1     -10.973   7.865  73.053  1.00  0.00    -0.384 NA 
HETATM    7  C   UNL     1     -11.988   8.280  72.055  1.00  0.00    -0.348 C  
HETATM    8  C   UNL     1     -11.926   7.170  71.019  1.00  0.00    -0.347 C  
HETATM    9  C   UNL     1     -11.568   9.615  71.429  1.00  0.00    -0.472 C  
HETATM   10  O   UNL     1     -12.748   6.928  70.148  1.00  0.00     0.157 OA 
HETATM   11  N   UNL     1     -10.752   6.503  71.265  1.00  0.00    -0.231 N  
HETATM   12  C   UNL     1     -12.893  10.306  71.149  1.00  0.00    -0.504 C  
HETATM   13  C   UNL     1     -13.721   9.963  72.376  1.00  0.00    -0.188 C  
HETATM   14  C   UNL     1     -13.353   8.514  72.702  1.00  0.00    -0.191 C  
BRANCH  11  15
HETATM   15  C   UNL     1     -10.250   5.468  70.365  1.00  0.00    -0.251 C  
BRANCH  15  16
HETATM   16  C   UNL     1      -9.799   6.034  69.031  1.00  0.00    -0.182 A  
HETATM   17  C   UNL     1      -8.653   6.822  68.932  1.00  0.00    -0.130 A  
HETATM   18  C   UNL     1      -8.383   7.555  67.768  1.00  0.00    -0.119 A  
HETATM   19  C   UNL     1      -9.207   7.479  66.627  1.00  0.00    -0.201 A  
HETATM   20  C   UNL     1     -10.222   6.513  66.673  1.00  0.00    -0.209 A  
HETATM   21  C   UNL     1     -10.552   5.844  67.866  1.00  0.00    -0.322 A  
BRANCH  19  22
HETATM   22  C   UNL     1      -9.019   8.435  65.482  1.00  0.00    -0.149 A  
HETATM   23  C   UNL     1      -9.713   9.672  65.512  1.00  0.00    -0.372 A  
HETATM   24  C   UNL     1      -9.701  10.579  64.445  1.00  0.00    -0.388 A  
HETATM   25  C   UNL     1      -8.955  10.304  63.315  1.00  0.00    -0.253 A  
HETATM   26  C   UNL     1      -8.225   9.122  63.256  1.00  0.00    -0.177 A  
HETATM   27  C   UNL     1      -8.254   8.170  64.310  1.00  0.00    -0.095 A  
BRANCH  27  28
HETATM   28  C   UNL     1      -7.498   6.944  64.059  1.00  0.00    -0.098 A  
HETATM   29  N   UNL     1      -6.765   6.315  65.003  1.00  0.00    -0.042 NA 
HETATM   30  N   UNL     1      -6.264   5.303  64.281  1.00  0.00    -0.022 NA 
HETATM   31  H   UNL     1      -5.647   4.602  64.690  1.00  0.00     0.000 HD 
HETATM   32  N   UNL     1      -6.620   5.268  62.995  1.00  0.00    -0.026 NA 
HETATM   33  N   UNL     1      -7.385   6.337  62.830  1.00  0.00    -0.056 NA 
ENDBRANCH  27  28
ENDBRANCH  19  22
ENDBRANCH  15  16
ENDBRANCH  11  15
ENDBRANCH   4   5
ENDBRANCH   3   4
ENDBRANCH   2   3
TORSDOF 7
ENDMDL
MODEL      197
REMARK 921   NORMALIZED FREE ENERGY PREDICTED BY IDOCK:   -4.05 KCAL/MOL
REMARK 922        TOTAL FREE ENERGY PREDICTED BY IDOCK:   -7.65 KCAL/MOL
REMARK 923 INTER-LIGAND FREE ENERGY PREDICTED BY IDOCK:   -6.60 KCAL/MOL
REMARK 924 INTRA-LIGAND FREE ENERGY PREDICTED BY IDOCK:   -1.05 KCAL/MOL
REMARK 927      BINDING AFFINITY PREDICTED BY RF-SCORE:    0.00 PKD
ROOT
HETATM    1  C   UNL     1     -12.296  14.243  65.455  1.00  0.00    -0.417 C  
HETATM    2  C   UNL     1     -12.364  12.731  65.543  1.00  0.00    -0.495 C  
ENDROOT
BRANCH   2   3
HETATM    3  C   UNL     1     -11.719  12.221  66.828  1.00  0.00    -0.411 C  
BRANCH   3   4
HETATM    4  C   UNL     1     -11.004  10.891  66.615  1.00  0.00    -0.212 C  
BRANCH   4   5
HETATM    5  C   UNL     1     -10.462  10.376  67.919  1.00  0.00    -0.209 C  
HETATM    6  N   UNL     1     -11.265   9.785  68.752  1.00  0.00    -0.089 NA 
HETATM    7  C   UNL     1     -10.393   9.351  69.871  1.00  0.00    -0.227 C  
HETATM    8  C   UNL     1      -9.086  10.072  69.589  1.00  0.00    -0.210 C  
HETATM    9  C   UNL     1     -10.190   7.834  69.795  1.00  0.00    -0.211 C  
HETATM   10  O   UNL     1      -8.155  10.240  70.362  1.00  0.00    -0.064 OA 
HETATM   11  N   UNL     1      -9.171  10.489  68.284  1.00  0.00    -0.147 N  
HETATM   12  C   UNL     1     -10.075   7.419  71.253  1.00  0.00    -0.195 C  
HETATM   13  C   UNL     1     -11.124   8.282  71.935  1.00  0.00    -0.357 C  
HETATM   14  C   UNL     1     -11.034   9.636  71.228  1.00  0.00    -0.399 C  
BRANCH  11  15
HETATM   15  C   UNL     1      -8.030  11.077  67.587  1.00  0.00    -0.115 C  
BRANCH  15  16
HETATM   16  C   UNL     1      -8.021  12.593  67.672  1.00  0.00    -0.169 A  
HETATM   17  C   UNL     1      -7.576  13.247  68.819  1.00  0.00    -0.043 A  
HETATM   18  C   UNL     1      -7.810  14.618  69.001  1.00  0.00    -0.133 A  
HETATM   19  C   UNL     1      -8.437  15.407  68.017  1.00  0.00    -0.146 A  
HETATM   20  C   UNL     1      -8.671  14.774  66.788  1.00  0.00    -0.255 A  
HETATM   21  C   UNL     1      -8.523  13.384  66.632  1.00  0.00     0.137 A  
BRANCH  19  22
HETATM   22  C   UNL     1      -8.870  16.813  68.325  1.00  0.00    -0.228 A  
HETATM   23  C   UNL     1     -10.083  17.008  69.036  1.00  0.00    -0.290 A  
HETATM   24  C   UNL     1     -10.636  18.273  69.269  1.00  0.00     0.470 A  
HETATM   25  C   UNL     1      -9.971  19.406  68.837  1.00  0.00    -0.519 A  
HETATM   26  C   UNL     1      -8.758  19.267  68.172  1.00  0.00    -0.370 A  
HETATM   27  C   UNL     1      -8.199  17.993  67.890  1.00  0.00    -0.248 A  
BRANCH  27  28
HETATM   28  C   UNL     1      -6.961  18.017  67.113  1.00  0.00    -0.191 A  
HETATM   29  N   UNL     1      -6.276  19.147  66.840  1.00  0.00    -0.181 NA 
HETATM   30  N   UNL     1      -5.276  18.647  66.100  1.00  0.00    -0.140 NA 
HETATM   31  H   UNL     1      -4.542  19.240  65.714  1.00  0.00     0.000 HD 
HETATM   32  N   UNL     1      -5.298  17.328  65.898  1.00  0.00    -0.281 NA 
HETATM   33  N   UNL     1      -6.396  16.915  66.515  1.00  0.00    -0.258 NA 
ENDBRANCH  27  28
ENDBRANCH  19  22
ENDBRANCH  15  16
ENDBRANCH  11  15
ENDBRANCH   4   5
ENDBRANCH   3   4
ENDBRANCH   2   3
TORSDOF 7
ENDMDL
MODEL      198
REMARK 921   NORMALIZED FREE ENERGY PREDICTED BY IDOCK:   -4.01 KCAL/MOL
REMARK 922        TOTAL FREE ENERGY PREDICTED BY IDOCK:   -7.60 KCAL/MOL
REMARK 923 INTER-LIGAND FREE ENERGY PREDICTED BY IDOCK:   -6.48 KCAL/MOL
REMARK 924 INTRA-LIGAND FREE ENERGY PREDICTED BY IDOCK:   -1.12 KCAL/MOL
REMARK 927      BINDING AFFINITY PREDICTED BY RF-SCORE:    0.00 PKD
ROOT
HETATM    1  C   UNL     1      -7.517  17.569  67.012  1.00  0.00    -0.229 C  
HETATM    2  C   UNL     1      -7.623  17.764  68.511  1.00  0.00    -0.276 C  
ENDROOT
BRANCH   2   3
HETATM    3  C   UNL     1      -7.828  16.434  69.230  1.00  0.00    -0.153 C  
BRANCH   3   4
HETATM    4  C   UNL     1      -8.470  15.391  68.323  1.00  0.00    -0.159 C  
BRANCH   4   5
HETATM    5  C   UNL     1      -9.766  14.912  68.916  1.00  0.00    -0.223 C  
HETATM    6  N   UNL     1     -10.192  15.441  70.023  1.00  0.00    -0.285 NA 
HETATM    7  C   UNL     1     -11.505  14.794  70.268  1.00  0.00    -0.260 C  
HETATM    8  C   UNL     1     -11.523  13.659  69.258  1.00  0.00    -0.291 C  
HETATM    9  C   UNL     1     -12.627  15.794  69.963  1.00  0.00    -0.084 C  
HETATM   10  O   UNL     1     -12.271  12.693  69.249  1.00  0.00    -0.197 OA 
HETATM   11  N   UNL     1     -10.528  13.951  68.360  1.00  0.00    -0.242 N  
HETATM   12  C   UNL     1     -13.714  15.419  70.958  1.00  0.00    -0.420 C  
HETATM   13  C   UNL     1     -12.927  15.113  72.221  1.00  0.00    -0.442 C  
HETATM   14  C   UNL     1     -11.671  14.390  71.732  1.00  0.00     0.063 C  
BRANCH  11  15
HETATM   15  C   UNL     1     -10.343  13.176  67.135  1.00  0.00    -0.247 C  
BRANCH  15  16
HETATM   16  C   UNL     1     -10.058  11.712  67.417  1.00  0.00    -0.218 A  
HETATM   17  C   UNL     1     -10.828  10.703  66.840  1.00  0.00    -0.267 A  
HETATM   18  C   UNL     1     -10.739   9.381  67.297  1.00  0.00    -0.258 A  
HETATM   19  C   UNL     1      -9.829   8.995  68.302  1.00  0.00    -0.186 A  
HETATM   20  C   UNL     1      -8.916   9.979  68.705  1.00  0.00    -0.145 A  
HETATM   21  C   UNL     1      -9.059  11.324  68.319  1.00  0.00    -0.173 A  
BRANCH  19  22
HETATM   22  C   UNL     1      -9.908   7.628  68.923  1.00  0.00    -0.164 A  
HETATM   23  C   UNL     1     -10.857   7.408  69.955  1.00  0.00    -0.266 A  
HETATM   24  C   UNL     1     -10.931   6.211  70.679  1.00  0.00    -0.376 A  
HETATM   25  C   UNL     1     -10.084   5.163  70.368  1.00  0.00    -0.333 A  
HETATM   26  C   UNL     1      -9.166   5.319  69.335  1.00  0.00    -0.152 A  
HETATM   27  C   UNL     1      -9.047   6.537  68.615  1.00  0.00    -0.128 A  
BRANCH  27  28
HETATM   28  C   UNL     1      -7.979   6.564  67.617  1.00  0.00    -0.114 A  
HETATM   29  N   UNL     1      -8.203   6.676  66.290  1.00  0.00    -0.115 NA 
HETATM   30  N   UNL     1      -6.946   6.620  65.830  1.00  0.00    -0.056 NA 
HETATM   31  H   UNL     1      -6.732   6.680  64.835  1.00  0.00     0.000 HD 
HETATM   32  N   UNL     1      -5.990   6.480  66.751  1.00  0.00    -0.024 NA 
HETATM   33  N   UNL     1      -6.643   6.407  67.901  1.00  0.00    -0.059 NA 
ENDBRANCH  27  28
ENDBRANCH  19  22
ENDBRANCH  15  16
ENDBRANCH  11  15
ENDBRANCH   4   5
ENDBRANCH   3   4
ENDBRANCH   2   3
TORSDOF 7
ENDMDL
MODEL      199
REMARK 921   NORMALIZED FREE ENERGY PREDICTED BY IDOCK:   -4.01 KCAL/MOL
REMARK 922        TOTAL FREE ENERGY PREDICTED BY IDOCK:   -7.59 KCAL/MOL
REMARK 923 INTER-LIGAND FREE ENERGY PREDICTED BY IDOCK:   -6.90 KCAL/MOL
REMARK 924 INTRA-LIGAND FREE ENERGY PREDICTED BY IDOCK:   -0.69 KCAL/MOL
REMARK 927      BINDING AFFINITY PREDICTED BY RF-SCORE:    0.00 PKD
ROOT
HETATM    1  C   UNL     1     -13.068  10.657  71.168  1.00  0.00    -0.415 C  
HETATM    2  C   UNL     1     -11.787   9.863  71.006  1.00  0.00    -0.463 C  
ENDROOT
BRANCH   2   3
HETATM    3  C   UNL     1     -10.868  10.501  69.969  1.00  0.00    -0.320 C  
BRANCH   3   4
HETATM    4  C   UNL     1     -11.252  10.103  68.548  1.00  0.00    -0.226 C  
BRANCH   4   5
HETATM    5  C   UNL     1     -10.491   8.878  68.125  1.00  0.00    -0.202 C  
HETATM    6  N   UNL     1     -10.609   7.785  68.818  1.00  0.00    -0.178 NA 
HETATM    7  C   UNL     1      -9.795   6.785  68.085  1.00  0.00    -0.137 C  
HETATM    8  C   UNL     1      -9.030   7.632  67.082  1.00  0.00    -0.126 C  
HETATM    9  C   UNL     1     -10.727   5.810  67.356  1.00  0.00    -0.332 C  
HETATM   10  O   UNL     1      -8.047   7.302  66.437  1.00  0.00    -0.111 OA 
HETATM   11  N   UNL     1      -9.679   8.841  67.051  1.00  0.00    -0.180 N  
HETATM   12  C   UNL     1      -9.961   4.497  67.389  1.00  0.00    -0.171 C  
HETATM   13  C   UNL     1      -9.357   4.492  68.784  1.00  0.00    -0.206 C  
HETATM   14  C   UNL     1      -8.945   5.944  69.036  1.00  0.00    -0.122 C  
BRANCH  11  15
HETATM   15  C   UNL     1      -9.342   9.872  66.074  1.00  0.00    -0.188 C  
BRANCH  15  16
HETATM   16  C   UNL     1      -9.049  11.211  66.728  1.00  0.00    -0.174 A  
HETATM   17  C   UNL     1      -9.944  12.274  66.625  1.00  0.00    -0.229 A  
HETATM   18  C   UNL     1      -9.564  13.572  66.995  1.00  0.00    -0.248 A  
HETATM   19  C   UNL     1      -8.299  13.853  67.549  1.00  0.00    -0.202 A  
HETATM   20  C   UNL     1      -7.505  12.736  67.849  1.00  0.00    -0.127 A  
HETATM   21  C   UNL     1      -7.842  11.447  67.397  1.00  0.00    -0.135 A  
BRANCH  19  22
HETATM   22  C   UNL     1      -7.840  15.272  67.731  1.00  0.00    -0.161 A  
HETATM   23  C   UNL     1      -6.542  15.628  67.280  1.00  0.00    -0.131 A  
HETATM   24  C   UNL     1      -5.975  16.888  67.508  1.00  0.00    -0.165 A  
HETATM   25  C   UNL     1      -6.703  17.865  68.160  1.00  0.00    -0.200 A  
HETATM   26  C   UNL     1      -7.996  17.576  68.583  1.00  0.00    -0.268 A  
HETATM   27  C   UNL     1      -8.576  16.293  68.399  1.00  0.00    -0.200 A  
BRANCH  27  28
HETATM   28  C   UNL     1      -9.911  16.128  68.973  1.00  0.00    -0.245 A  
HETATM   29  N   UNL     1     -10.143  15.516  70.153  1.00  0.00    -0.249 NA 
HETATM   30  N   UNL     1     -11.480  15.594  70.205  1.00  0.00    -0.316 NA 
HETATM   31  H   UNL     1     -12.013  15.222  70.990  1.00  0.00     0.000 HD 
HETATM   32  N   UNL     1     -12.072  16.190  69.167  1.00  0.00    -0.116 NA 
HETATM   33  N   UNL     1     -11.077  16.506  68.351  1.00  0.00    -0.359 NA 
ENDBRANCH  27  28
ENDBRANCH  19  22
ENDBRANCH  15  16
ENDBRANCH  11  15
ENDBRANCH   4   5
ENDBRANCH   3   4
ENDBRANCH   2   3
TORSDOF 7
ENDMDL
MODEL      200
REMARK 921   NORMALIZED FREE ENERGY PREDICTED BY IDOCK:   -4.00 KCAL/MOL
REMARK 922        TOTAL FREE ENERGY PREDICTED BY IDOCK:   -7.59 KCAL/MOL
REMARK 923 INTER-LIGAND FREE ENERGY PREDICTED BY IDOCK:   -6.62 KCAL/MOL
REMARK 924 INTRA-LIGAND FREE ENERGY PREDICTED BY IDOCK:   -0.97 KCAL/MOL
REMARK 927      BINDING AFFINITY PREDICTED BY RF-SCORE:    0.00 PKD
ROOT
HETATM    1  C   UNL     1      -7.806   7.168  66.454  1.00  0.00    -0.109 C  
HETATM    2  C   UNL     1      -7.662   5.789  67.067  1.00  0.00    -0.101 C  
ENDROOT
BRANCH   2   3
HETATM    3  C   UNL     1      -8.022   5.802  68.550  1.00  0.00    -0.101 C  
BRANCH   3   4
HETATM    4  C   UNL     1      -8.586   7.150  68.986  1.00  0.00    -0.129 C  
BRANCH   4   5
HETATM    5  C   UNL     1      -8.171   7.455  70.398  1.00  0.00    -0.121 C  
HETATM    6  N   UNL     1      -7.166   6.817  70.918  1.00  0.00    -0.072 NA 
HETATM    7  C   UNL     1      -6.997   7.414  72.266  1.00  0.00    -0.063 C  
HETATM    8  C   UNL     1      -8.257   8.247  72.433  1.00  0.00    -0.155 C  
HETATM    9  C   UNL     1      -5.759   8.317  72.268  1.00  0.00    -0.044 C  
HETATM   10  O   UNL     1      -8.699   8.714  73.472  1.00  0.00    -0.305 OA 
HETATM   11  N   UNL     1      -8.787   8.368  71.173  1.00  0.00    -0.149 N  
HETATM   12  C   UNL     1      -5.221   8.175  73.683  1.00  0.00    -0.046 C  
HETATM   13  C   UNL     1      -5.413   6.695  73.973  1.00  0.00    -0.050 C  
HETATM   14  C   UNL     1      -6.757   6.345  73.331  1.00  0.00    -0.074 C  
BRANCH  11  15
HETATM   15  C   UNL     1      -9.919   9.249  70.894  1.00  0.00    -0.297 C  
BRANCH  15  16
HETATM   16  C   UNL     1      -9.895   9.785  69.473  1.00  0.00    -0.230 A  
HETATM   17  C   UNL     1     -10.833   9.367  68.530  1.00  0.00    -0.149 A  
HETATM   18  C   UNL     1     -10.658   9.652  67.168  1.00  0.00    -0.298 A  
HETATM   19  C   UNL     1      -9.577  10.424  66.698  1.00  0.00    -0.219 A  
HETATM   20  C   UNL     1      -8.777  11.017  67.685  1.00  0.00    -0.128 A  
HETATM   21  C   UNL     1      -8.893  10.662  69.042  1.00  0.00    -0.154 A  
BRANCH  19  22
HETATM   22  C   UNL     1      -9.294  10.528  65.225  1.00  0.00    -0.258 A  
HETATM   23  C   UNL     1      -8.180   9.823  64.698  1.00  0.00    -0.150 A  
HETATM   24  C   UNL     1      -7.760   9.946  63.368  1.00  0.00    -0.145 A  
HETATM   25  C   UNL     1      -8.468  10.749  62.493  1.00  0.00    -0.276 A  
HETATM   26  C   UNL     1      -9.591  11.427  62.954  1.00  0.00    -0.366 A  
HETATM   27  C   UNL     1     -10.012  11.348  64.308  1.00  0.00    -0.329 A  
BRANCH  27  28
HETATM   28  C   UNL     1     -11.162  12.183  64.649  1.00  0.00    -0.323 A  
HETATM   29  N   UNL     1     -12.422  11.915  64.247  1.00  0.00    -0.252 NA 
HETATM   30  N   UNL     1     -13.070  12.962  64.777  1.00  0.00    -0.796 NA 
HETATM   31  H   UNL     1     -14.076  13.084  64.670  1.00  0.00     0.000 HD 
HETATM   32  N   UNL     1     -12.320  13.835  65.453  1.00  0.00    -0.445 NA 
HETATM   33  N   UNL     1     -11.085  13.365  65.349  1.00  0.00    -0.285 NA 
ENDBRANCH  27  28
ENDBRANCH  19  22
ENDBRANCH  15  16
ENDBRANCH  11  15
ENDBRANCH   4   5
ENDBRANCH   3   4
ENDBRANCH   2   3
TORSDOF 7
ENDMDL
MODEL      201
REMARK 921   NORMALIZED FREE ENERGY PREDICTED BY IDOCK:   -4.00 KCAL/MOL
REMARK 922        TOTAL FREE ENERGY PREDICTED BY IDOCK:   -7.58 KCAL/MOL
REMARK 923 INTER-LIGAND FREE ENERGY PREDICTED BY IDOCK:   -5.95 KCAL/MOL
REMARK 924 INTRA-LIGAND FREE ENERGY PREDICTED BY IDOCK:   -1.63 KCAL/MOL
REMARK 927      BINDING AFFINITY PREDICTED BY RF-SCORE:    0.00 PKD
ROOT
HETATM    1  C   UNL     1      -6.202  10.118  69.390  1.00  0.00    -0.046 C  
HETATM    2  C   UNL     1      -6.409   8.664  69.016  1.00  0.00    -0.044 C  
ENDROOT
BRANCH   2   3
HETATM    3  C   UNL     1      -7.036   8.532  67.631  1.00  0.00    -0.078 C  
BRANCH   3   4
HETATM    4  C   UNL     1      -7.496   7.106  67.349  1.00  0.00    -0.100 C  
BRANCH   4   5
HETATM    5  C   UNL     1      -8.566   6.702  68.323  1.00  0.00    -0.119 C  
HETATM    6  N   UNL     1      -8.258   5.934  69.324  1.00  0.00    -0.112 NA 
HETATM    7  C   UNL     1      -9.515   5.804  70.101  1.00  0.00    -0.160 C  
HETATM    8  C   UNL     1     -10.557   6.397  69.169  1.00  0.00    -0.255 C  
HETATM    9  C   UNL     1      -9.408   6.642  71.381  1.00  0.00    -0.151 C  
HETATM   10  O   UNL     1     -11.771   6.280  69.251  1.00  0.00    -0.262 OA 
HETATM   11  N   UNL     1      -9.850   7.095  68.223  1.00  0.00    -0.148 N  
HETATM   12  C   UNL     1     -10.223   5.851  72.391  1.00  0.00    -0.217 C  
HETATM   13  C   UNL     1      -9.854   4.411  72.072  1.00  0.00    -0.240 C  
HETATM   14  C   UNL     1      -9.758   4.363  70.546  1.00  0.00    -0.287 C  
BRANCH  11  15
HETATM   15  C   UNL     1     -10.512   7.952  67.242  1.00  0.00    -0.320 C  
BRANCH  15  16
HETATM   16  C   UNL     1     -10.206   9.423  67.463  1.00  0.00    -0.288 A  
HETATM   17  C   UNL     1      -9.843  10.251  66.403  1.00  0.00    -0.272 A  
HETATM   18  C   UNL     1      -9.311  11.527  66.637  1.00  0.00    -0.201 A  
HETATM   19  C   UNL     1      -9.183  12.058  67.936  1.00  0.00    -0.190 A  
HETATM   20  C   UNL     1      -9.761  11.299  68.963  1.00  0.00    -0.072 A  
HETATM   21  C   UNL     1     -10.211   9.983  68.746  1.00  0.00    -0.201 A  
BRANCH  19  22
HETATM   22  C   UNL     1      -8.413  13.327  68.171  1.00  0.00    -0.173 A  
HETATM   23  C   UNL     1      -7.021  13.336  67.895  1.00  0.00    -0.137 A  
HETATM   24  C   UNL     1      -6.192  14.425  68.191  1.00  0.00    -0.142 A  
HETATM   25  C   UNL     1      -6.732  15.574  68.737  1.00  0.00    -0.114 A  
HETATM   26  C   UNL     1      -8.099  15.628  68.987  1.00  0.00    -0.222 A  
HETATM   27  C   UNL     1      -8.951  14.522  68.732  1.00  0.00    -0.157 A  
BRANCH  27  28
HETATM   28  C   UNL     1     -10.347  14.711  69.125  1.00  0.00    -0.216 A  
HETATM   29  N   UNL     1     -10.731  15.496  70.153  1.00  0.00    -0.313 NA 
HETATM   30  N   UNL     1     -12.057  15.306  70.117  1.00  0.00    -0.335 NA 
HETATM   31  H   UNL     1     -12.686  15.767  70.774  1.00  0.00     0.000 HD 
HETATM   32  N   UNL     1     -12.505  14.479  69.170  1.00  0.00    -0.099 NA 
HETATM   33  N   UNL     1     -11.412  14.062  68.547  1.00  0.00    -0.282 NA 
ENDBRANCH  27  28
ENDBRANCH  19  22
ENDBRANCH  15  16
ENDBRANCH  11  15
ENDBRANCH   4   5
ENDBRANCH   3   4
ENDBRANCH   2   3
TORSDOF 7
ENDMDL
MODEL      202
REMARK 921   NORMALIZED FREE ENERGY PREDICTED BY IDOCK:   -3.98 KCAL/MOL
REMARK 922        TOTAL FREE ENERGY PREDICTED BY IDOCK:   -7.56 KCAL/MOL
REMARK 923 INTER-LIGAND FREE ENERGY PREDICTED BY IDOCK:   -6.55 KCAL/MOL
REMARK 924 INTRA-LIGAND FREE ENERGY PREDICTED BY IDOCK:   -1.01 KCAL/MOL
REMARK 927      BINDING AFFINITY PREDICTED BY RF-SCORE:    0.00 PKD
ROOT
HETATM    1  C   UNL     1     -10.298  20.339  68.209  1.00  0.00    -0.337 C  
HETATM    2  C   UNL     1     -10.044  20.086  66.736  1.00  0.00    -0.607 C  
ENDROOT
BRANCH   2   3
HETATM    3  C   UNL     1     -10.442  18.666  66.341  1.00  0.00    -0.463 C  
BRANCH   3   4
HETATM    4  C   UNL     1     -10.667  17.779  67.561  1.00  0.00    -0.315 C  
BRANCH   4   5
HETATM    5  C   UNL     1      -9.515  16.830  67.735  1.00  0.00    -0.228 C  
HETATM    6  N   UNL     1      -8.609  17.088  68.630  1.00  0.00    -0.263 NA 
HETATM    7  C   UNL     1      -7.686  15.928  68.577  1.00  0.00    -0.147 C  
HETATM    8  C   UNL     1      -8.124  15.198  67.318  1.00  0.00    -0.201 C  
HETATM    9  C   UNL     1      -7.912  15.045  69.809  1.00  0.00     0.025 C  
HETATM   10  O   UNL     1      -7.505  14.336  66.713  1.00  0.00     0.243 OA 
HETATM   11  N   UNL     1      -9.361  15.707  67.010  1.00  0.00    -0.219 N  
HETATM   12  C   UNL     1      -6.530  14.482  70.099  1.00  0.00    -0.156 C  
HETATM   13  C   UNL     1      -5.619  15.671  69.841  1.00  0.00    -0.132 C  
HETATM   14  C   UNL     1      -6.224  16.367  68.620  1.00  0.00    -0.130 C  
BRANCH  11  15
HETATM   15  C   UNL     1     -10.189  15.132  65.953  1.00  0.00    -0.324 C  
BRANCH  15  16
HETATM   16  C   UNL     1     -10.276  13.619  66.048  1.00  0.00    -0.312 A  
HETATM   17  C   UNL     1     -10.487  12.985  67.271  1.00  0.00    -0.238 A  
HETATM   18  C   UNL     1     -10.306  11.600  67.402  1.00  0.00    -0.231 A  
HETATM   19  C   UNL     1      -9.976  10.780  66.305  1.00  0.00    -0.272 A  
HETATM   20  C   UNL     1      -9.991  11.408  65.051  1.00  0.00    -0.312 A  
HETATM   21  C   UNL     1     -10.080  12.806  64.925  1.00  0.00    -0.235 A  
BRANCH  19  22
HETATM   22  C   UNL     1      -9.576   9.347  66.513  1.00  0.00    -0.267 A  
HETATM   23  C   UNL     1     -10.578   8.410  66.879  1.00  0.00    -0.285 A  
HETATM   24  C   UNL     1     -10.294   7.080  67.211  1.00  0.00    -0.331 A  
HETATM   25  C   UNL     1      -8.993   6.617  67.149  1.00  0.00    -0.118 A  
HETATM   26  C   UNL     1      -7.982   7.487  66.756  1.00  0.00    -0.115 A  
HETATM   27  C   UNL     1      -8.242   8.849  66.452  1.00  0.00    -0.115 A  
BRANCH  27  28
HETATM   28  C   UNL     1      -7.061   9.650  66.135  1.00  0.00    -0.094 A  
HETATM   29  N   UNL     1      -6.505   9.702  64.906  1.00  0.00    -0.086 NA 
HETATM   30  N   UNL     1      -5.469  10.517  65.146  1.00  0.00    -0.133 NA 
HETATM   31  H   UNL     1      -4.813  10.787  64.414  1.00  0.00     0.000 HD 
HETATM   32  N   UNL     1      -5.346  10.955  66.401  1.00  0.00    -0.083 NA 
HETATM   33  N   UNL     1      -6.343  10.376  67.056  1.00  0.00    -0.070 NA 
ENDBRANCH  27  28
ENDBRANCH  19  22
ENDBRANCH  15  16
ENDBRANCH  11  15
ENDBRANCH   4   5
ENDBRANCH   3   4
ENDBRANCH   2   3
TORSDOF 7
ENDMDL
MODEL      203
REMARK 921   NORMALIZED FREE ENERGY PREDICTED BY IDOCK:   -3.98 KCAL/MOL
REMARK 922        TOTAL FREE ENERGY PREDICTED BY IDOCK:   -7.56 KCAL/MOL
REMARK 923 INTER-LIGAND FREE ENERGY PREDICTED BY IDOCK:   -6.12 KCAL/MOL
REMARK 924 INTRA-LIGAND FREE ENERGY PREDICTED BY IDOCK:   -1.44 KCAL/MOL
REMARK 927      BINDING AFFINITY PREDICTED BY RF-SCORE:    0.00 PKD
ROOT
HETATM    1  C   UNL     1      -5.850  11.069  67.947  1.00  0.00    -0.046 C  
HETATM    2  C   UNL     1      -6.529  11.739  69.124  1.00  0.00    -0.097 C  
ENDROOT
BRANCH   2   3
HETATM    3  C   UNL     1      -7.794  12.474  68.691  1.00  0.00    -0.048 C  
BRANCH   3   4
HETATM    4  C   UNL     1      -7.701  12.963  67.250  1.00  0.00    -0.122 C  
BRANCH   4   5
HETATM    5  C   UNL     1      -8.795  13.953  66.964  1.00  0.00    -0.218 C  
HETATM    6  N   UNL     1      -8.775  15.111  67.553  1.00  0.00    -0.170 NA 
HETATM    7  C   UNL     1      -9.937  15.840  66.990  1.00  0.00    -0.239 C  
HETATM    8  C   UNL     1     -10.696  14.755  66.244  1.00  0.00    -0.313 C  
HETATM    9  C   UNL     1      -9.439  16.909  66.010  1.00  0.00    -0.227 C  
HETATM   10  O   UNL     1     -11.848  14.805  65.840  1.00  0.00    -0.314 OA 
HETATM   11  N   UNL     1      -9.814  13.711  66.117  1.00  0.00    -0.299 N  
HETATM   12  C   UNL     1     -10.455  18.029  66.163  1.00  0.00    -0.336 C  
HETATM   13  C   UNL     1     -10.715  18.050  67.660  1.00  0.00    -0.360 C  
HETATM   14  C   UNL     1     -10.720  16.578  68.075  1.00  0.00    -0.343 C  
BRANCH  11  15
HETATM   15  C   UNL     1     -10.119  12.538  65.302  1.00  0.00    -0.257 C  
BRANCH  15  16
HETATM   16  C   UNL     1      -9.803  11.239  66.022  1.00  0.00    -0.267 A  
HETATM   17  C   UNL     1      -8.727  10.443  65.632  1.00  0.00    -0.184 A  
HETATM   18  C   UNL     1      -8.591   9.133  66.113  1.00  0.00    -0.149 A  
HETATM   19  C   UNL     1      -9.483   8.585  67.056  1.00  0.00    -0.223 A  
HETATM   20  C   UNL     1     -10.420   9.478  67.597  1.00  0.00    -0.321 A  
HETATM   21  C   UNL     1     -10.618  10.760  67.054  1.00  0.00    -0.312 A  
BRANCH  19  22
HETATM   22  C   UNL     1      -9.444   7.119  67.386  1.00  0.00    -0.156 A  
HETATM   23  C   UNL     1     -10.377   6.258  66.753  1.00  0.00    -0.285 A  
HETATM   24  C   UNL     1     -10.503   4.901  67.076  1.00  0.00    -0.164 A  
HETATM   25  C   UNL     1      -9.666   4.337  68.020  1.00  0.00    -0.168 A  
HETATM   26  C   UNL     1      -8.707   5.133  68.638  1.00  0.00    -0.098 A  
HETATM   27  C   UNL     1      -8.588   6.519  68.354  1.00  0.00    -0.119 A  
BRANCH  27  28
HETATM   28  C   UNL     1      -7.586   7.229  69.146  1.00  0.00    -0.102 A  
HETATM   29  N   UNL     1      -6.262   6.973  69.076  1.00  0.00    -0.026 NA 
HETATM   30  N   UNL     1      -5.802   7.838  69.990  1.00  0.00    -0.023 NA 
HETATM   31  H   UNL     1      -4.809   7.921  70.202  1.00  0.00     0.000 HD 
HETATM   32  N   UNL     1      -6.722   8.586  70.604  1.00  0.00    -0.038 NA 
HETATM   33  N   UNL     1      -7.876   8.180  70.096  1.00  0.00    -0.096 NA 
ENDBRANCH  27  28
ENDBRANCH  19  22
ENDBRANCH  15  16
ENDBRANCH  11  15
ENDBRANCH   4   5
ENDBRANCH   3   4
ENDBRANCH   2   3
TORSDOF 7
ENDMDL
MODEL      204
REMARK 921   NORMALIZED FREE ENERGY PREDICTED BY IDOCK:   -3.97 KCAL/MOL
REMARK 922        TOTAL FREE ENERGY PREDICTED BY IDOCK:   -7.55 KCAL/MOL
REMARK 923 INTER-LIGAND FREE ENERGY PREDICTED BY IDOCK:   -6.60 KCAL/MOL
REMARK 924 INTRA-LIGAND FREE ENERGY PREDICTED BY IDOCK:   -0.95 KCAL/MOL
REMARK 927      BINDING AFFINITY PREDICTED BY RF-SCORE:    0.00 PKD
ROOT
HETATM    1  C   UNL     1     -10.968  19.378  65.568  1.00  0.00    -0.079 C  
HETATM    2  C   UNL     1     -10.351  18.013  65.795  1.00  0.00    -0.178 C  
ENDROOT
BRANCH   2   3
HETATM    3  C   UNL     1     -10.982  17.312  66.994  1.00  0.00     0.091 C  
BRANCH   3   4
HETATM    4  C   UNL     1     -10.567  17.957  68.312  1.00  0.00    -0.314 C  
BRANCH   4   5
HETATM    5  C   UNL     1      -9.069  18.036  68.406  1.00  0.00    -0.286 C  
HETATM    6  N   UNL     1      -8.457  19.084  67.943  1.00  0.00    -0.289 NA 
HETATM    7  C   UNL     1      -7.027  18.858  68.264  1.00  0.00    -0.250 C  
HETATM    8  C   UNL     1      -6.999  17.404  68.703  1.00  0.00    -0.226 C  
HETATM    9  C   UNL     1      -6.618  19.772  69.425  1.00  0.00    -0.390 C  
HETATM   10  O   UNL     1      -6.016  16.686  68.815  1.00  0.00    -0.134 OA 
HETATM   11  N   UNL     1      -8.307  17.070  68.952  1.00  0.00    -0.233 N  
HETATM   12  C   UNL     1      -5.163  20.094  69.126  1.00  0.00    -0.232 C  
HETATM   13  C   UNL     1      -5.161  20.286  67.618  1.00  0.00    -0.194 C  
HETATM   14  C   UNL     1      -6.120  19.219  67.089  1.00  0.00    -0.183 C  
BRANCH  11  15
HETATM   15  C   UNL     1      -8.674  15.795  69.562  1.00  0.00    -0.160 C  
BRANCH  15  16
HETATM   16  C   UNL     1      -8.449  14.622  68.624  1.00  0.00    -0.164 A  
HETATM   17  C   UNL     1      -9.161  14.505  67.432  1.00  0.00    -0.202 A  
HETATM   18  C   UNL     1      -9.149  13.307  66.702  1.00  0.00    -0.181 A  
HETATM   19  C   UNL     1      -8.371  12.199  67.094  1.00  0.00    -0.183 A  
HETATM   20  C   UNL     1      -7.495  12.420  68.166  1.00  0.00    -0.118 A  
HETATM   21  C   UNL     1      -7.570  13.583  68.955  1.00  0.00    -0.002 A  
BRANCH  19  22
HETATM   22  C   UNL     1      -8.545  10.866  66.423  1.00  0.00    -0.160 A  
HETATM   23  C   UNL     1      -7.681  10.532  65.347  1.00  0.00    -0.106 A  
HETATM   24  C   UNL     1      -7.834   9.371  64.579  1.00  0.00    -0.121 A  
HETATM   25  C   UNL     1      -8.836   8.469  64.885  1.00  0.00    -0.029 A  
HETATM   26  C   UNL     1      -9.682   8.733  65.957  1.00  0.00    -0.276 A  
HETATM   27  C   UNL     1      -9.570   9.923  66.724  1.00  0.00    -0.231 A  
BRANCH  27  28
HETATM   28  C   UNL     1     -10.584  10.088  67.763  1.00  0.00    -0.261 A  
HETATM   29  N   UNL     1     -10.775   9.205  68.766  1.00  0.00    -0.177 NA 
HETATM   30  N   UNL     1     -11.805   9.781  69.400  1.00  0.00    -0.378 NA 
HETATM   31  H   UNL     1     -12.220   9.372  70.237  1.00  0.00     0.000 HD 
HETATM   32  N   UNL     1     -12.255  10.921  68.873  1.00  0.00    -0.466 NA 
HETATM   33  N   UNL     1     -11.501  11.112  67.799  1.00  0.00    -0.483 NA 
ENDBRANCH  27  28
ENDBRANCH  19  22
ENDBRANCH  15  16
ENDBRANCH  11  15
ENDBRANCH   4   5
ENDBRANCH   3   4
ENDBRANCH   2   3
TORSDOF 7
ENDMDL
MODEL      205
REMARK 921   NORMALIZED FREE ENERGY PREDICTED BY IDOCK:   -3.97 KCAL/MOL
REMARK 922        TOTAL FREE ENERGY PREDICTED BY IDOCK:   -7.54 KCAL/MOL
REMARK 923 INTER-LIGAND FREE ENERGY PREDICTED BY IDOCK:   -5.78 KCAL/MOL
REMARK 924 INTRA-LIGAND FREE ENERGY PREDICTED BY IDOCK:   -1.76 KCAL/MOL
REMARK 927      BINDING AFFINITY PREDICTED BY RF-SCORE:    0.00 PKD
ROOT
HETATM    1  C   UNL     1      -6.639   9.067  71.928  1.00  0.00     0.012 C  
HETATM    2  C   UNL     1      -7.186   8.209  73.050  1.00  0.00    -0.147 C  
ENDROOT
BRANCH   2   3
HETATM    3  C   UNL     1      -7.516   6.801  72.562  1.00  0.00    -0.091 C  
BRANCH   3   4
HETATM    4  C   UNL     1      -8.836   6.297  73.133  1.00  0.00    -0.129 C  
BRANCH   4   5
HETATM    5  C   UNL     1      -9.992   6.880  72.369  1.00  0.00    -0.165 C  
HETATM    6  N   UNL     1     -10.757   7.757  72.946  1.00  0.00    -0.358 NA 
HETATM    7  C   UNL     1     -11.725   8.161  71.896  1.00  0.00    -0.310 C  
HETATM    8  C   UNL     1     -11.491   7.134  70.801  1.00  0.00    -0.305 C  
HETATM    9  C   UNL     1     -11.370   9.564  71.393  1.00  0.00    -0.462 C  
HETATM   10  O   UNL     1     -12.221   6.890  69.852  1.00  0.00    -0.039 OA 
HETATM   11  N   UNL     1     -10.289   6.545  71.099  1.00  0.00    -0.203 N  
HETATM   12  C   UNL     1     -12.722  10.169  71.049  1.00  0.00    -0.481 C  
HETATM   13  C   UNL     1     -13.610   9.678  72.180  1.00  0.00    -0.471 C  
HETATM   14  C   UNL     1     -13.149   8.243  72.443  1.00  0.00    -0.200 C  
BRANCH  11  15
HETATM   15  C   UNL     1      -9.635   5.617  70.180  1.00  0.00    -0.167 C  
BRANCH  15  16
HETATM   16  C   UNL     1      -9.175   6.298  68.904  1.00  0.00    -0.123 A  
HETATM   17  C   UNL     1      -9.583   5.837  67.653  1.00  0.00    -0.119 A  
HETATM   18  C   UNL     1      -8.960   6.291  66.482  1.00  0.00    -0.150 A  
HETATM   19  C   UNL     1      -7.952   7.276  66.503  1.00  0.00    -0.115 A  
HETATM   20  C   UNL     1      -7.720   7.882  67.746  1.00  0.00    -0.121 A  
HETATM   21  C   UNL     1      -8.274   7.369  68.934  1.00  0.00    -0.129 A  
BRANCH  19  22
HETATM   22  C   UNL     1      -7.154   7.582  65.266  1.00  0.00    -0.063 A  
HETATM   23  C   UNL     1      -6.136   6.674  64.876  1.00  0.00    -0.035 A  
HETATM   24  C   UNL     1      -5.260   6.923  63.812  1.00  0.00    -0.028 A  
HETATM   25  C   UNL     1      -5.395   8.077  63.063  1.00  0.00    -0.051 A  
HETATM   26  C   UNL     1      -6.406   8.977  63.382  1.00  0.00    -0.089 A  
HETATM   27  C   UNL     1      -7.280   8.764  64.481  1.00  0.00    -0.096 A  
BRANCH  27  28
HETATM   28  C   UNL     1      -8.234   9.842  64.732  1.00  0.00    -0.151 A  
HETATM   29  N   UNL     1      -7.989  10.874  65.567  1.00  0.00    -0.064 NA 
HETATM   30  N   UNL     1      -9.148  11.539  65.473  1.00  0.00    -0.374 NA 
HETATM   31  H   UNL     1      -9.318  12.403  65.987  1.00  0.00     0.000 HD 
HETATM   32  N   UNL     1     -10.068  11.003  64.667  1.00  0.00    -0.286 NA 
HETATM   33  N   UNL     1      -9.506   9.893  64.212  1.00  0.00    -0.269 NA 
ENDBRANCH  27  28
ENDBRANCH  19  22
ENDBRANCH  15  16
ENDBRANCH  11  15
ENDBRANCH   4   5
ENDBRANCH   3   4
ENDBRANCH   2   3
TORSDOF 7
ENDMDL
MODEL      206
REMARK 921   NORMALIZED FREE ENERGY PREDICTED BY IDOCK:   -3.96 KCAL/MOL
REMARK 922        TOTAL FREE ENERGY PREDICTED BY IDOCK:   -7.53 KCAL/MOL
REMARK 923 INTER-LIGAND FREE ENERGY PREDICTED BY IDOCK:   -7.44 KCAL/MOL
REMARK 924 INTRA-LIGAND FREE ENERGY PREDICTED BY IDOCK:   -0.09 KCAL/MOL
REMARK 927      BINDING AFFINITY PREDICTED BY RF-SCORE:    0.00 PKD
ROOT
HETATM    1  C   UNL     1      -8.717  15.931  66.302  1.00  0.00    -0.372 C  
HETATM    2  C   UNL     1      -9.333  14.598  66.676  1.00  0.00    -0.293 C  
ENDROOT
BRANCH   2   3
HETATM    3  C   UNL     1      -9.823  14.599  68.121  1.00  0.00    -0.224 C  
BRANCH   3   4
HETATM    4  C   UNL     1     -10.486  13.279  68.497  1.00  0.00    -0.259 C  
BRANCH   4   5
HETATM    5  C   UNL     1     -11.396  13.470  69.678  1.00  0.00    -0.152 C  
HETATM    6  N   UNL     1     -11.442  14.629  70.264  1.00  0.00    -0.263 NA 
HETATM    7  C   UNL     1     -12.477  14.478  71.316  1.00  0.00    -0.346 C  
HETATM    8  C   UNL     1     -12.726  12.980  71.340  1.00  0.00    -0.281 C  
HETATM    9  C   UNL     1     -13.747  15.222  70.888  1.00  0.00    -0.363 C  
HETATM   10  O   UNL     1     -13.296  12.341  72.212  1.00  0.00    -0.515 OA 
HETATM   11  N   UNL     1     -12.183  12.498  70.176  1.00  0.00    -0.276 N  
HETATM   12  C   UNL     1     -14.329  15.713  72.204  1.00  0.00    -0.497 C  
HETATM   13  C   UNL     1     -13.097  16.149  72.979  1.00  0.00    -0.486 C  
HETATM   14  C   UNL     1     -12.033  15.103  72.638  1.00  0.00    -0.486 C  
BRANCH  11  15
HETATM   15  C   UNL     1     -12.372  11.113  69.752  1.00  0.00    -0.246 C  
BRANCH  15  16
HETATM   16  C   UNL     1     -11.145  10.550  69.057  1.00  0.00    -0.300 A  
HETATM   17  C   UNL     1     -11.126  10.347  67.679  1.00  0.00    -0.361 A  
HETATM   18  C   UNL     1     -10.109   9.592  67.077  1.00  0.00    -0.275 A  
HETATM   19  C   UNL     1      -9.029   9.068  67.816  1.00  0.00    -0.132 A  
HETATM   20  C   UNL     1      -8.954   9.475  69.155  1.00  0.00    -0.148 A  
HETATM   21  C   UNL     1     -10.015  10.152  69.783  1.00  0.00    -0.258 A  
BRANCH  19  22
HETATM   22  C   UNL     1      -8.079   8.086  67.189  1.00  0.00    -0.117 A  
HETATM   23  C   UNL     1      -7.648   6.975  67.960  1.00  0.00    -0.111 A  
HETATM   24  C   UNL     1      -6.675   6.071  67.515  1.00  0.00    -0.058 A  
HETATM   25  C   UNL     1      -6.123   6.215  66.256  1.00  0.00    -0.029 A  
HETATM   26  C   UNL     1      -6.545   7.266  65.448  1.00  0.00    -0.047 A  
HETATM   27  C   UNL     1      -7.500   8.217  65.894  1.00  0.00    -0.080 A  
BRANCH  27  28
HETATM   28  C   UNL     1      -7.775   9.305  64.957  1.00  0.00    -0.109 A  
HETATM   29  N   UNL     1      -7.175  10.512  65.020  1.00  0.00    -0.055 NA 
HETATM   30  N   UNL     1      -7.779  11.133  63.997  1.00  0.00     0.083 NA 
HETATM   31  H   UNL     1      -7.557  12.096  63.744  1.00  0.00     0.000 HD 
HETATM   32  N   UNL     1      -8.686  10.418  63.330  1.00  0.00    -0.185 NA 
HETATM   33  N   UNL     1      -8.720   9.251  63.958  1.00  0.00    -0.198 NA 
ENDBRANCH  27  28
ENDBRANCH  19  22
ENDBRANCH  15  16
ENDBRANCH  11  15
ENDBRANCH   4   5
ENDBRANCH   3   4
ENDBRANCH   2   3
TORSDOF 7
ENDMDL
MODEL      207
REMARK 921   NORMALIZED FREE ENERGY PREDICTED BY IDOCK:   -3.96 KCAL/MOL
REMARK 922        TOTAL FREE ENERGY PREDICTED BY IDOCK:   -7.52 KCAL/MOL
REMARK 923 INTER-LIGAND FREE ENERGY PREDICTED BY IDOCK:   -6.05 KCAL/MOL
REMARK 924 INTRA-LIGAND FREE ENERGY PREDICTED BY IDOCK:   -1.48 KCAL/MOL
REMARK 927      BINDING AFFINITY PREDICTED BY RF-SCORE:    0.00 PKD
ROOT
HETATM    1  C   UNL     1      -9.275  10.102  64.068  1.00  0.00    -0.315 C  
HETATM    2  C   UNL     1      -9.030  10.117  65.563  1.00  0.00    -0.202 C  
ENDROOT
BRANCH   2   3
HETATM    3  C   UNL     1      -9.524   8.831  66.219  1.00  0.00    -0.300 C  
BRANCH   3   4
HETATM    4  C   UNL     1      -8.491   8.251  67.180  1.00  0.00    -0.123 C  
BRANCH   4   5
HETATM    5  C   UNL     1      -9.039   8.223  68.579  1.00  0.00    -0.136 C  
HETATM    6  N   UNL     1      -9.868   7.282  68.919  1.00  0.00    -0.156 NA 
HETATM    7  C   UNL     1     -10.136   7.518  70.358  1.00  0.00    -0.196 C  
HETATM    8  C   UNL     1      -9.532   8.891  70.600  1.00  0.00    -0.214 C  
HETATM    9  C   UNL     1      -9.403   6.461  71.191  1.00  0.00    -0.166 C  
HETATM   10  O   UNL     1      -9.728   9.625  71.557  1.00  0.00    -0.091 OA 
HETATM   11  N   UNL     1      -8.716   9.128  69.522  1.00  0.00    -0.134 N  
HETATM   12  C   UNL     1     -10.322   6.248  72.383  1.00  0.00    -0.215 C  
HETATM   13  C   UNL     1     -11.705   6.282  71.754  1.00  0.00    -0.355 C  
HETATM   14  C   UNL     1     -11.621   7.375  70.687  1.00  0.00    -0.295 C  
BRANCH  11  15
HETATM   15  C   UNL     1      -7.823  10.283  69.470  1.00  0.00    -0.168 C  
BRANCH  15  16
HETATM   16  C   UNL     1      -8.458  11.473  68.774  1.00  0.00    -0.057 A  
HETATM   17  C   UNL     1      -7.683  12.399  68.079  1.00  0.00    -0.135 A  
HETATM   18  C   UNL     1      -8.227  13.624  67.665  1.00  0.00    -0.178 A  
HETATM   19  C   UNL     1      -9.584  13.947  67.866  1.00  0.00    -0.227 A  
HETATM   20  C   UNL     1     -10.388  12.912  68.363  1.00  0.00    -0.249 A  
HETATM   21  C   UNL     1      -9.834  11.720  68.863  1.00  0.00    -0.019 A  
BRANCH  19  22
HETATM   22  C   UNL     1     -10.084  15.342  67.613  1.00  0.00    -0.235 A  
HETATM   23  C   UNL     1      -9.908  15.900  66.320  1.00  0.00    -0.325 A  
HETATM   24  C   UNL     1     -10.229  17.228  66.013  1.00  0.00    -0.314 A  
HETATM   25  C   UNL     1     -10.784  18.045  66.980  1.00  0.00    -0.251 A  
HETATM   26  C   UNL     1     -11.013  17.530  68.251  1.00  0.00    -0.103 A  
HETATM   27  C   UNL     1     -10.659  16.199  68.596  1.00  0.00    -0.283 A  
BRANCH  27  28
HETATM   28  C   UNL     1     -10.891  15.837  69.993  1.00  0.00    -0.342 A  
HETATM   29  N   UNL     1      -9.921  15.386  70.817  1.00  0.00     0.461 NA 
HETATM   30  N   UNL     1     -10.633  15.175  71.932  1.00  0.00     0.019 NA 
HETATM   31  H   UNL     1     -10.204  14.825  72.788  1.00  0.00     0.000 HD 
HETATM   32  N   UNL     1     -11.937  15.450  71.856  1.00  0.00    -0.366 NA 
HETATM   33  N   UNL     1     -12.123  15.843  70.604  1.00  0.00    -0.375 NA 
ENDBRANCH  27  28
ENDBRANCH  19  22
ENDBRANCH  15  16
ENDBRANCH  11  15
ENDBRANCH   4   5
ENDBRANCH   3   4
ENDBRANCH   2   3
TORSDOF 7
ENDMDL
MODEL      208
REMARK 921   NORMALIZED FREE ENERGY PREDICTED BY IDOCK:   -3.94 KCAL/MOL
REMARK 922        TOTAL FREE ENERGY PREDICTED BY IDOCK:   -7.49 KCAL/MOL
REMARK 923 INTER-LIGAND FREE ENERGY PREDICTED BY IDOCK:   -5.82 KCAL/MOL
REMARK 924 INTRA-LIGAND FREE ENERGY PREDICTED BY IDOCK:   -1.68 KCAL/MOL
REMARK 927      BINDING AFFINITY PREDICTED BY RF-SCORE:    0.00 PKD
ROOT
HETATM    1  C   UNL     1     -11.868  13.047  68.628  1.00  0.00    -0.353 C  
HETATM    2  C   UNL     1     -11.890  12.260  69.923  1.00  0.00    -0.383 C  
ENDROOT
BRANCH   2   3
HETATM    3  C   UNL     1     -11.934  10.758  69.658  1.00  0.00    -0.385 C  
BRANCH   3   4
HETATM    4  C   UNL     1     -10.652  10.064  70.104  1.00  0.00    -0.350 C  
BRANCH   4   5
HETATM    5  C   UNL     1      -9.583  10.223  69.060  1.00  0.00    -0.203 C  
HETATM    6  N   UNL     1      -8.720  11.188  69.175  1.00  0.00    -0.009 NA 
HETATM    7  C   UNL     1      -7.790  11.000  68.035  1.00  0.00    -0.112 C  
HETATM    8  C   UNL     1      -8.499   9.962  67.181  1.00  0.00    -0.121 C  
HETATM    9  C   UNL     1      -6.460  10.443  68.553  1.00  0.00    -0.051 C  
HETATM   10  O   UNL     1      -8.259   9.676  66.017  1.00  0.00    -0.117 OA 
HETATM   11  N   UNL     1      -9.459   9.412  67.993  1.00  0.00    -0.133 N  
HETATM   12  C   UNL     1      -5.431  11.052  67.613  1.00  0.00    -0.040 C  
HETATM   13  C   UNL     1      -5.946  12.469  67.421  1.00  0.00    -0.147 C  
HETATM   14  C   UNL     1      -7.467  12.324  67.345  1.00  0.00    -0.160 C  
BRANCH  11  15
HETATM   15  C   UNL     1     -10.243   8.250  67.582  1.00  0.00    -0.231 C  
BRANCH  15  16
HETATM   16  C   UNL     1     -10.106   7.090  68.553  1.00  0.00    -0.171 A  
HETATM   17  C   UNL     1     -11.218   6.563  69.207  1.00  0.00    -0.390 A  
HETATM   18  C   UNL     1     -11.065   5.682  70.287  1.00  0.00    -0.204 A  
HETATM   19  C   UNL     1      -9.799   5.235  70.716  1.00  0.00    -0.261 A  
HETATM   20  C   UNL     1      -8.717   5.602  69.902  1.00  0.00    -0.127 A  
HETATM   21  C   UNL     1      -8.853   6.556  68.877  1.00  0.00    -0.126 A  
BRANCH  19  22
HETATM   22  C   UNL     1      -9.652   4.472  72.002  1.00  0.00    -0.209 A  
HETATM   23  C   UNL     1     -10.265   3.196  72.106  1.00  0.00    -0.143 A  
HETATM   24  C   UNL     1     -10.290   2.457  73.295  1.00  0.00    -0.214 A  
HETATM   25  C   UNL     1      -9.660   2.946  74.424  1.00  0.00    -0.121 A  
HETATM   26  C   UNL     1      -9.009   4.173  74.359  1.00  0.00    -0.105 A  
HETATM   27  C   UNL     1      -9.006   4.957  73.175  1.00  0.00    -0.111 A  
BRANCH  27  28
HETATM   28  C   UNL     1      -8.348   6.258  73.295  1.00  0.00    -0.115 A  
HETATM   29  N   UNL     1      -7.023   6.442  73.113  1.00  0.00    -0.074 NA 
HETATM   30  N   UNL     1      -6.928   7.755  73.361  1.00  0.00    -0.084 NA 
HETATM   31  H   UNL     1      -6.038   8.251  73.309  1.00  0.00     0.000 HD 
HETATM   32  N   UNL     1      -8.066   8.376  73.679  1.00  0.00    -0.375 NA 
HETATM   33  N   UNL     1      -8.981   7.418  73.675  1.00  0.00    -0.192 NA 
ENDBRANCH  27  28
ENDBRANCH  19  22
ENDBRANCH  15  16
ENDBRANCH  11  15
ENDBRANCH   4   5
ENDBRANCH   3   4
ENDBRANCH   2   3
TORSDOF 7
ENDMDL
MODEL      209
REMARK 921   NORMALIZED FREE ENERGY PREDICTED BY IDOCK:   -3.93 KCAL/MOL
REMARK 922        TOTAL FREE ENERGY PREDICTED BY IDOCK:   -7.48 KCAL/MOL
REMARK 923 INTER-LIGAND FREE ENERGY PREDICTED BY IDOCK:   -7.28 KCAL/MOL
REMARK 924 INTRA-LIGAND FREE ENERGY PREDICTED BY IDOCK:   -0.20 KCAL/MOL
REMARK 927      BINDING AFFINITY PREDICTED BY RF-SCORE:    0.00 PKD
ROOT
HETATM    1  C   UNL     1      -9.740  19.553  68.610  1.00  0.00    -0.514 C  
HETATM    2  C   UNL     1     -10.230  19.157  67.232  1.00  0.00    -0.487 C  
ENDROOT
BRANCH   2   3
HETATM    3  C   UNL     1     -10.984  17.831  67.272  1.00  0.00    -0.033 C  
BRANCH   3   4
HETATM    4  C   UNL     1     -10.719  17.066  68.564  1.00  0.00    -0.352 C  
BRANCH   4   5
HETATM    5  C   UNL     1      -9.615  16.066  68.360  1.00  0.00    -0.206 C  
HETATM    6  N   UNL     1      -8.405  16.374  68.718  1.00  0.00    -0.231 NA 
HETATM    7  C   UNL     1      -7.609  15.152  68.446  1.00  0.00    -0.117 C  
HETATM    8  C   UNL     1      -8.564  14.294  67.634  1.00  0.00    -0.183 C  
HETATM    9  C   UNL     1      -7.272  14.462  69.772  1.00  0.00     0.052 C  
HETATM   10  O   UNL     1      -8.283  13.315  66.959  1.00  0.00    -0.148 OA 
HETATM   11  N   UNL     1      -9.806  14.847  67.822  1.00  0.00    -0.216 N  
HETATM   12  C   UNL     1      -5.908  13.843  69.512  1.00  0.00    -0.099 C  
HETATM   13  C   UNL     1      -5.197  14.916  68.703  1.00  0.00    -0.095 C  
HETATM   14  C   UNL     1      -6.276  15.484  67.778  1.00  0.00    -0.178 C  
BRANCH  11  15
HETATM   15  C   UNL     1     -11.021  14.198  67.335  1.00  0.00    -0.299 C  
BRANCH  15  16
HETATM   16  C   UNL     1     -11.144  12.765  67.824  1.00  0.00    -0.289 A  
HETATM   17  C   UNL     1     -11.249  12.474  69.183  1.00  0.00    -0.297 A  
HETATM   18  C   UNL     1     -11.098  11.160  69.650  1.00  0.00    -0.297 A  
HETATM   19  C   UNL     1     -10.907  10.072  68.775  1.00  0.00    -0.252 A  
HETATM   20  C   UNL     1     -11.030  10.361  67.409  1.00  0.00    -0.335 A  
HETATM   21  C   UNL     1     -11.088  11.685  66.936  1.00  0.00    -0.365 A  
BRANCH  19  22
HETATM   22  C   UNL     1     -10.532   8.718  69.309  1.00  0.00    -0.228 A  
HETATM   23  C   UNL     1      -9.546   7.967  68.618  1.00  0.00    -0.155 A  
HETATM   24  C   UNL     1      -9.211   6.651  68.961  1.00  0.00    -0.131 A  
HETATM   25  C   UNL     1      -9.819   6.044  70.043  1.00  0.00    -0.215 A  
HETATM   26  C   UNL     1     -10.761   6.756  70.777  1.00  0.00    -0.270 A  
HETATM   27  C   UNL     1     -11.145   8.076  70.423  1.00  0.00    -0.238 A  
BRANCH  27  28
HETATM   28  C   UNL     1     -12.206   8.655  71.247  1.00  0.00    -0.281 A  
HETATM   29  N   UNL     1     -13.483   8.216  71.233  1.00  0.00    -0.184 NA 
HETATM   30  N   UNL     1     -14.038   9.069  72.104  1.00  0.00    -0.418 NA 
HETATM   31  H   UNL     1     -15.028   9.024  72.347  1.00  0.00     0.000 HD 
HETATM   32  N   UNL     1     -13.221   9.981  72.635  1.00  0.00     0.029 NA 
HETATM   33  N   UNL     1     -12.047   9.748  72.066  1.00  0.00    -0.250 NA 
ENDBRANCH  27  28
ENDBRANCH  19  22
ENDBRANCH  15  16
ENDBRANCH  11  15
ENDBRANCH   4   5
ENDBRANCH   3   4
ENDBRANCH   2   3
TORSDOF 7
ENDMDL
MODEL      210
REMARK 921   NORMALIZED FREE ENERGY PREDICTED BY IDOCK:   -3.90 KCAL/MOL
REMARK 922        TOTAL FREE ENERGY PREDICTED BY IDOCK:   -7.44 KCAL/MOL
REMARK 923 INTER-LIGAND FREE ENERGY PREDICTED BY IDOCK:   -5.75 KCAL/MOL
REMARK 924 INTRA-LIGAND FREE ENERGY PREDICTED BY IDOCK:   -1.69 KCAL/MOL
REMARK 927      BINDING AFFINITY PREDICTED BY RF-SCORE:    0.00 PKD
ROOT
HETATM    1  C   UNL     1     -11.626  12.402  67.283  1.00  0.00    -0.435 C  
HETATM    2  C   UNL     1     -10.926  12.044  68.578  1.00  0.00    -0.280 C  
ENDROOT
BRANCH   2   3
HETATM    3  C   UNL     1     -10.466  10.589  68.574  1.00  0.00    -0.210 C  
BRANCH   3   4
HETATM    4  C   UNL     1      -8.992  10.458  68.944  1.00  0.00    -0.170 C  
BRANCH   4   5
HETATM    5  C   UNL     1      -8.223   9.842  67.809  1.00  0.00    -0.114 C  
HETATM    6  N   UNL     1      -8.701   9.915  66.603  1.00  0.00    -0.128 NA 
HETATM    7  C   UNL     1      -7.667   9.282  65.749  1.00  0.00    -0.098 C  
HETATM    8  C   UNL     1      -6.736   8.633  66.760  1.00  0.00    -0.069 C  
HETATM    9  C   UNL     1      -6.924  10.369  64.964  1.00  0.00    -0.064 C  
HETATM   10  O   UNL     1      -5.888   7.781  66.541  1.00  0.00    -0.038 OA 
HETATM   11  N   UNL     1      -7.045   9.209  67.966  1.00  0.00    -0.077 N  
HETATM   12  C   UNL     1      -6.578   9.683  63.652  1.00  0.00    -0.111 C  
HETATM   13  C   UNL     1      -7.828   8.874  63.352  1.00  0.00    -0.144 C  
HETATM   14  C   UNL     1      -8.286   8.345  64.713  1.00  0.00    -0.162 C  
BRANCH  11  15
HETATM   15  C   UNL     1      -6.244   8.968  69.164  1.00  0.00    -0.042 C  
BRANCH  15  16
HETATM   16  C   UNL     1      -6.863   7.917  70.069  1.00  0.00    -0.045 A  
HETATM   17  C   UNL     1      -7.311   6.700  69.558  1.00  0.00    -0.091 A  
HETATM   18  C   UNL     1      -8.112   5.848  70.332  1.00  0.00    -0.107 A  
HETATM   19  C   UNL     1      -8.442   6.140  71.670  1.00  0.00    -0.130 A  
HETATM   20  C   UNL     1      -7.796   7.254  72.226  1.00  0.00    -0.097 A  
HETATM   21  C   UNL     1      -7.068   8.159  71.432  1.00  0.00    -0.068 A  
BRANCH  19  22
HETATM   22  C   UNL     1      -9.473   5.326  72.400  1.00  0.00    -0.160 A  
HETATM   23  C   UNL     1      -9.081   4.084  72.962  1.00  0.00    -0.123 A  
HETATM   24  C   UNL     1      -9.986   3.196  73.557  1.00  0.00    -0.172 A  
HETATM   25  C   UNL     1     -11.322   3.536  73.654  1.00  0.00    -0.212 A  
HETATM   26  C   UNL     1     -11.747   4.763  73.154  1.00  0.00    -0.213 A  
HETATM   27  C   UNL     1     -10.853   5.660  72.512  1.00  0.00    -0.299 A  
BRANCH  27  28
HETATM   28  C   UNL     1     -11.472   6.869  71.971  1.00  0.00    -0.274 A  
HETATM   29  N   UNL     1     -11.996   6.946  70.729  1.00  0.00    -0.378 NA 
HETATM   30  N   UNL     1     -12.389   8.227  70.714  1.00  0.00    -0.494 NA 
HETATM   31  H   UNL     1     -12.846   8.642  69.903  1.00  0.00     0.000 HD 
HETATM   32  N   UNL     1     -12.146   8.928  71.824  1.00  0.00    -0.337 NA 
HETATM   33  N   UNL     1     -11.525   8.077  72.627  1.00  0.00    -0.405 NA 
ENDBRANCH  27  28
ENDBRANCH  19  22
ENDBRANCH  15  16
ENDBRANCH  11  15
ENDBRANCH   4   5
ENDBRANCH   3   4
ENDBRANCH   2   3
TORSDOF 7
ENDMDL
MODEL      211
REMARK 921   NORMALIZED FREE ENERGY PREDICTED BY IDOCK:   -3.87 KCAL/MOL
REMARK 922        TOTAL FREE ENERGY PREDICTED BY IDOCK:   -7.41 KCAL/MOL
REMARK 923 INTER-LIGAND FREE ENERGY PREDICTED BY IDOCK:   -6.29 KCAL/MOL
REMARK 924 INTRA-LIGAND FREE ENERGY PREDICTED BY IDOCK:   -1.12 KCAL/MOL
REMARK 927      BINDING AFFINITY PREDICTED BY RF-SCORE:    0.00 PKD
ROOT
HETATM    1  C   UNL     1      -7.277   8.608  72.182  1.00  0.00    -0.058 C  
HETATM    2  C   UNL     1      -7.640   7.225  72.684  1.00  0.00    -0.090 C  
ENDROOT
BRANCH   2   3
HETATM    3  C   UNL     1      -6.916   6.140  71.893  1.00  0.00    -0.077 C  
BRANCH   3   4
HETATM    4  C   UNL     1      -6.772   6.511  70.421  1.00  0.00    -0.053 C  
BRANCH   4   5
HETATM    5  C   UNL     1      -7.737   5.717  69.586  1.00  0.00    -0.083 C  
HETATM    6  N   UNL     1      -7.309   4.677  68.936  1.00  0.00    -0.056 NA 
HETATM    7  C   UNL     1      -8.520   4.107  68.296  1.00  0.00    -0.093 C  
HETATM    8  C   UNL     1      -9.561   5.194  68.503  1.00  0.00    -0.140 C  
HETATM    9  C   UNL     1      -8.931   2.830  69.037  1.00  0.00    -0.172 C  
HETATM   10  O   UNL     1     -10.635   5.305  67.931  1.00  0.00    -0.135 OA 
HETATM   11  N   UNL     1      -9.044   6.019  69.470  1.00  0.00    -0.136 N  
HETATM   12  C   UNL     1      -9.521   1.959  67.939  1.00  0.00    -0.168 C  
HETATM   13  C   UNL     1      -8.587   2.211  66.767  1.00  0.00    -0.116 C  
HETATM   14  C   UNL     1      -8.256   3.702  66.847  1.00  0.00    -0.095 C  
BRANCH  11  15
HETATM   15  C   UNL     1      -9.831   7.095  70.067  1.00  0.00    -0.178 C  
BRANCH  15  16
HETATM   16  C   UNL     1      -9.846   8.345  69.205  1.00  0.00    -0.186 A  
HETATM   17  C   UNL     1     -10.885   9.270  69.295  1.00  0.00    -0.170 A  
HETATM   18  C   UNL     1     -11.037  10.276  68.329  1.00  0.00    -0.311 A  
HETATM   19  C   UNL     1     -10.121  10.443  67.272  1.00  0.00    -0.244 A  
HETATM   20  C   UNL     1      -8.969   9.646  67.333  1.00  0.00    -0.141 A  
HETATM   21  C   UNL     1      -8.856   8.579  68.243  1.00  0.00    -0.142 A  
BRANCH  19  22
HETATM   22  C   UNL     1     -10.425  11.380  66.137  1.00  0.00    -0.303 A  
HETATM   23  C   UNL     1     -10.335  10.887  64.809  1.00  0.00    -0.391 A  
HETATM   24  C   UNL     1     -10.481  11.703  63.681  1.00  0.00    -0.483 A  
HETATM   25  C   UNL     1     -10.770  13.046  63.835  1.00  0.00    -0.316 A  
HETATM   26  C   UNL     1     -10.910  13.567  65.117  1.00  0.00    -0.336 A  
HETATM   27  C   UNL     1     -10.726  12.766  66.275  1.00  0.00    -0.291 A  
BRANCH  27  28
HETATM   28  C   UNL     1     -10.827  13.482  67.545  1.00  0.00    -0.264 A  
HETATM   29  N   UNL     1     -11.991  13.671  68.203  1.00  0.00    -0.369 NA 
HETATM   30  N   UNL     1     -11.560  14.385  69.252  1.00  0.00    -0.284 NA 
HETATM   31  H   UNL     1     -12.194  14.709  69.981  1.00  0.00     0.000 HD 
HETATM   32  N   UNL     1     -10.251  14.647  69.285  1.00  0.00    -0.190 NA 
HETATM   33  N   UNL     1      -9.774  14.101  68.175  1.00  0.00    -0.218 NA 
ENDBRANCH  27  28
ENDBRANCH  19  22
ENDBRANCH  15  16
ENDBRANCH  11  15
ENDBRANCH   4   5
ENDBRANCH   3   4
ENDBRANCH   2   3
TORSDOF 7
ENDMDL
MODEL      212
REMARK 921   NORMALIZED FREE ENERGY PREDICTED BY IDOCK:   -3.87 KCAL/MOL
REMARK 922        TOTAL FREE ENERGY PREDICTED BY IDOCK:   -7.41 KCAL/MOL
REMARK 923 INTER-LIGAND FREE ENERGY PREDICTED BY IDOCK:   -5.80 KCAL/MOL
REMARK 924 INTRA-LIGAND FREE ENERGY PREDICTED BY IDOCK:   -1.60 KCAL/MOL
REMARK 927      BINDING AFFINITY PREDICTED BY RF-SCORE:    0.00 PKD
ROOT
HETATM    1  C   UNL     1     -10.997   6.615  69.900  1.00  0.00    -0.373 C  
HETATM    2  C   UNL     1     -10.197   5.358  69.625  1.00  0.00    -0.345 C  
ENDROOT
BRANCH   2   3
HETATM    3  C   UNL     1      -8.860   5.685  68.966  1.00  0.00    -0.106 C  
BRANCH   3   4
HETATM    4  C   UNL     1      -8.612   7.188  68.900  1.00  0.00    -0.129 C  
BRANCH   4   5
HETATM    5  C   UNL     1      -8.267   7.598  67.496  1.00  0.00    -0.121 C  
HETATM    6  N   UNL     1      -7.040   7.482  67.083  1.00  0.00    -0.082 NA 
HETATM    7  C   UNL     1      -7.080   7.899  65.661  1.00  0.00    -0.056 C  
HETATM    8  C   UNL     1      -8.464   8.509  65.520  1.00  0.00    -0.167 C  
HETATM    9  C   UNL     1      -6.951   6.661  64.766  1.00  0.00    -0.054 C  
HETATM   10  O   UNL     1      -8.867   9.222  64.613  1.00  0.00    -0.198 OA 
HETATM   11  N   UNL     1      -9.166   8.085  66.620  1.00  0.00    -0.169 N  
HETATM   12  C   UNL     1      -6.196   7.179  63.553  1.00  0.00    -0.044 C  
HETATM   13  C   UNL     1      -5.166   8.113  64.167  1.00  0.00    -0.040 C  
HETATM   14  C   UNL     1      -5.908   8.814  65.307  1.00  0.00    -0.048 C  
BRANCH  11  15
HETATM   15  C   UNL     1     -10.600   8.326  66.760  1.00  0.00    -0.156 C  
BRANCH  15  16
HETATM   16  C   UNL     1     -10.899   9.682  67.374  1.00  0.00    -0.242 A  
HETATM   17  C   UNL     1     -11.109  10.805  66.575  1.00  0.00    -0.061 A  
HETATM   18  C   UNL     1     -11.122  12.091  67.133  1.00  0.00    -0.344 A  
HETATM   19  C   UNL     1     -10.997  12.308  68.520  1.00  0.00    -0.275 A  
HETATM   20  C   UNL     1     -11.013  11.156  69.319  1.00  0.00    -0.300 A  
HETATM   21  C   UNL     1     -10.907   9.868  68.762  1.00  0.00    -0.240 A  
BRANCH  19  22
HETATM   22  C   UNL     1     -10.796  13.694  69.063  1.00  0.00    -0.237 A  
HETATM   23  C   UNL     1     -11.922  14.392  69.573  1.00  0.00    -0.376 A  
HETATM   24  C   UNL     1     -11.866  15.727  69.991  1.00  0.00    -0.365 A  
HETATM   25  C   UNL     1     -10.665  16.411  69.958  1.00  0.00    -0.258 A  
HETATM   26  C   UNL     1      -9.525  15.755  69.505  1.00  0.00    -0.248 A  
HETATM   27  C   UNL     1      -9.567  14.415  69.039  1.00  0.00    -0.059 A  
BRANCH  27  28
HETATM   28  C   UNL     1      -8.301  13.899  68.522  1.00  0.00    -0.132 A  
HETATM   29  N   UNL     1      -8.090  13.615  67.219  1.00  0.00    -0.167 NA 
HETATM   30  N   UNL     1      -6.831  13.159  67.274  1.00  0.00    -0.361 NA 
HETATM   31  H   UNL     1      -6.332  12.847  66.441  1.00  0.00     0.000 HD 
HETATM   32  N   UNL     1      -6.268  13.137  68.485  1.00  0.00    -0.073 NA 
HETATM   33  N   UNL     1      -7.215  13.577  69.301  1.00  0.00     0.022 NA 
ENDBRANCH  27  28
ENDBRANCH  19  22
ENDBRANCH  15  16
ENDBRANCH  11  15
ENDBRANCH   4   5
ENDBRANCH   3   4
ENDBRANCH   2   3
TORSDOF 7
ENDMDL
MODEL      213
REMARK 921   NORMALIZED FREE ENERGY PREDICTED BY IDOCK:   -3.85 KCAL/MOL
REMARK 922        TOTAL FREE ENERGY PREDICTED BY IDOCK:   -7.38 KCAL/MOL
REMARK 923 INTER-LIGAND FREE ENERGY PREDICTED BY IDOCK:   -5.98 KCAL/MOL
REMARK 924 INTRA-LIGAND FREE ENERGY PREDICTED BY IDOCK:   -1.40 KCAL/MOL
REMARK 927      BINDING AFFINITY PREDICTED BY RF-SCORE:    0.00 PKD
ROOT
HETATM    1  C   UNL     1      -6.597   9.893  65.200  1.00  0.00    -0.105 C  
HETATM    2  C   UNL     1      -5.628  10.290  66.296  1.00  0.00    -0.058 C  
ENDROOT
BRANCH   2   3
HETATM    3  C   UNL     1      -5.796  11.757  66.681  1.00  0.00    -0.049 C  
BRANCH   3   4
HETATM    4  C   UNL     1      -6.419  11.913  68.064  1.00  0.00    -0.055 C  
BRANCH   4   5
HETATM    5  C   UNL     1      -7.687  12.715  67.977  1.00  0.00    -0.139 C  
HETATM    6  N   UNL     1      -7.657  13.984  68.252  1.00  0.00    -0.124 NA 
HETATM    7  C   UNL     1      -9.039  14.458  67.995  1.00  0.00    -0.188 C  
HETATM    8  C   UNL     1      -9.819  13.166  67.824  1.00  0.00    -0.228 C  
HETATM    9  C   UNL     1      -9.063  15.269  66.694  1.00  0.00    -0.312 C  
HETATM   10  O   UNL     1     -11.033  13.028  67.856  1.00  0.00    -0.229 OA 
HETATM   11  N   UNL     1      -8.876  12.190  67.623  1.00  0.00    -0.164 N  
HETATM   12  C   UNL     1     -10.135  16.315  66.949  1.00  0.00    -0.278 C  
HETATM   13  C   UNL     1      -9.891  16.706  68.397  1.00  0.00    -0.252 C  
HETATM   14  C   UNL     1      -9.529  15.394  69.098  1.00  0.00    -0.242 C  
BRANCH  11  15
HETATM   15  C   UNL     1      -9.243  10.827  67.247  1.00  0.00    -0.147 C  
BRANCH  15  16
HETATM   16  C   UNL     1      -8.865   9.815  68.314  1.00  0.00    -0.119 A  
HETATM   17  C   UNL     1      -8.329   8.575  67.972  1.00  0.00    -0.127 A  
HETATM   18  C   UNL     1      -8.227   7.549  68.923  1.00  0.00    -0.128 A  
HETATM   19  C   UNL     1      -8.591   7.739  70.271  1.00  0.00    -0.138 A  
HETATM   20  C   UNL     1      -8.913   9.055  70.634  1.00  0.00    -0.263 A  
HETATM   21  C   UNL     1      -9.105  10.062  69.671  1.00  0.00    -0.230 A  
BRANCH  19  22
HETATM   22  C   UNL     1      -8.678   6.571  71.213  1.00  0.00    -0.130 A  
HETATM   23  C   UNL     1      -7.494   5.845  71.502  1.00  0.00    -0.094 A  
HETATM   24  C   UNL     1      -7.486   4.673  72.269  1.00  0.00    -0.083 A  
HETATM   25  C   UNL     1      -8.664   4.200  72.818  1.00  0.00    -0.108 A  
HETATM   26  C   UNL     1      -9.844   4.902  72.596  1.00  0.00    -0.200 A  
HETATM   27  C   UNL     1      -9.881   6.070  71.789  1.00  0.00    -0.189 A  
BRANCH  27  28
HETATM   28  C   UNL     1     -11.211   6.642  71.588  1.00  0.00    -0.264 A  
HETATM   29  N   UNL     1     -12.028   6.288  70.573  1.00  0.00    -0.156 NA 
HETATM   30  N   UNL     1     -13.070   7.097  70.812  1.00  0.00    -0.547 NA 
HETATM   31  H   UNL     1     -13.901   7.095  70.222  1.00  0.00     0.000 HD 
HETATM   32  N   UNL     1     -12.955   7.906  71.868  1.00  0.00    -0.316 NA 
HETATM   33  N   UNL     1     -11.749   7.648  72.355  1.00  0.00    -0.321 NA 
ENDBRANCH  27  28
ENDBRANCH  19  22
ENDBRANCH  15  16
ENDBRANCH  11  15
ENDBRANCH   4   5
ENDBRANCH   3   4
ENDBRANCH   2   3
TORSDOF 7
ENDMDL
MODEL      214
REMARK 921   NORMALIZED FREE ENERGY PREDICTED BY IDOCK:   -3.85 KCAL/MOL
REMARK 922        TOTAL FREE ENERGY PREDICTED BY IDOCK:   -7.37 KCAL/MOL
REMARK 923 INTER-LIGAND FREE ENERGY PREDICTED BY IDOCK:   -5.95 KCAL/MOL
REMARK 924 INTRA-LIGAND FREE ENERGY PREDICTED BY IDOCK:   -1.42 KCAL/MOL
REMARK 927      BINDING AFFINITY PREDICTED BY RF-SCORE:    0.00 PKD
ROOT
HETATM    1  C   UNL     1      -8.366  14.515  68.609  1.00  0.00    -0.164 C  
HETATM    2  C   UNL     1      -7.305  13.924  67.703  1.00  0.00    -0.186 C  
ENDROOT
BRANCH   2   3
HETATM    3  C   UNL     1      -7.112  12.435  67.973  1.00  0.00    -0.099 C  
BRANCH   3   4
HETATM    4  C   UNL     1      -7.579  11.580  66.800  1.00  0.00    -0.126 C  
BRANCH   4   5
HETATM    5  C   UNL     1      -9.017  11.878  66.479  1.00  0.00    -0.199 C  
HETATM    6  N   UNL     1      -9.305  12.512  65.382  1.00  0.00     0.115 NA 
HETATM    7  C   UNL     1     -10.788  12.564  65.355  1.00  0.00    -0.282 C  
HETATM    8  C   UNL     1     -11.173  12.105  66.752  1.00  0.00    -0.322 C  
HETATM    9  C   UNL     1     -11.310  11.574  64.308  1.00  0.00    -0.320 C  
HETATM   10  O   UNL     1     -12.261  12.229  67.294  1.00  0.00    -0.485 OA 
HETATM   11  N   UNL     1     -10.046  11.519  67.270  1.00  0.00    -0.197 N  
HETATM   12  C   UNL     1     -12.567  12.246  63.781  1.00  0.00    -0.577 C  
HETATM   13  C   UNL     1     -12.161  13.708  63.699  1.00  0.00    -0.397 C  
HETATM   14  C   UNL     1     -11.298  13.943  64.940  1.00  0.00    -0.349 C  
BRANCH  11  15
HETATM   15  C   UNL     1     -10.066  10.799  68.541  1.00  0.00    -0.176 C  
BRANCH  15  16
HETATM   16  C   UNL     1      -9.777   9.318  68.369  1.00  0.00    -0.168 A  
HETATM   17  C   UNL     1      -8.679   8.721  68.987  1.00  0.00    -0.133 A  
HETATM   18  C   UNL     1      -8.263   7.432  68.623  1.00  0.00    -0.125 A  
HETATM   19  C   UNL     1      -8.965   6.657  67.679  1.00  0.00    -0.111 A  
HETATM   20  C   UNL     1     -10.186   7.190  67.241  1.00  0.00    -0.315 A  
HETATM   21  C   UNL     1     -10.560   8.515  67.530  1.00  0.00    -0.284 A  
BRANCH  19  22
HETATM   22  C   UNL     1      -8.378   5.378  67.150  1.00  0.00    -0.107 A  
HETATM   23  C   UNL     1      -8.016   5.316  65.780  1.00  0.00    -0.105 A  
HETATM   24  C   UNL     1      -7.573   4.140  65.161  1.00  0.00    -0.081 A  
HETATM   25  C   UNL     1      -7.432   2.982  65.903  1.00  0.00    -0.073 A  
HETATM   26  C   UNL     1      -7.736   3.005  67.260  1.00  0.00    -0.074 A  
HETATM   27  C   UNL     1      -8.223   4.176  67.898  1.00  0.00    -0.093 A  
BRANCH  27  28
HETATM   28  C   UNL     1      -8.572   4.013  69.308  1.00  0.00    -0.078 A  
HETATM   29  N   UNL     1      -7.656   3.905  70.294  1.00  0.00    -0.045 NA 
HETATM   30  N   UNL     1      -8.462   3.746  71.353  1.00  0.00    -0.072 NA 
HETATM   31  H   UNL     1      -8.096   3.634  72.298  1.00  0.00     0.000 HD 
HETATM   32  N   UNL     1      -9.772   3.742  71.098  1.00  0.00    -0.179 NA 
HETATM   33  N   UNL     1      -9.856   3.877  69.782  1.00  0.00    -0.148 NA 
ENDBRANCH  27  28
ENDBRANCH  19  22
ENDBRANCH  15  16
ENDBRANCH  11  15
ENDBRANCH   4   5
ENDBRANCH   3   4
ENDBRANCH   2   3
TORSDOF 7
ENDMDL
MODEL      215
REMARK 921   NORMALIZED FREE ENERGY PREDICTED BY IDOCK:   -3.85 KCAL/MOL
REMARK 922        TOTAL FREE ENERGY PREDICTED BY IDOCK:   -7.37 KCAL/MOL
REMARK 923 INTER-LIGAND FREE ENERGY PREDICTED BY IDOCK:   -6.72 KCAL/MOL
REMARK 924 INTRA-LIGAND FREE ENERGY PREDICTED BY IDOCK:   -0.65 KCAL/MOL
REMARK 927      BINDING AFFINITY PREDICTED BY RF-SCORE:    0.00 PKD
ROOT
HETATM    1  C   UNL     1      -7.475   8.262  73.135  1.00  0.00    -0.155 C  
HETATM    2  C   UNL     1      -8.107   7.801  74.433  1.00  0.00    -0.276 C  
ENDROOT
BRANCH   2   3
HETATM    3  C   UNL     1      -8.539   6.340  74.350  1.00  0.00    -0.136 C  
BRANCH   3   4
HETATM    4  C   UNL     1     -10.050   6.186  74.487  1.00  0.00    -0.345 C  
BRANCH   4   5
HETATM    5  C   UNL     1     -10.746   6.816  73.314  1.00  0.00    -0.302 C  
HETATM    6  N   UNL     1     -11.258   8.004  73.442  1.00  0.00    -0.030 NA 
HETATM    7  C   UNL     1     -11.787   8.333  72.096  1.00  0.00    -0.369 C  
HETATM    8  C   UNL     1     -11.707   7.005  71.361  1.00  0.00    -0.306 C  
HETATM    9  C   UNL     1     -10.870   9.365  71.430  1.00  0.00    -0.430 C  
HETATM   10  O   UNL     1     -12.264   6.707  70.316  1.00  0.00    -0.294 OA 
HETATM   11  N   UNL     1     -10.874   6.218  72.115  1.00  0.00    -0.231 N  
HETATM   12  C   UNL     1     -11.824  10.195  70.587  1.00  0.00    -0.431 C  
HETATM   13  C   UNL     1     -13.040  10.332  71.488  1.00  0.00    -0.534 C  
HETATM   14  C   UNL     1     -13.173   8.971  72.174  1.00  0.00    -0.504 C  
BRANCH  11  15
HETATM   15  C   UNL     1     -10.411   4.914  71.645  1.00  0.00    -0.170 C  
BRANCH  15  16
HETATM   16  C   UNL     1      -9.546   5.024  70.402  1.00  0.00    -0.260 A  
HETATM   17  C   UNL     1      -8.364   5.762  70.410  1.00  0.00    -0.121 A  
HETATM   18  C   UNL     1      -7.708   6.081  69.211  1.00  0.00    -0.095 A  
HETATM   19  C   UNL     1      -8.165   5.617  67.962  1.00  0.00    -0.100 A  
HETATM   20  C   UNL     1      -9.221   4.696  68.004  1.00  0.00    -0.158 A  
HETATM   21  C   UNL     1      -9.938   4.446  69.189  1.00  0.00    -0.117 A  
BRANCH  19  22
HETATM   22  C   UNL     1      -7.576   6.150  66.686  1.00  0.00    -0.095 A  
HETATM   23  C   UNL     1      -6.736   7.292  66.753  1.00  0.00    -0.061 A  
HETATM   24  C   UNL     1      -6.234   7.938  65.616  1.00  0.00    -0.038 A  
HETATM   25  C   UNL     1      -6.517   7.438  64.358  1.00  0.00    -0.040 A  
HETATM   26  C   UNL     1      -7.302   6.296  64.244  1.00  0.00    -0.074 A  
HETATM   27  C   UNL     1      -7.854   5.649  65.381  1.00  0.00    -0.102 A  
BRANCH  27  28
HETATM   28  C   UNL     1      -8.722   4.511  65.086  1.00  0.00    -0.135 A  
HETATM   29  N   UNL     1     -10.066   4.546  65.212  1.00  0.00    -0.185 NA 
HETATM   30  N   UNL     1     -10.372   3.288  64.866  1.00  0.00    -0.393 NA 
HETATM   31  H   UNL     1     -11.335   2.953  64.846  1.00  0.00     0.000 HD 
HETATM   32  N   UNL     1      -9.342   2.500  64.550  1.00  0.00    -0.138 NA 
HETATM   33  N   UNL     1      -8.272   3.263  64.721  1.00  0.00    -0.090 NA 
ENDBRANCH  27  28
ENDBRANCH  19  22
ENDBRANCH  15  16
ENDBRANCH  11  15
ENDBRANCH   4   5
ENDBRANCH   3   4
ENDBRANCH   2   3
TORSDOF 7
ENDMDL
MODEL      216
REMARK 921   NORMALIZED FREE ENERGY PREDICTED BY IDOCK:   -3.84 KCAL/MOL
REMARK 922        TOTAL FREE ENERGY PREDICTED BY IDOCK:   -7.36 KCAL/MOL
REMARK 923 INTER-LIGAND FREE ENERGY PREDICTED BY IDOCK:   -6.42 KCAL/MOL
REMARK 924 INTRA-LIGAND FREE ENERGY PREDICTED BY IDOCK:   -0.94 KCAL/MOL
REMARK 927      BINDING AFFINITY PREDICTED BY RF-SCORE:    0.00 PKD
ROOT
HETATM    1  C   UNL     1     -10.906  16.805  68.006  1.00  0.00    -0.341 C  
HETATM    2  C   UNL     1     -10.378  15.479  68.518  1.00  0.00    -0.225 C  
ENDROOT
BRANCH   2   3
HETATM    3  C   UNL     1      -8.853  15.455  68.525  1.00  0.00    -0.183 C  
BRANCH   3   4
HETATM    4  C   UNL     1      -8.293  14.633  67.370  1.00  0.00    -0.223 C  
BRANCH   4   5
HETATM    5  C   UNL     1      -9.361  13.747  66.794  1.00  0.00    -0.266 C  
HETATM    6  N   UNL     1      -9.958  14.102  65.696  1.00  0.00    -0.323 NA 
HETATM    7  C   UNL     1     -10.878  12.980  65.388  1.00  0.00    -0.284 C  
HETATM    8  C   UNL     1     -10.846  12.150  66.660  1.00  0.00    -0.268 C  
HETATM    9  C   UNL     1     -10.318  12.173  64.212  1.00  0.00    -0.363 C  
HETATM   10  O   UNL     1     -11.633  11.275  66.989  1.00  0.00    -0.496 OA 
HETATM   11  N   UNL     1      -9.745  12.585  67.354  1.00  0.00    -0.192 N  
HETATM   12  C   UNL     1     -11.564  11.689  63.488  1.00  0.00    -0.408 C  
HETATM   13  C   UNL     1     -12.486  12.895  63.558  1.00  0.00    -0.430 C  
HETATM   14  C   UNL     1     -12.254  13.482  64.952  1.00  0.00    -0.447 C  
BRANCH  11  15
HETATM   15  C   UNL     1      -9.277  11.906  68.560  1.00  0.00    -0.134 C  
BRANCH  15  16
HETATM   16  C   UNL     1      -8.432  10.685  68.243  1.00  0.00    -0.127 A  
HETATM   17  C   UNL     1      -8.295  10.224  66.935  1.00  0.00    -0.123 A  
HETATM   18  C   UNL     1      -7.741   8.962  66.673  1.00  0.00    -0.100 A  
HETATM   19  C   UNL     1      -7.238   8.138  67.698  1.00  0.00    -0.092 A  
HETATM   20  C   UNL     1      -7.183   8.718  68.973  1.00  0.00    -0.072 A  
HETATM   21  C   UNL     1      -7.818   9.941  69.257  1.00  0.00    -0.117 A  
BRANCH  19  22
HETATM   22  C   UNL     1      -6.855   6.712  67.415  1.00  0.00    -0.073 A  
HETATM   23  C   UNL     1      -5.646   6.462  66.715  1.00  0.00    -0.013 A  
HETATM   24  C   UNL     1      -5.257   5.183  66.298  1.00  0.00    -0.008 A  
HETATM   25  C   UNL     1      -6.044   4.089  66.605  1.00  0.00    -0.031 A  
HETATM   26  C   UNL     1      -7.217   4.279  67.326  1.00  0.00    -0.068 A  
HETATM   27  C   UNL     1      -7.651   5.571  67.724  1.00  0.00    -0.088 A  
BRANCH  27  28
HETATM   28  C   UNL     1      -8.944   5.609  68.404  1.00  0.00    -0.114 A  
HETATM   29  N   UNL     1      -9.141   5.148  69.658  1.00  0.00    -0.112 NA 
HETATM   30  N   UNL     1     -10.455   5.374  69.792  1.00  0.00    -0.307 NA 
HETATM   31  H   UNL     1     -10.958   5.143  70.648  1.00  0.00     0.000 HD 
HETATM   32  N   UNL     1     -11.067   5.921  68.739  1.00  0.00    -0.249 NA 
HETATM   33  N   UNL     1     -10.114   6.045  67.827  1.00  0.00    -0.142 NA 
ENDBRANCH  27  28
ENDBRANCH  19  22
ENDBRANCH  15  16
ENDBRANCH  11  15
ENDBRANCH   4   5
ENDBRANCH   3   4
ENDBRANCH   2   3
TORSDOF 7
ENDMDL
MODEL      217
REMARK 921   NORMALIZED FREE ENERGY PREDICTED BY IDOCK:   -3.83 KCAL/MOL
REMARK 922        TOTAL FREE ENERGY PREDICTED BY IDOCK:   -7.34 KCAL/MOL
REMARK 923 INTER-LIGAND FREE ENERGY PREDICTED BY IDOCK:   -6.45 KCAL/MOL
REMARK 924 INTRA-LIGAND FREE ENERGY PREDICTED BY IDOCK:   -0.89 KCAL/MOL
REMARK 927      BINDING AFFINITY PREDICTED BY RF-SCORE:    0.00 PKD
ROOT
HETATM    1  C   UNL     1     -10.864   4.206  64.927  1.00  0.00    -0.096 C  
HETATM    2  C   UNL     1     -10.472   4.874  66.229  1.00  0.00    -0.349 C  
ENDROOT
BRANCH   2   3
HETATM    3  C   UNL     1     -10.253   6.372  66.039  1.00  0.00     0.360 C  
BRANCH   3   4
HETATM    4  C   UNL     1     -10.442   7.143  67.341  1.00  0.00    -0.354 C  
BRANCH   4   5
HETATM    5  C   UNL     1      -9.129   7.284  68.059  1.00  0.00    -0.133 C  
HETATM    6  N   UNL     1      -8.895   6.550  69.105  1.00  0.00    -0.128 NA 
HETATM    7  C   UNL     1      -7.508   6.892  69.502  1.00  0.00    -0.096 C  
HETATM    8  C   UNL     1      -7.200   8.117  68.657  1.00  0.00    -0.084 C  
HETATM    9  C   UNL     1      -6.573   5.737  69.124  1.00  0.00    -0.051 C  
HETATM   10  O   UNL     1      -6.286   8.911  68.816  1.00  0.00    -0.044 OA 
HETATM   11  N   UNL     1      -8.160   8.137  67.677  1.00  0.00    -0.125 N  
HETATM   12  C   UNL     1      -5.515   5.767  70.215  1.00  0.00    -0.012 C  
HETATM   13  C   UNL     1      -6.325   6.065  71.466  1.00  0.00    -0.048 C  
HETATM   14  C   UNL     1      -7.382   7.075  71.014  1.00  0.00    -0.077 C  
BRANCH  11  15
HETATM   15  C   UNL     1      -8.102   9.076  66.560  1.00  0.00    -0.111 C  
BRANCH  15  16
HETATM   16  C   UNL     1      -8.829  10.375  66.861  1.00  0.00    -0.141 A  
HETATM   17  C   UNL     1      -8.151  11.478  67.376  1.00  0.00    -0.146 A  
HETATM   18  C   UNL     1      -8.854  12.575  67.896  1.00  0.00    -0.185 A  
HETATM   19  C   UNL     1     -10.261  12.648  67.860  1.00  0.00    -0.220 A  
HETATM   20  C   UNL     1     -10.904  11.633  67.138  1.00  0.00    -0.306 A  
HETATM   21  C   UNL     1     -10.215  10.489  66.696  1.00  0.00    -0.289 A  
BRANCH  19  22
HETATM   22  C   UNL     1     -10.991  13.723  68.616  1.00  0.00    -0.287 A  
HETATM   23  C   UNL     1     -11.556  13.400  69.877  1.00  0.00    -0.270 A  
HETATM   24  C   UNL     1     -12.354  14.291  70.605  1.00  0.00    -0.431 A  
HETATM   25  C   UNL     1     -12.586  15.564  70.120  1.00  0.00    -0.304 A  
HETATM   26  C   UNL     1     -12.018  15.940  68.907  1.00  0.00    -0.202 A  
HETATM   27  C   UNL     1     -11.238  15.041  68.134  1.00  0.00    -0.316 A  
BRANCH  27  28
HETATM   28  C   UNL     1     -10.783  15.564  66.847  1.00  0.00    -0.317 A  
HETATM   29  N   UNL     1     -10.602  14.795  65.752  1.00  0.00    -0.309 NA 
HETATM   30  N   UNL     1     -10.162  15.715  64.883  1.00  0.00    -0.496 NA 
HETATM   31  H   UNL     1      -9.923  15.478  63.921  1.00  0.00     0.000 HD 
HETATM   32  N   UNL     1     -10.056  16.961  65.352  1.00  0.00    -0.590 NA 
HETATM   33  N   UNL     1     -10.418  16.871  66.623  1.00  0.00    -0.290 NA 
ENDBRANCH  27  28
ENDBRANCH  19  22
ENDBRANCH  15  16
ENDBRANCH  11  15
ENDBRANCH   4   5
ENDBRANCH   3   4
ENDBRANCH   2   3
TORSDOF 7
ENDMDL
MODEL      218
REMARK 921   NORMALIZED FREE ENERGY PREDICTED BY IDOCK:   -3.82 KCAL/MOL
REMARK 922        TOTAL FREE ENERGY PREDICTED BY IDOCK:   -7.33 KCAL/MOL
REMARK 923 INTER-LIGAND FREE ENERGY PREDICTED BY IDOCK:   -6.17 KCAL/MOL
REMARK 924 INTRA-LIGAND FREE ENERGY PREDICTED BY IDOCK:   -1.16 KCAL/MOL
REMARK 927      BINDING AFFINITY PREDICTED BY RF-SCORE:    0.00 PKD
ROOT
HETATM    1  C   UNL     1      -9.757  19.559  68.635  1.00  0.00    -0.514 C  
HETATM    2  C   UNL     1     -10.134  19.176  67.218  1.00  0.00    -0.462 C  
ENDROOT
BRANCH   2   3
HETATM    3  C   UNL     1     -10.843  17.826  67.178  1.00  0.00    -0.125 C  
BRANCH   3   4
HETATM    4  C   UNL     1     -10.617  17.028  68.458  1.00  0.00    -0.370 C  
BRANCH   4   5
HETATM    5  C   UNL     1      -9.532  16.009  68.251  1.00  0.00    -0.206 C  
HETATM    6  N   UNL     1      -8.315  16.296  68.603  1.00  0.00    -0.207 NA 
HETATM    7  C   UNL     1      -7.542  15.060  68.330  1.00  0.00    -0.111 C  
HETATM    8  C   UNL     1      -8.516  14.217  67.524  1.00  0.00    -0.187 C  
HETATM    9  C   UNL     1      -7.210  14.367  69.656  1.00  0.00    -0.004 C  
HETATM   10  O   UNL     1      -8.255  13.231  66.851  1.00  0.00    -0.096 OA 
HETATM   11  N   UNL     1      -9.747  14.791  67.717  1.00  0.00    -0.212 N  
HETATM   12  C   UNL     1      -5.859  13.723  69.390  1.00  0.00    -0.095 C  
HETATM   13  C   UNL     1      -5.134  14.781  68.575  1.00  0.00    -0.103 C  
HETATM   14  C   UNL     1      -6.206  15.366  67.655  1.00  0.00    -0.167 C  
BRANCH  11  15
HETATM   15  C   UNL     1     -10.975  14.163  67.238  1.00  0.00    -0.297 C  
BRANCH  15  16
HETATM   16  C   UNL     1     -11.072  12.703  67.645  1.00  0.00    -0.303 A  
HETATM   17  C   UNL     1     -11.179  12.335  68.985  1.00  0.00    -0.319 A  
HETATM   18  C   UNL     1     -11.005  11.000  69.379  1.00  0.00    -0.301 A  
HETATM   19  C   UNL     1     -10.786   9.967  68.447  1.00  0.00    -0.271 A  
HETATM   20  C   UNL     1     -10.907  10.329  67.098  1.00  0.00    -0.278 A  
HETATM   21  C   UNL     1     -10.989  11.676  66.698  1.00  0.00    -0.349 A  
BRANCH  19  22
HETATM   22  C   UNL     1     -10.387   8.592  68.907  1.00  0.00    -0.228 A  
HETATM   23  C   UNL     1     -11.407   7.635  69.145  1.00  0.00     0.374 A  
HETATM   24  C   UNL     1     -11.153   6.369  69.687  1.00  0.00    -0.465 A  
HETATM   25  C   UNL     1      -9.855   5.989  69.974  1.00  0.00    -0.215 A  
HETATM   26  C   UNL     1      -8.817   6.879  69.718  1.00  0.00    -0.141 A  
HETATM   27  C   UNL     1      -9.056   8.182  69.206  1.00  0.00    -0.151 A  
BRANCH  27  28
HETATM   28  C   UNL     1      -7.867   9.021  69.070  1.00  0.00    -0.090 A  
HETATM   29  N   UNL     1      -7.178   9.514  70.123  1.00  0.00    -0.096 NA 
HETATM   30  N   UNL     1      -6.235  10.218  69.483  1.00  0.00    -0.047 NA 
HETATM   31  H   UNL     1      -5.515  10.737  69.985  1.00  0.00     0.000 HD 
HETATM   32  N   UNL     1      -6.294  10.202  68.149  1.00  0.00    -0.053 NA 
HETATM   33  N   UNL     1      -7.360   9.464  67.871  1.00  0.00    -0.083 NA 
ENDBRANCH  27  28
ENDBRANCH  19  22
ENDBRANCH  15  16
ENDBRANCH  11  15
ENDBRANCH   4   5
ENDBRANCH   3   4
ENDBRANCH   2   3
TORSDOF 7
ENDMDL
MODEL      219
REMARK 921   NORMALIZED FREE ENERGY PREDICTED BY IDOCK:   -3.82 KCAL/MOL
REMARK 922        TOTAL FREE ENERGY PREDICTED BY IDOCK:   -7.33 KCAL/MOL
REMARK 923 INTER-LIGAND FREE ENERGY PREDICTED BY IDOCK:   -6.07 KCAL/MOL
REMARK 924 INTRA-LIGAND FREE ENERGY PREDICTED BY IDOCK:   -1.26 KCAL/MOL
REMARK 927      BINDING AFFINITY PREDICTED BY RF-SCORE:    0.00 PKD
ROOT
HETATM    1  C   UNL     1      -8.091   2.205  69.779  1.00  0.00    -0.057 C  
HETATM    2  C   UNL     1      -9.093   2.883  68.867  1.00  0.00    -0.207 C  
ENDROOT
BRANCH   2   3
HETATM    3  C   UNL     1      -9.685   4.128  69.522  1.00  0.00    -0.254 C  
BRANCH   3   4
HETATM    4  C   UNL     1      -9.069   5.408  68.968  1.00  0.00    -0.136 C  
BRANCH   4   5
HETATM    5  C   UNL     1      -8.712   6.342  70.090  1.00  0.00    -0.139 C  
HETATM    6  N   UNL     1      -9.033   6.025  71.309  1.00  0.00    -0.136 NA 
HETATM    7  C   UNL     1      -8.471   7.115  72.142  1.00  0.00    -0.110 C  
HETATM    8  C   UNL     1      -8.071   8.162  71.116  1.00  0.00    -0.103 C  
HETATM    9  C   UNL     1      -7.233   6.599  72.885  1.00  0.00    -0.080 C  
HETATM   10  O   UNL     1      -7.807   9.336  71.325  1.00  0.00    -0.322 OA 
HETATM   11  N   UNL     1      -8.065   7.509  69.909  1.00  0.00    -0.126 N  
HETATM   12  C   UNL     1      -7.264   7.364  74.198  1.00  0.00    -0.117 C  
HETATM   13  C   UNL     1      -8.742   7.375  74.550  1.00  0.00    -0.198 C  
HETATM   14  C   UNL     1      -9.459   7.573  73.214  1.00  0.00    -0.293 C  
BRANCH  11  15
HETATM   15  C   UNL     1      -7.562   8.142  68.693  1.00  0.00    -0.103 C  
BRANCH  15  16
HETATM   16  C   UNL     1      -8.482   9.243  68.194  1.00  0.00    -0.121 A  
HETATM   17  C   UNL     1      -9.818   8.984  67.893  1.00  0.00    -0.207 A  
HETATM   18  C   UNL     1     -10.591   9.921  67.192  1.00  0.00    -0.295 A  
HETATM   19  C   UNL     1     -10.085  11.183  66.822  1.00  0.00    -0.255 A  
HETATM   20  C   UNL     1      -8.818  11.502  67.330  1.00  0.00    -0.157 A  
HETATM   21  C   UNL     1      -8.006  10.537  67.953  1.00  0.00    -0.106 A  
BRANCH  19  22
HETATM   22  C   UNL     1     -10.856  12.072  65.887  1.00  0.00    -0.329 A  
HETATM   23  C   UNL     1     -11.839  12.938  66.433  1.00  0.00    -0.478 A  
HETATM   24  C   UNL     1     -12.692  13.718  65.643  1.00  0.00    -0.523 A  
HETATM   25  C   UNL     1     -12.567  13.698  64.266  1.00  0.00    -0.195 A  
HETATM   26  C   UNL     1     -11.589  12.896  63.687  1.00  0.00    -0.547 A  
HETATM   27  C   UNL     1     -10.740  12.068  64.467  1.00  0.00    -0.358 A  
BRANCH  27  28
HETATM   28  C   UNL     1      -9.821  11.226  63.702  1.00  0.00    -0.340 A  
HETATM   29  N   UNL     1     -10.228  10.234  62.881  1.00  0.00     0.322 NA 
HETATM   30  N   UNL     1      -9.043   9.768  62.465  1.00  0.00    -0.278 NA 
HETATM   31  H   UNL     1      -8.969   8.991  61.808  1.00  0.00     0.000 HD 
HETATM   32  N   UNL     1      -7.965  10.379  62.960  1.00  0.00    -0.152 NA 
HETATM   33  N   UNL     1      -8.450  11.296  63.784  1.00  0.00     0.329 NA 
ENDBRANCH  27  28
ENDBRANCH  19  22
ENDBRANCH  15  16
ENDBRANCH  11  15
ENDBRANCH   4   5
ENDBRANCH   3   4
ENDBRANCH   2   3
TORSDOF 7
ENDMDL
MODEL      220
REMARK 921   NORMALIZED FREE ENERGY PREDICTED BY IDOCK:   -3.80 KCAL/MOL
REMARK 922        TOTAL FREE ENERGY PREDICTED BY IDOCK:   -7.31 KCAL/MOL
REMARK 923 INTER-LIGAND FREE ENERGY PREDICTED BY IDOCK:   -6.27 KCAL/MOL
REMARK 924 INTRA-LIGAND FREE ENERGY PREDICTED BY IDOCK:   -1.04 KCAL/MOL
REMARK 927      BINDING AFFINITY PREDICTED BY RF-SCORE:    0.00 PKD
ROOT
HETATM    1  C   UNL     1      -9.396   4.872  73.233  1.00  0.00    -0.131 C  
HETATM    2  C   UNL     1      -8.349   5.626  72.437  1.00  0.00    -0.115 C  
ENDROOT
BRANCH   2   3
HETATM    3  C   UNL     1      -8.908   6.101  71.099  1.00  0.00    -0.139 C  
BRANCH   3   4
HETATM    4  C   UNL     1      -8.053   7.206  70.487  1.00  0.00    -0.113 C  
BRANCH   4   5
HETATM    5  C   UNL     1      -8.190   7.204  68.991  1.00  0.00    -0.125 C  
HETATM    6  N   UNL     1      -7.223   6.731  68.264  1.00  0.00    -0.086 NA 
HETATM    7  C   UNL     1      -7.722   6.816  66.870  1.00  0.00    -0.103 C  
HETATM    8  C   UNL     1      -8.972   7.669  67.004  1.00  0.00    -0.133 C  
HETATM    9  C   UNL     1      -8.087   5.412  66.376  1.00  0.00    -0.105 C  
HETATM   10  O   UNL     1      -9.581   8.231  66.106  1.00  0.00    -0.209 OA 
HETATM   11  N   UNL     1      -9.275   7.669  68.343  1.00  0.00    -0.140 N  
HETATM   12  C   UNL     1      -7.763   5.464  64.892  1.00  0.00    -0.088 C  
HETATM   13  C   UNL     1      -6.470   6.262  64.854  1.00  0.00    -0.038 C  
HETATM   14  C   UNL     1      -6.651   7.346  65.918  1.00  0.00    -0.045 C  
BRANCH  11  15
HETATM   15  C   UNL     1     -10.517   8.245  68.852  1.00  0.00    -0.191 C  
BRANCH  15  16
HETATM   16  C   UNL     1     -10.531   9.760  68.755  1.00  0.00    -0.240 A  
HETATM   17  C   UNL     1     -11.712  10.454  68.496  1.00  0.00    -0.039 A  
HETATM   18  C   UNL     1     -11.685  11.812  68.147  1.00  0.00    -0.377 A  
HETATM   19  C   UNL     1     -10.486  12.552  68.110  1.00  0.00    -0.238 A  
HETATM   20  C   UNL     1      -9.348  11.890  68.590  1.00  0.00    -0.076 A  
HETATM   21  C   UNL     1      -9.352  10.508  68.853  1.00  0.00    -0.192 A  
BRANCH  19  22
HETATM   22  C   UNL     1     -10.459  13.937  67.525  1.00  0.00    -0.248 A  
HETATM   23  C   UNL     1      -9.988  14.101  66.196  1.00  0.00    -0.328 A  
HETATM   24  C   UNL     1      -9.810  15.355  65.600  1.00  0.00    -0.387 A  
HETATM   25  C   UNL     1     -10.141  16.503  66.296  1.00  0.00    -0.347 A  
HETATM   26  C   UNL     1     -10.646  16.390  67.587  1.00  0.00    -0.313 A  
HETATM   27  C   UNL     1     -10.797  15.130  68.225  1.00  0.00    -0.262 A  
BRANCH  27  28
HETATM   28  C   UNL     1     -11.264  15.189  69.609  1.00  0.00    -0.272 A  
HETATM   29  N   UNL     1     -10.482  15.566  70.644  1.00  0.00    -0.167 NA 
HETATM   30  N   UNL     1     -11.344  15.420  71.660  1.00  0.00    -0.402 NA 
HETATM   31  H   UNL     1     -11.082  15.628  72.623  1.00  0.00     0.000 HD 
HETATM   32  N   UNL     1     -12.564  14.987  71.336  1.00  0.00    -0.309 NA 
HETATM   33  N   UNL     1     -12.516  14.801  70.025  1.00  0.00    -0.310 NA 
ENDBRANCH  27  28
ENDBRANCH  19  22
ENDBRANCH  15  16
ENDBRANCH  11  15
ENDBRANCH   4   5
ENDBRANCH   3   4
ENDBRANCH   2   3
TORSDOF 7
ENDMDL
MODEL      221
REMARK 921   NORMALIZED FREE ENERGY PREDICTED BY IDOCK:   -3.78 KCAL/MOL
REMARK 922        TOTAL FREE ENERGY PREDICTED BY IDOCK:   -7.28 KCAL/MOL
REMARK 923 INTER-LIGAND FREE ENERGY PREDICTED BY IDOCK:   -5.83 KCAL/MOL
REMARK 924 INTRA-LIGAND FREE ENERGY PREDICTED BY IDOCK:   -1.44 KCAL/MOL
REMARK 927      BINDING AFFINITY PREDICTED BY RF-SCORE:    0.00 PKD
ROOT
HETATM    1  C   UNL     1      -6.242   9.736  64.664  1.00  0.00    -0.097 C  
HETATM    2  C   UNL     1      -5.128   8.922  65.291  1.00  0.00    -0.037 C  
ENDROOT
BRANCH   2   3
HETATM    3  C   UNL     1      -5.684   7.768  66.119  1.00  0.00    -0.037 C  
BRANCH   3   4
HETATM    4  C   UNL     1      -7.202   7.839  66.247  1.00  0.00    -0.074 C  
BRANCH   4   5
HETATM    5  C   UNL     1      -7.646   7.215  67.540  1.00  0.00    -0.110 C  
HETATM    6  N   UNL     1      -8.136   6.012  67.530  1.00  0.00    -0.102 NA 
HETATM    7  C   UNL     1      -8.392   5.697  68.957  1.00  0.00    -0.100 C  
HETATM    8  C   UNL     1      -8.216   7.042  69.642  1.00  0.00    -0.131 C  
HETATM    9  C   UNL     1      -7.335   4.705  69.454  1.00  0.00    -0.052 C  
HETATM   10  O   UNL     1      -8.576   7.348  70.769  1.00  0.00    -0.134 OA 
HETATM   11  N   UNL     1      -7.564   7.836  68.732  1.00  0.00    -0.099 N  
HETATM   12  C   UNL     1      -8.088   3.868  70.475  1.00  0.00    -0.059 C  
HETATM   13  C   UNL     1      -9.447   3.678  69.821  1.00  0.00    -0.254 C  
HETATM   14  C   UNL     1      -9.748   5.020  69.151  1.00  0.00    -0.243 C  
BRANCH  11  15
HETATM   15  C   UNL     1      -7.061   9.161  69.085  1.00  0.00    -0.062 C  
BRANCH  15  16
HETATM   16  C   UNL     1      -7.946  10.273  68.552  1.00  0.00    -0.107 A  
HETATM   17  C   UNL     1      -9.239  10.462  69.038  1.00  0.00    -0.194 A  
HETATM   18  C   UNL     1     -10.140  11.306  68.374  1.00  0.00    -0.202 A  
HETATM   19  C   UNL     1      -9.770  12.052  67.237  1.00  0.00    -0.190 A  
HETATM   20  C   UNL     1      -8.408  12.016  66.905  1.00  0.00    -0.159 A  
HETATM   21  C   UNL     1      -7.523  11.104  67.508  1.00  0.00    -0.104 A  
BRANCH  19  22
HETATM   22  C   UNL     1     -10.807  12.772  66.423  1.00  0.00    -0.294 A  
HETATM   23  C   UNL     1     -11.692  13.661  67.087  1.00  0.00    -0.418 A  
HETATM   24  C   UNL     1     -12.767  14.288  66.444  1.00  0.00     0.011 A  
HETATM   25  C   UNL     1     -12.975  14.086  65.093  1.00  0.00    -0.260 A  
HETATM   26  C   UNL     1     -12.108  13.256  64.390  1.00  0.00    -0.471 A  
HETATM   27  C   UNL     1     -11.037  12.579  65.030  1.00  0.00    -0.335 A  
BRANCH  27  28
HETATM   28  C   UNL     1     -10.269  11.681  64.169  1.00  0.00    -0.326 A  
HETATM   29  N   UNL     1      -9.706  12.067  63.004  1.00  0.00    -0.307 NA 
HETATM   30  N   UNL     1      -9.168  10.907  62.602  1.00  0.00    -0.357 NA 
HETATM   31  H   UNL     1      -8.644  10.828  61.731  1.00  0.00     0.000 HD 
HETATM   32  N   UNL     1      -9.358   9.862  63.410  1.00  0.00    -0.250 NA 
HETATM   33  N   UNL     1     -10.095  10.337  64.404  1.00  0.00    -0.281 NA 
ENDBRANCH  27  28
ENDBRANCH  19  22
ENDBRANCH  15  16
ENDBRANCH  11  15
ENDBRANCH   4   5
ENDBRANCH   3   4
ENDBRANCH   2   3
TORSDOF 7
ENDMDL
MODEL      222
REMARK 921   NORMALIZED FREE ENERGY PREDICTED BY IDOCK:   -3.78 KCAL/MOL
REMARK 922        TOTAL FREE ENERGY PREDICTED BY IDOCK:   -7.28 KCAL/MOL
REMARK 923 INTER-LIGAND FREE ENERGY PREDICTED BY IDOCK:   -5.95 KCAL/MOL
REMARK 924 INTRA-LIGAND FREE ENERGY PREDICTED BY IDOCK:   -1.32 KCAL/MOL
REMARK 927      BINDING AFFINITY PREDICTED BY RF-SCORE:    0.00 PKD
ROOT
HETATM    1  C   UNL     1      -6.077  10.980  69.948  1.00  0.00    -0.115 C  
HETATM    2  C   UNL     1      -5.863   9.977  71.064  1.00  0.00    -0.073 C  
ENDROOT
BRANCH   2   3
HETATM    3  C   UNL     1      -5.593   8.581  70.511  1.00  0.00    -0.027 C  
BRANCH   3   4
HETATM    4  C   UNL     1      -5.864   8.502  69.012  1.00  0.00    -0.039 C  
BRANCH   4   5
HETATM    5  C   UNL     1      -7.074   7.650  68.746  1.00  0.00    -0.080 C  
HETATM    6  N   UNL     1      -7.620   6.996  69.727  1.00  0.00    -0.101 NA 
HETATM    7  C   UNL     1      -8.806   6.338  69.127  1.00  0.00    -0.128 C  
HETATM    8  C   UNL     1      -8.595   6.542  67.636  1.00  0.00    -0.116 C  
HETATM    9  C   UNL     1     -10.075   7.064  69.588  1.00  0.00    -0.194 C  
HETATM   10  O   UNL     1      -9.162   5.958  66.725  1.00  0.00    -0.126 OA 
HETATM   11  N   UNL     1      -7.639   7.520  67.531  1.00  0.00    -0.110 N  
HETATM   12  C   UNL     1     -11.110   5.954  69.665  1.00  0.00    -0.414 C  
HETATM   13  C   UNL     1     -10.320   4.794  70.251  1.00  0.00    -0.180 C  
HETATM   14  C   UNL     1      -8.943   4.889  69.591  1.00  0.00    -0.137 C  
BRANCH  11  15
HETATM   15  C   UNL     1      -7.285   8.117  66.245  1.00  0.00    -0.078 C  
BRANCH  15  16
HETATM   16  C   UNL     1      -7.870   9.508  66.076  1.00  0.00    -0.100 A  
HETATM   17  C   UNL     1      -7.228  10.628  66.601  1.00  0.00    -0.128 A  
HETATM   18  C   UNL     1      -7.886  11.865  66.676  1.00  0.00    -0.006 A  
HETATM   19  C   UNL     1      -9.187  12.052  66.168  1.00  0.00    -0.181 A  
HETATM   20  C   UNL     1      -9.719  10.974  65.447  1.00  0.00    -0.279 A  
HETATM   21  C   UNL     1      -9.105   9.708  65.448  1.00  0.00    -0.265 A  
BRANCH  19  22
HETATM   22  C   UNL     1      -9.946  13.317  66.456  1.00  0.00    -0.280 A  
HETATM   23  C   UNL     1      -9.718  14.447  65.629  1.00  0.00    -0.258 A  
HETATM   24  C   UNL     1     -10.282  15.704  65.882  1.00  0.00    -0.372 A  
HETATM   25  C   UNL     1     -11.137  15.872  66.955  1.00  0.00    -0.082 A  
HETATM   26  C   UNL     1     -11.424  14.782  67.770  1.00  0.00    -0.363 A  
HETATM   27  C   UNL     1     -10.832  13.509  67.555  1.00  0.00    -0.276 A  
BRANCH  27  28
HETATM   28  C   UNL     1     -11.173  12.492  68.547  1.00  0.00    -0.283 A  
HETATM   29  N   UNL     1     -11.732  12.775  69.743  1.00  0.00    -0.304 NA 
HETATM   30  N   UNL     1     -11.808  11.545  70.270  1.00  0.00    -0.410 NA 
HETATM   31  H   UNL     1     -12.197  11.378  71.197  1.00  0.00     0.000 HD 
HETATM   32  N   UNL     1     -11.345  10.552  69.508  1.00  0.00    -0.260 NA 
HETATM   33  N   UNL     1     -10.901  11.151  68.412  1.00  0.00    -0.190 NA 
ENDBRANCH  27  28
ENDBRANCH  19  22
ENDBRANCH  15  16
ENDBRANCH  11  15
ENDBRANCH   4   5
ENDBRANCH   3   4
ENDBRANCH   2   3
TORSDOF 7
ENDMDL
MODEL      223
REMARK 921   NORMALIZED FREE ENERGY PREDICTED BY IDOCK:   -3.75 KCAL/MOL
REMARK 922        TOTAL FREE ENERGY PREDICTED BY IDOCK:   -7.23 KCAL/MOL
REMARK 923 INTER-LIGAND FREE ENERGY PREDICTED BY IDOCK:   -5.86 KCAL/MOL
REMARK 924 INTRA-LIGAND FREE ENERGY PREDICTED BY IDOCK:   -1.37 KCAL/MOL
REMARK 927      BINDING AFFINITY PREDICTED BY RF-SCORE:    0.00 PKD
ROOT
HETATM    1  C   UNL     1     -11.063  16.022  65.035  1.00  0.00    -0.345 C  
HETATM    2  C   UNL     1      -9.966  15.257  65.749  1.00  0.00    -0.391 C  
ENDROOT
BRANCH   2   3
HETATM    3  C   UNL     1      -9.940  15.588  67.239  1.00  0.00    -0.238 C  
BRANCH   3   4
HETATM    4  C   UNL     1     -10.053  17.088  67.490  1.00  0.00    -0.294 C  
BRANCH   4   5
HETATM    5  C   UNL     1      -8.739  17.763  67.214  1.00  0.00    -0.237 C  
HETATM    6  N   UNL     1      -8.616  18.506  66.155  1.00  0.00    -0.491 NA 
HETATM    7  C   UNL     1      -7.243  19.060  66.241  1.00  0.00    -0.248 C  
HETATM    8  C   UNL     1      -6.613  18.246  67.359  1.00  0.00    -0.191 C  
HETATM    9  C   UNL     1      -7.317  20.539  66.636  1.00  0.00    -0.288 C  
HETATM   10  O   UNL     1      -5.424  18.152  67.623  1.00  0.00    -0.144 OA 
HETATM   11  N   UNL     1      -7.661  17.647  68.012  1.00  0.00    -0.225 N  
HETATM   12  C   UNL     1      -6.129  21.157  65.917  1.00  0.00    -0.275 C  
HETATM   13  C   UNL     1      -6.143  20.452  64.571  1.00  0.00    -0.334 C  
HETATM   14  C   UNL     1      -6.527  19.007  64.892  1.00  0.00    -0.147 C  
BRANCH  11  15
HETATM   15  C   UNL     1      -7.473  16.912  69.260  1.00  0.00    -0.116 C  
BRANCH  15  16
HETATM   16  C   UNL     1      -7.052  15.472  69.023  1.00  0.00    -0.147 A  
HETATM   17  C   UNL     1      -6.767  15.007  67.741  1.00  0.00    -0.188 A  
HETATM   18  C   UNL     1      -6.638  13.634  67.487  1.00  0.00    -0.122 A  
HETATM   19  C   UNL     1      -6.719  12.672  68.513  1.00  0.00    -0.089 A  
HETATM   20  C   UNL     1      -6.782  13.179  69.819  1.00  0.00     0.149 A  
HETATM   21  C   UNL     1      -7.003  14.545  70.071  1.00  0.00    -0.019 A  
BRANCH  19  22
HETATM   22  C   UNL     1      -6.796  11.207  68.185  1.00  0.00    -0.067 A  
HETATM   23  C   UNL     1      -5.585  10.490  68.000  1.00  0.00    -0.040 A  
HETATM   24  C   UNL     1      -5.546   9.156  67.577  1.00  0.00    -0.042 A  
HETATM   25  C   UNL     1      -6.725   8.466  67.362  1.00  0.00    -0.063 A  
HETATM   26  C   UNL     1      -7.937   9.115  67.571  1.00  0.00    -0.100 A  
HETATM   27  C   UNL     1      -8.000  10.478  67.961  1.00  0.00    -0.106 A  
BRANCH  27  28
HETATM   28  C   UNL     1      -9.348  11.034  68.059  1.00  0.00    -0.163 A  
HETATM   29  N   UNL     1     -10.182  10.788  69.093  1.00  0.00    -0.215 NA 
HETATM   30  N   UNL     1     -11.261  11.477  68.698  1.00  0.00    -0.224 NA 
HETATM   31  H   UNL     1     -12.111  11.517  69.260  1.00  0.00     0.000 HD 
HETATM   32  N   UNL     1     -11.159  12.107  67.526  1.00  0.00    -0.259 NA 
HETATM   33  N   UNL     1      -9.946  11.801  67.087  1.00  0.00    -0.202 NA 
ENDBRANCH  27  28
ENDBRANCH  19  22
ENDBRANCH  15  16
ENDBRANCH  11  15
ENDBRANCH   4   5
ENDBRANCH   3   4
ENDBRANCH   2   3
TORSDOF 7
ENDMDL
MODEL      224
REMARK 921   NORMALIZED FREE ENERGY PREDICTED BY IDOCK:   -3.68 KCAL/MOL
REMARK 922        TOTAL FREE ENERGY PREDICTED BY IDOCK:   -7.13 KCAL/MOL
REMARK 923 INTER-LIGAND FREE ENERGY PREDICTED BY IDOCK:   -6.00 KCAL/MOL
REMARK 924 INTRA-LIGAND FREE ENERGY PREDICTED BY IDOCK:   -1.13 KCAL/MOL
REMARK 927      BINDING AFFINITY PREDICTED BY RF-SCORE:    0.00 PKD
ROOT
HETATM    1  C   UNL     1      -8.981  18.741  67.460  1.00  0.00    -0.291 C  
HETATM    2  C   UNL     1      -9.642  17.378  67.409  1.00  0.00    -0.257 C  
ENDROOT
BRANCH   2   3
HETATM    3  C   UNL     1      -8.760  16.309  68.046  1.00  0.00    -0.178 C  
BRANCH   3   4
HETATM    4  C   UNL     1      -8.291  15.277  67.026  1.00  0.00    -0.267 C  
BRANCH   4   5
HETATM    5  C   UNL     1      -9.456  14.468  66.531  1.00  0.00    -0.289 C  
HETATM    6  N   UNL     1      -9.911  14.676  65.332  1.00  0.00    -0.361 NA 
HETATM    7  C   UNL     1     -10.988  13.671  65.158  1.00  0.00    -0.330 C  
HETATM    8  C   UNL     1     -11.181  13.127  66.563  1.00  0.00    -0.310 C  
HETATM    9  C   UNL     1     -10.500  12.561  64.221  1.00  0.00    -0.404 C  
HETATM   10  O   UNL     1     -12.126  12.472  66.977  1.00  0.00    -0.521 OA 
HETATM   11  N   UNL     1     -10.069  13.520  67.265  1.00  0.00    -0.233 N  
HETATM   12  C   UNL     1     -11.761  12.138  63.486  1.00  0.00    -0.579 C  
HETATM   13  C   UNL     1     -12.466  13.460  63.231  1.00  0.00    -0.137 C  
HETATM   14  C   UNL     1     -12.227  14.279  64.501  1.00  0.00    -0.476 C  
BRANCH  11  15
HETATM   15  C   UNL     1      -9.803  13.042  68.619  1.00  0.00    -0.068 C  
BRANCH  15  16
HETATM   16  C   UNL     1      -9.146  11.673  68.628  1.00  0.00    -0.103 A  
HETATM   17  C   UNL     1      -7.759  11.539  68.600  1.00  0.00    -0.139 A  
HETATM   18  C   UNL     1      -7.162  10.296  68.344  1.00  0.00    -0.080 A  
HETATM   19  C   UNL     1      -7.921   9.122  68.173  1.00  0.00    -0.100 A  
HETATM   20  C   UNL     1      -9.294   9.243  68.428  1.00  0.00    -0.142 A  
HETATM   21  C   UNL     1      -9.908  10.498  68.594  1.00  0.00    -0.183 A  
BRANCH  19  22
HETATM   22  C   UNL     1      -7.273   7.856  67.686  1.00  0.00    -0.088 A  
HETATM   23  C   UNL     1      -7.436   7.494  66.323  1.00  0.00    -0.083 A  
HETATM   24  C   UNL     1      -6.976   6.280  65.797  1.00  0.00    -0.057 A  
HETATM   25  C   UNL     1      -6.292   5.393  66.606  1.00  0.00    -0.036 A  
HETATM   26  C   UNL     1      -6.072   5.723  67.939  1.00  0.00    -0.022 A  
HETATM   27  C   UNL     1      -6.564   6.930  68.503  1.00  0.00    -0.058 A  
BRANCH  27  28
HETATM   28  C   UNL     1      -6.319   7.089  69.936  1.00  0.00    -0.038 A  
HETATM   29  N   UNL     1      -5.609   8.111  70.461  1.00  0.00    -0.029 NA 
HETATM   30  N   UNL     1      -5.648   7.786  71.760  1.00  0.00    -0.035 NA 
HETATM   31  H   UNL     1      -5.201   8.361  72.473  1.00  0.00     0.000 HD 
HETATM   32  N   UNL     1      -6.308   6.667  72.066  1.00  0.00    -0.049 NA 
HETATM   33  N   UNL     1      -6.715   6.190  70.897  1.00  0.00    -0.059 NA 
ENDBRANCH  27  28
ENDBRANCH  19  22
ENDBRANCH  15  16
ENDBRANCH  11  15
ENDBRANCH   4   5
ENDBRANCH   3   4
ENDBRANCH   2   3
TORSDOF 7
ENDMDL
MODEL      225
REMARK 921   NORMALIZED FREE ENERGY PREDICTED BY IDOCK:   -3.66 KCAL/MOL
REMARK 922        TOTAL FREE ENERGY PREDICTED BY IDOCK:   -7.10 KCAL/MOL
REMARK 923 INTER-LIGAND FREE ENERGY PREDICTED BY IDOCK:   -7.21 KCAL/MOL
REMARK 924 INTRA-LIGAND FREE ENERGY PREDICTED BY IDOCK:    0.11 KCAL/MOL
REMARK 927      BINDING AFFINITY PREDICTED BY RF-SCORE:    0.00 PKD
ROOT
HETATM    1  C   UNL     1     -14.341  15.441  71.737  1.00  0.00    -0.639 C  
HETATM    2  C   UNL     1     -14.355  14.034  72.300  1.00  0.00    -0.520 C  
ENDROOT
BRANCH   2   3
HETATM    3  C   UNL     1     -13.155  13.229  71.810  1.00  0.00    -0.472 C  
BRANCH   3   4
HETATM    4  C   UNL     1     -12.157  14.100  71.054  1.00  0.00    -0.411 C  
BRANCH   4   5
HETATM    5  C   UNL     1     -11.948  13.568  69.664  1.00  0.00    -0.337 C  
HETATM    6  N   UNL     1     -11.886  14.399  68.668  1.00  0.00    -0.333 NA 
HETATM    7  C   UNL     1     -11.605  13.549  67.485  1.00  0.00    -0.350 C  
HETATM    8  C   UNL     1     -11.821  12.141  68.014  1.00  0.00    -0.285 C  
HETATM    9  C   UNL     1     -10.144  13.739  67.061  1.00  0.00    -0.256 C  
HETATM   10  O   UNL     1     -11.963  11.121  67.357  1.00  0.00    -0.532 OA 
HETATM   11  N   UNL     1     -11.816  12.258  69.381  1.00  0.00    -0.315 N  
HETATM   12  C   UNL     1     -10.190  13.576  65.551  1.00  0.00    -0.308 C  
HETATM   13  C   UNL     1     -11.471  14.299  65.170  1.00  0.00    -0.351 C  
HETATM   14  C   UNL     1     -12.460  13.951  66.285  1.00  0.00    -0.454 C  
BRANCH  11  15
HETATM   15  C   UNL     1     -11.827  11.087  70.255  1.00  0.00    -0.367 C  
BRANCH  15  16
HETATM   16  C   UNL     1     -10.755  10.079  69.880  1.00  0.00    -0.328 A  
HETATM   17  C   UNL     1      -9.457  10.190  70.374  1.00  0.00     0.232 A  
HETATM   18  C   UNL     1      -8.413   9.426  69.830  1.00  0.00    -0.186 A  
HETATM   19  C   UNL     1      -8.633   8.471  68.818  1.00  0.00    -0.131 A  
HETATM   20  C   UNL     1      -9.976   8.221  68.499  1.00  0.00    -0.206 A  
HETATM   21  C   UNL     1     -11.014   9.044  68.973  1.00  0.00    -0.001 A  
BRANCH  19  22
HETATM   22  C   UNL     1      -7.475   7.830  68.106  1.00  0.00    -0.108 A  
HETATM   23  C   UNL     1      -7.068   8.368  66.857  1.00  0.00    -0.075 A  
HETATM   24  C   UNL     1      -6.082   7.776  66.058  1.00  0.00    -0.038 A  
HETATM   25  C   UNL     1      -5.428   6.640  66.497  1.00  0.00    -0.014 A  
HETATM   26  C   UNL     1      -5.764   6.101  67.734  1.00  0.00    -0.009 A  
HETATM   27  C   UNL     1      -6.788   6.661  68.542  1.00  0.00    -0.070 A  
BRANCH  27  28
HETATM   28  C   UNL     1      -7.076   5.929  69.774  1.00  0.00    -0.068 A  
HETATM   29  N   UNL     1      -7.953   4.905  69.845  1.00  0.00    -0.069 NA 
HETATM   30  N   UNL     1      -7.878   4.615  71.151  1.00  0.00    -0.080 NA 
HETATM   31  H   UNL     1      -8.424   3.863  71.569  1.00  0.00     0.000 HD 
HETATM   32  N   UNL     1      -7.044   5.369  71.872  1.00  0.00    -0.081 NA 
HETATM   33  N   UNL     1      -6.549   6.241  71.006  1.00  0.00    -0.049 NA 
ENDBRANCH  27  28
ENDBRANCH  19  22
ENDBRANCH  15  16
ENDBRANCH  11  15
ENDBRANCH   4   5
ENDBRANCH   3   4
ENDBRANCH   2   3
TORSDOF 7
ENDMDL
MODEL      226
REMARK 921   NORMALIZED FREE ENERGY PREDICTED BY IDOCK:   -3.64 KCAL/MOL
REMARK 922        TOTAL FREE ENERGY PREDICTED BY IDOCK:   -7.07 KCAL/MOL
REMARK 923 INTER-LIGAND FREE ENERGY PREDICTED BY IDOCK:   -5.32 KCAL/MOL
REMARK 924 INTRA-LIGAND FREE ENERGY PREDICTED BY IDOCK:   -1.75 KCAL/MOL
REMARK 927      BINDING AFFINITY PREDICTED BY RF-SCORE:    0.00 PKD
ROOT
HETATM    1  C   UNL     1     -11.379  12.039  66.058  1.00  0.00    -0.398 C  
HETATM    2  C   UNL     1     -10.773  10.845  66.767  1.00  0.00    -0.309 C  
ENDROOT
BRANCH   2   3
HETATM    3  C   UNL     1     -10.221   9.830  65.771  1.00  0.00    -0.222 C  
BRANCH   3   4
HETATM    4  C   UNL     1      -8.841  10.229  65.261  1.00  0.00    -0.200 C  
BRANCH   4   5
HETATM    5  C   UNL     1      -7.825  10.118  66.363  1.00  0.00    -0.114 C  
HETATM    6  N   UNL     1      -7.483  11.183  67.023  1.00  0.00    -0.124 NA 
HETATM    7  C   UNL     1      -6.540  10.698  68.059  1.00  0.00    -0.063 C  
HETATM    8  C   UNL     1      -6.253   9.271  67.622  1.00  0.00    -0.058 C  
HETATM    9  C   UNL     1      -7.238  10.705  69.424  1.00  0.00    -0.126 C  
HETATM   10  O   UNL     1      -5.341   8.553  68.003  1.00  0.00    -0.033 OA 
HETATM   11  N   UNL     1      -7.236   8.960  66.717  1.00  0.00    -0.081 N  
HETATM   12  C   UNL     1      -6.114  11.025  70.395  1.00  0.00    -0.131 C  
HETATM   13  C   UNL     1      -5.309  12.076  69.648  1.00  0.00    -0.073 C  
HETATM   14  C   UNL     1      -5.324  11.614  68.190  1.00  0.00    -0.043 C  
BRANCH  11  15
HETATM   15  C   UNL     1      -7.402   7.606  66.194  1.00  0.00    -0.078 C  
BRANCH  15  16
HETATM   16  C   UNL     1      -8.025   6.667  67.212  1.00  0.00    -0.117 A  
HETATM   17  C   UNL     1      -9.345   6.830  67.629  1.00  0.00    -0.121 A  
HETATM   18  C   UNL     1      -9.835   6.140  68.747  1.00  0.00    -0.160 A  
HETATM   19  C   UNL     1      -9.051   5.207  69.454  1.00  0.00    -0.144 A  
HETATM   20  C   UNL     1      -7.809   4.898  68.881  1.00  0.00    -0.077 A  
HETATM   21  C   UNL     1      -7.277   5.650  67.818  1.00  0.00    -0.072 A  
BRANCH  19  22
HETATM   22  C   UNL     1      -9.523   4.650  70.768  1.00  0.00    -0.235 A  
HETATM   23  C   UNL     1      -9.655   3.243  70.899  1.00  0.00    -0.234 A  
HETATM   24  C   UNL     1     -10.197   2.631  72.036  1.00  0.00    -0.117 A  
HETATM   25  C   UNL     1     -10.591   3.402  73.113  1.00  0.00    -0.270 A  
HETATM   26  C   UNL     1     -10.442   4.784  73.047  1.00  0.00    -0.258 A  
HETATM   27  C   UNL     1      -9.932   5.428  71.890  1.00  0.00    -0.233 A  
BRANCH  27  28
HETATM   28  C   UNL     1      -9.914   6.888  71.950  1.00  0.00    -0.171 A  
HETATM   29  N   UNL     1      -8.797   7.612  72.176  1.00  0.00    -0.120 NA 
HETATM   30  N   UNL     1      -9.308   8.850  72.168  1.00  0.00    -0.363 NA 
HETATM   31  H   UNL     1      -8.725   9.675  72.309  1.00  0.00     0.000 HD 
HETATM   32  N   UNL     1     -10.624   8.941  71.966  1.00  0.00    -0.344 NA 
HETATM   33  N   UNL     1     -11.032   7.684  71.859  1.00  0.00    -0.234 NA 
ENDBRANCH  27  28
ENDBRANCH  19  22
ENDBRANCH  15  16
ENDBRANCH  11  15
ENDBRANCH   4   5
ENDBRANCH   3   4
ENDBRANCH   2   3
TORSDOF 7
ENDMDL
MODEL      227
REMARK 921   NORMALIZED FREE ENERGY PREDICTED BY IDOCK:   -3.62 KCAL/MOL
REMARK 922        TOTAL FREE ENERGY PREDICTED BY IDOCK:   -7.05 KCAL/MOL
REMARK 923 INTER-LIGAND FREE ENERGY PREDICTED BY IDOCK:   -5.23 KCAL/MOL
REMARK 924 INTRA-LIGAND FREE ENERGY PREDICTED BY IDOCK:   -1.82 KCAL/MOL
REMARK 927      BINDING AFFINITY PREDICTED BY RF-SCORE:    0.00 PKD
ROOT
HETATM    1  C   UNL     1     -11.506   9.024  70.020  1.00  0.00    -0.005 C  
HETATM    2  C   UNL     1     -11.035   7.679  70.537  1.00  0.00    -0.259 C  
ENDROOT
BRANCH   2   3
HETATM    3  C   UNL     1     -10.952   6.652  69.412  1.00  0.00    -0.361 C  
BRANCH   3   4
HETATM    4  C   UNL     1     -10.799   7.315  68.047  1.00  0.00    -0.161 C  
BRANCH   4   5
HETATM    5  C   UNL     1      -9.627   6.730  67.312  1.00  0.00    -0.137 C  
HETATM    6  N   UNL     1      -9.839   5.911  66.325  1.00  0.00    -0.119 NA 
HETATM    7  C   UNL     1      -8.488   5.599  65.798  1.00  0.00    -0.140 C  
HETATM    8  C   UNL     1      -7.564   6.169  66.861  1.00  0.00    -0.099 C  
HETATM    9  C   UNL     1      -8.282   6.330  64.467  1.00  0.00    -0.062 C  
HETATM   10  O   UNL     1      -6.374   5.932  67.007  1.00  0.00    -0.035 OA 
HETATM   11  N   UNL     1      -8.345   7.008  67.615  1.00  0.00    -0.116 N  
HETATM   12  C   UNL     1      -7.394   5.383  63.676  1.00  0.00    -0.053 C  
HETATM   13  C   UNL     1      -7.965   4.017  64.019  1.00  0.00    -0.089 C  
HETATM   14  C   UNL     1      -8.328   4.108  65.503  1.00  0.00    -0.109 C  
BRANCH  11  15
HETATM   15  C   UNL     1      -7.774   7.880  68.639  1.00  0.00    -0.113 C  
BRANCH  15  16
HETATM   16  C   UNL     1      -7.832   9.345  68.245  1.00  0.00    -0.090 A  
HETATM   17  C   UNL     1      -8.316  10.309  69.128  1.00  0.00    -0.154 A  
HETATM   18  C   UNL     1      -8.615  11.605  68.682  1.00  0.00    -0.086 A  
HETATM   19  C   UNL     1      -8.379  12.014  67.355  1.00  0.00    -0.171 A  
HETATM   20  C   UNL     1      -7.686  11.098  66.551  1.00  0.00    -0.146 A  
HETATM   21  C   UNL     1      -7.467   9.770  66.962  1.00  0.00    -0.091 A  
BRANCH  19  22
HETATM   22  C   UNL     1      -8.908  13.328  66.853  1.00  0.00    -0.186 A  
HETATM   23  C   UNL     1      -8.721  14.484  67.655  1.00  0.00    -0.186 A  
HETATM   24  C   UNL     1      -9.276  15.730  67.338  1.00  0.00    -0.208 A  
HETATM   25  C   UNL     1     -10.009  15.883  66.176  1.00  0.00    -0.337 A  
HETATM   26  C   UNL     1     -10.184  14.788  65.337  1.00  0.00    -0.415 A  
HETATM   27  C   UNL     1      -9.664  13.506  65.658  1.00  0.00    -0.109 A  
BRANCH  27  28
HETATM   28  C   UNL     1     -10.005  12.444  64.714  1.00  0.00    -0.172 A  
HETATM   29  N   UNL     1     -10.870  11.446  64.996  1.00  0.00    -0.275 NA 
HETATM   30  N   UNL     1     -10.807  10.746  63.854  1.00  0.00    -0.382 NA 
HETATM   31  H   UNL     1     -11.356   9.899  63.710  1.00  0.00     0.000 HD 
HETATM   32  N   UNL     1      -9.986  11.224  62.917  1.00  0.00    -0.284 NA 
HETATM   33  N   UNL     1      -9.437  12.296  63.471  1.00  0.00    -0.080 NA 
ENDBRANCH  27  28
ENDBRANCH  19  22
ENDBRANCH  15  16
ENDBRANCH  11  15
ENDBRANCH   4   5
ENDBRANCH   3   4
ENDBRANCH   2   3
TORSDOF 7
ENDMDL
MODEL      228
REMARK 921   NORMALIZED FREE ENERGY PREDICTED BY IDOCK:   -3.59 KCAL/MOL
REMARK 922        TOTAL FREE ENERGY PREDICTED BY IDOCK:   -7.00 KCAL/MOL
REMARK 923 INTER-LIGAND FREE ENERGY PREDICTED BY IDOCK:   -5.77 KCAL/MOL
REMARK 924 INTRA-LIGAND FREE ENERGY PREDICTED BY IDOCK:   -1.23 KCAL/MOL
REMARK 927      BINDING AFFINITY PREDICTED BY RF-SCORE:    0.00 PKD
ROOT
HETATM    1  C   UNL     1     -12.161  15.424  69.161  1.00  0.00    -0.270 C  
HETATM    2  C   UNL     1     -12.257  14.261  70.128  1.00  0.00    -0.407 C  
ENDROOT
BRANCH   2   3
HETATM    3  C   UNL     1     -12.592  12.962  69.400  1.00  0.00     0.423 C  
BRANCH   3   4
HETATM    4  C   UNL     1     -11.544  11.884  69.651  1.00  0.00    -0.387 C  
BRANCH   4   5
HETATM    5  C   UNL     1     -10.380  12.061  68.716  1.00  0.00    -0.160 C  
HETATM    6  N   UNL     1      -9.517  13.005  68.947  1.00  0.00     0.150 NA 
HETATM    7  C   UNL     1      -8.489  12.841  67.891  1.00  0.00    -0.173 C  
HETATM    8  C   UNL     1      -9.131  11.848  66.937  1.00  0.00    -0.196 C  
HETATM    9  C   UNL     1      -7.220  12.241  68.507  1.00  0.00    -0.103 C  
HETATM   10  O   UNL     1      -8.788  11.600  65.790  1.00  0.00    -0.133 OA 
HETATM   11  N   UNL     1     -10.170  11.287  67.635  1.00  0.00    -0.178 N  
HETATM   12  C   UNL     1      -6.100  12.865  67.691  1.00  0.00    -0.154 C  
HETATM   13  C   UNL     1      -6.573  14.298  67.505  1.00  0.00    -0.098 C  
HETATM   14  C   UNL     1      -8.083  14.184  67.284  1.00  0.00    -0.188 C  
BRANCH  11  15
HETATM   15  C   UNL     1     -10.930  10.155  67.110  1.00  0.00    -0.134 C  
BRANCH  15  16
HETATM   16  C   UNL     1     -10.365   8.821  67.567  1.00  0.00    -0.334 A  
HETATM   17  C   UNL     1     -10.828   7.621  67.030  1.00  0.00    -0.219 A  
HETATM   18  C   UNL     1     -10.504   6.395  67.628  1.00  0.00    -0.284 A  
HETATM   19  C   UNL     1      -9.649   6.308  68.745  1.00  0.00    -0.128 A  
HETATM   20  C   UNL     1      -9.022   7.504  69.124  1.00  0.00    -0.135 A  
HETATM   21  C   UNL     1      -9.411   8.745  68.589  1.00  0.00    -0.143 A  
BRANCH  19  22
HETATM   22  C   UNL     1      -9.496   5.014  69.494  1.00  0.00    -0.207 A  
HETATM   23  C   UNL     1      -8.944   3.899  68.812  1.00  0.00    -0.172 A  
HETATM   24  C   UNL     1      -8.868   2.620  69.378  1.00  0.00    -0.151 A  
HETATM   25  C   UNL     1      -9.303   2.413  70.673  1.00  0.00    -0.209 A  
HETATM   26  C   UNL     1      -9.814   3.486  71.396  1.00  0.00    -0.214 A  
HETATM   27  C   UNL     1      -9.937   4.781  70.828  1.00  0.00    -0.291 A  
BRANCH  27  28
HETATM   28  C   UNL     1     -10.567   5.779  71.691  1.00  0.00    -0.245 A  
HETATM   29  N   UNL     1     -10.017   6.224  72.840  1.00  0.00    -0.168 NA 
HETATM   30  N   UNL     1     -10.972   7.069  73.251  1.00  0.00    -0.495 NA 
HETATM   31  H   UNL     1     -10.885   7.603  74.115  1.00  0.00     0.000 HD 
HETATM   32  N   UNL     1     -12.045   7.170  72.463  1.00  0.00    -0.087 NA 
HETATM   33  N   UNL     1     -11.813   6.319  71.474  1.00  0.00    -0.284 NA 
ENDBRANCH  27  28
ENDBRANCH  19  22
ENDBRANCH  15  16
ENDBRANCH  11  15
ENDBRANCH   4   5
ENDBRANCH   3   4
ENDBRANCH   2   3
TORSDOF 7
ENDMDL
MODEL      229
REMARK 921   NORMALIZED FREE ENERGY PREDICTED BY IDOCK:   -3.56 KCAL/MOL
REMARK 922        TOTAL FREE ENERGY PREDICTED BY IDOCK:   -6.96 KCAL/MOL
REMARK 923 INTER-LIGAND FREE ENERGY PREDICTED BY IDOCK:   -6.64 KCAL/MOL
REMARK 924 INTRA-LIGAND FREE ENERGY PREDICTED BY IDOCK:   -0.32 KCAL/MOL
REMARK 927      BINDING AFFINITY PREDICTED BY RF-SCORE:    0.00 PKD
ROOT
HETATM    1  C   UNL     1     -10.575  19.555  66.610  1.00  0.00    -0.583 C  
HETATM    2  C   UNL     1     -11.013  18.434  65.688  1.00  0.00     0.238 C  
ENDROOT
BRANCH   2   3
HETATM    3  C   UNL     1     -10.654  17.069  66.267  1.00  0.00    -0.185 C  
BRANCH   3   4
HETATM    4  C   UNL     1      -9.419  16.475  65.596  1.00  0.00     0.003 C  
BRANCH   4   5
HETATM    5  C   UNL     1      -8.173  16.925  66.306  1.00  0.00    -0.309 C  
HETATM    6  N   UNL     1      -7.897  18.193  66.364  1.00  0.00    -0.262 NA 
HETATM    7  C   UNL     1      -6.664  18.273  67.185  1.00  0.00    -0.188 C  
HETATM    8  C   UNL     1      -6.221  16.823  67.282  1.00  0.00    -0.174 C  
HETATM    9  C   UNL     1      -7.016  18.816  68.575  1.00  0.00    -0.288 C  
HETATM   10  O   UNL     1      -5.126  16.409  67.632  1.00  0.00    -0.113 OA 
HETATM   11  N   UNL     1      -7.310  16.080  66.901  1.00  0.00    -0.221 N  
HETATM   12  C   UNL     1      -5.779  19.606  68.969  1.00  0.00    -0.252 C  
HETATM   13  C   UNL     1      -5.384  20.289  67.671  1.00  0.00    -0.198 C  
HETATM   14  C   UNL     1      -5.648  19.243  66.585  1.00  0.00    -0.163 C  
BRANCH  11  15
HETATM   15  C   UNL     1      -7.332  14.625  67.026  1.00  0.00     0.260 C  
BRANCH  15  16
HETATM   16  C   UNL     1      -8.592  14.125  67.711  1.00  0.00    -0.184 A  
HETATM   17  C   UNL     1      -9.072  14.733  68.869  1.00  0.00    -0.168 A  
HETATM   18  C   UNL     1     -10.069  14.121  69.642  1.00  0.00     0.418 A  
HETATM   19  C   UNL     1     -10.677  12.909  69.257  1.00  0.00     0.032 A  
HETATM   20  C   UNL     1     -10.336  12.437  67.981  1.00  0.00    -0.220 A  
HETATM   21  C   UNL     1      -9.275  12.995  67.245  1.00  0.00    -0.213 A  
BRANCH  19  22
HETATM   22  C   UNL     1     -11.577  12.169  70.206  1.00  0.00    -0.105 A  
HETATM   23  C   UNL     1     -11.715  10.765  70.051  1.00  0.00    -0.417 A  
HETATM   24  C   UNL     1     -12.616  10.000  70.803  1.00  0.00    -0.372 A  
HETATM   25  C   UNL     1     -13.389  10.605  71.777  1.00  0.00    -0.437 A  
HETATM   26  C   UNL     1     -13.257  11.972  71.993  1.00  0.00    -0.481 A  
HETATM   27  C   UNL     1     -12.380  12.773  71.216  1.00  0.00    -0.161 A  
BRANCH  27  28
HETATM   28  C   UNL     1     -12.419  14.204  71.513  1.00  0.00    -0.341 A  
HETATM   29  N   UNL     1     -13.303  15.057  70.953  1.00  0.00    -0.398 NA 
HETATM   30  N   UNL     1     -12.909  16.210  71.512  1.00  0.00    -0.441 NA 
HETATM   31  H   UNL     1     -13.375  17.094  71.310  1.00  0.00     0.000 HD 
HETATM   32  N   UNL     1     -11.873  16.132  72.349  1.00  0.00    -0.526 NA 
HETATM   33  N   UNL     1     -11.525  14.853  72.332  1.00  0.00    -0.192 NA 
ENDBRANCH  27  28
ENDBRANCH  19  22
ENDBRANCH  15  16
ENDBRANCH  11  15
ENDBRANCH   4   5
ENDBRANCH   3   4
ENDBRANCH   2   3
TORSDOF 7
ENDMDL
MODEL      230
REMARK 921   NORMALIZED FREE ENERGY PREDICTED BY IDOCK:   -3.44 KCAL/MOL
REMARK 922        TOTAL FREE ENERGY PREDICTED BY IDOCK:   -6.79 KCAL/MOL
REMARK 923 INTER-LIGAND FREE ENERGY PREDICTED BY IDOCK:   -6.08 KCAL/MOL
REMARK 924 INTRA-LIGAND FREE ENERGY PREDICTED BY IDOCK:   -0.72 KCAL/MOL
REMARK 927      BINDING AFFINITY PREDICTED BY RF-SCORE:    0.00 PKD
ROOT
HETATM    1  C   UNL     1      -5.267  11.917  67.722  1.00  0.00    -0.062 C  
HETATM    2  C   UNL     1      -5.775  12.629  68.958  1.00  0.00    -0.072 C  
ENDROOT
BRANCH   2   3
HETATM    3  C   UNL     1      -7.198  13.143  68.757  1.00  0.00    -0.085 C  
BRANCH   3   4
HETATM    4  C   UNL     1      -7.421  13.655  67.338  1.00  0.00    -0.139 C  
BRANCH   4   5
HETATM    5  C   UNL     1      -8.526  14.674  67.319  1.00  0.00    -0.215 C  
HETATM    6  N   UNL     1      -8.282  15.883  67.725  1.00  0.00    -0.144 NA 
HETATM    7  C   UNL     1      -9.551  16.619  67.502  1.00  0.00    -0.242 C  
HETATM    8  C   UNL     1     -10.540  15.510  67.188  1.00  0.00    -0.300 C  
HETATM    9  C   UNL     1      -9.392  17.547  66.293  1.00  0.00    -0.231 C  
HETATM   10  O   UNL     1     -11.760  15.587  67.190  1.00  0.00    -0.085 OA 
HETATM   11  N   UNL     1      -9.777  14.407  66.897  1.00  0.00    -0.253 N  
HETATM   12  C   UNL     1     -10.271  18.737  66.642  1.00  0.00    -0.453 C  
HETATM   13  C   UNL     1     -10.006  18.930  68.126  1.00  0.00    -0.431 C  
HETATM   14  C   UNL     1      -9.903  17.512  68.691  1.00  0.00    -0.338 C  
BRANCH  11  15
HETATM   15  C   UNL     1     -10.366  13.176  66.378  1.00  0.00    -0.287 C  
BRANCH  15  16
HETATM   16  C   UNL     1     -10.786  12.226  67.485  1.00  0.00    -0.255 A  
HETATM   17  C   UNL     1     -10.187  12.276  68.743  1.00  0.00    -0.119 A  
HETATM   18  C   UNL     1     -10.381  11.244  69.672  1.00  0.00     0.173 A  
HETATM   19  C   UNL     1     -11.234  10.153  69.413  1.00  0.00    -0.265 A  
HETATM   20  C   UNL     1     -11.994  10.241  68.238  1.00  0.00     0.727 A  
HETATM   21  C   UNL     1     -11.737  11.223  67.263  1.00  0.00    -0.047 A  
BRANCH  19  22
HETATM   22  C   UNL     1     -11.252   8.961  70.328  1.00  0.00    -0.219 A  
HETATM   23  C   UNL     1     -11.555   9.165  71.700  1.00  0.00    -0.449 A  
HETATM   24  C   UNL     1     -11.482   8.145  72.657  1.00  0.00    -0.454 A  
HETATM   25  C   UNL     1     -11.145   6.861  72.271  1.00  0.00    -0.284 A  
HETATM   26  C   UNL     1     -10.881   6.603  70.930  1.00  0.00    -0.297 A  
HETATM   27  C   UNL     1     -10.910   7.631  69.950  1.00  0.00    -0.241 A  
BRANCH  27  28
HETATM   28  C   UNL     1     -10.529   7.212  68.602  1.00  0.00    -0.197 A  
HETATM   29  N   UNL     1      -9.464   7.712  67.940  1.00  0.00    -0.142 NA 
HETATM   30  N   UNL     1      -9.571   7.049  66.780  1.00  0.00    -0.165 NA 
HETATM   31  H   UNL     1      -8.906   7.183  66.019  1.00  0.00     0.000 HD 
HETATM   32  N   UNL     1     -10.600   6.205  66.680  1.00  0.00    -0.248 NA 
HETATM   33  N   UNL     1     -11.245   6.326  67.832  1.00  0.00    -0.254 NA 
ENDBRANCH  27  28
ENDBRANCH  19  22
ENDBRANCH  15  16
ENDBRANCH  11  15
ENDBRANCH   4   5
ENDBRANCH   3   4
ENDBRANCH   2   3
TORSDOF 7
ENDMDL
MODEL      231
REMARK 921   NORMALIZED FREE ENERGY PREDICTED BY IDOCK:   -3.40 KCAL/MOL
REMARK 922        TOTAL FREE ENERGY PREDICTED BY IDOCK:   -6.73 KCAL/MOL
REMARK 923 INTER-LIGAND FREE ENERGY PREDICTED BY IDOCK:   -5.62 KCAL/MOL
REMARK 924 INTRA-LIGAND FREE ENERGY PREDICTED BY IDOCK:   -1.11 KCAL/MOL
REMARK 927      BINDING AFFINITY PREDICTED BY RF-SCORE:    0.00 PKD
ROOT
HETATM    1  C   UNL     1     -10.616  19.055  65.966  1.00  0.00    -0.499 C  
HETATM    2  C   UNL     1     -10.649  17.642  65.420  1.00  0.00     0.033 C  
ENDROOT
BRANCH   2   3
HETATM    3  C   UNL     1     -10.213  16.630  66.475  1.00  0.00    -0.314 C  
BRANCH   3   4
HETATM    4  C   UNL     1      -8.777  16.167  66.258  1.00  0.00    -0.373 C  
BRANCH   4   5
HETATM    5  C   UNL     1      -7.872  16.773  67.294  1.00  0.00    -0.173 C  
HETATM    6  N   UNL     1      -7.335  17.935  67.068  1.00  0.00    -0.189 NA 
HETATM    7  C   UNL     1      -6.581  18.249  68.306  1.00  0.00    -0.210 C  
HETATM    8  C   UNL     1      -6.600  16.932  69.064  1.00  0.00    -0.209 C  
HETATM    9  C   UNL     1      -7.332  19.327  69.096  1.00  0.00    -0.341 C  
HETATM   10  O   UNL     1      -5.895  16.615  70.010  1.00  0.00    -0.211 OA 
HETATM   11  N   UNL     1      -7.579  16.178  68.466  1.00  0.00    -0.161 N  
HETATM   12  C   UNL     1      -6.217  20.118  69.761  1.00  0.00    -0.381 C  
HETATM   13  C   UNL     1      -5.158  20.192  68.674  1.00  0.00    -0.221 C  
HETATM   14  C   UNL     1      -5.199  18.821  67.996  1.00  0.00    -0.175 C  
BRANCH  11  15
HETATM   15  C   UNL     1      -8.017  14.901  69.023  1.00  0.00    -0.170 C  
BRANCH  15  16
HETATM   16  C   UNL     1      -7.656  13.728  68.129  1.00  0.00    -0.128 A  
HETATM   17  C   UNL     1      -8.639  13.012  67.448  1.00  0.00    -0.199 A  
HETATM   18  C   UNL     1      -8.341  11.783  66.841  1.00  0.00    -0.170 A  
HETATM   19  C   UNL     1      -7.037  11.251  66.827  1.00  0.00    -0.143 A  
HETATM   20  C   UNL     1      -6.031  12.094  67.320  1.00  0.00    -0.152 A  
HETATM   21  C   UNL     1      -6.334  13.282  68.010  1.00  0.00    -0.128 A  
BRANCH  19  22
HETATM   22  C   UNL     1      -6.790   9.842  66.366  1.00  0.00    -0.088 A  
HETATM   23  C   UNL     1      -5.954   9.635  65.238  1.00  0.00    -0.069 A  
HETATM   24  C   UNL     1      -5.755   8.377  64.656  1.00  0.00    -0.048 A  
HETATM   25  C   UNL     1      -6.352   7.260  65.209  1.00  0.00    -0.038 A  
HETATM   26  C   UNL     1      -7.147   7.407  66.341  1.00  0.00    -0.074 A  
HETATM   27  C   UNL     1      -7.394   8.678  66.923  1.00  0.00    -0.079 A  
BRANCH  27  28
HETATM   28  C   UNL     1      -8.315   8.672  68.058  1.00  0.00    -0.123 A  
HETATM   29  N   UNL     1      -9.613   8.313  67.962  1.00  0.00    -0.150 NA 
HETATM   30  N   UNL     1     -10.009   8.506  69.227  1.00  0.00    -0.190 NA 
HETATM   31  H   UNL     1     -10.967   8.324  69.527  1.00  0.00     0.000 HD 
HETATM   32  N   UNL     1      -9.077   8.951  70.072  1.00  0.00    -0.157 NA 
HETATM   33  N   UNL     1      -7.991   9.095  69.325  1.00  0.00    -0.094 NA 
ENDBRANCH  27  28
ENDBRANCH  19  22
ENDBRANCH  15  16
ENDBRANCH  11  15
ENDBRANCH   4   5
ENDBRANCH   3   4
ENDBRANCH   2   3
TORSDOF 7
ENDMDL
MODEL      232
REMARK 921   NORMALIZED FREE ENERGY PREDICTED BY IDOCK:   -3.39 KCAL/MOL
REMARK 922        TOTAL FREE ENERGY PREDICTED BY IDOCK:   -6.73 KCAL/MOL
REMARK 923 INTER-LIGAND FREE ENERGY PREDICTED BY IDOCK:   -5.71 KCAL/MOL
REMARK 924 INTRA-LIGAND FREE ENERGY PREDICTED BY IDOCK:   -1.02 KCAL/MOL
REMARK 927      BINDING AFFINITY PREDICTED BY RF-SCORE:    0.00 PKD
ROOT
HETATM    1  C   UNL     1      -9.422   2.584  71.789  1.00  0.00    -0.198 C  
HETATM    2  C   UNL     1      -8.906   3.082  70.454  1.00  0.00    -0.146 C  
ENDROOT
BRANCH   2   3
HETATM    3  C   UNL     1      -8.714   4.596  70.464  1.00  0.00    -0.132 C  
BRANCH   3   4
HETATM    4  C   UNL     1      -9.627   5.291  69.460  1.00  0.00    -0.213 C  
BRANCH   4   5
HETATM    5  C   UNL     1      -9.208   4.956  68.056  1.00  0.00    -0.123 C  
HETATM    6  N   UNL     1      -9.782   3.966  67.440  1.00  0.00    -0.175 NA 
HETATM    7  C   UNL     1      -9.187   3.973  66.081  1.00  0.00    -0.155 C  
HETATM    8  C   UNL     1      -8.026   4.943  66.218  1.00  0.00    -0.107 C  
HETATM    9  C   UNL     1     -10.216   4.513  65.081  1.00  0.00    -0.142 C  
HETATM   10  O   UNL     1      -7.086   5.081  65.450  1.00  0.00    -0.064 OA 
HETATM   11  N   UNL     1      -8.259   5.633  67.381  1.00  0.00    -0.102 N  
HETATM   12  C   UNL     1      -9.906   3.746  63.806  1.00  0.00    -0.171 C  
HETATM   13  C   UNL     1      -9.608   2.346  64.316  1.00  0.00    -0.135 C  
HETATM   14  C   UNL     1      -8.829   2.563  65.615  1.00  0.00    -0.127 C  
BRANCH  11  15
HETATM   15  C   UNL     1      -7.446   6.781  67.773  1.00  0.00    -0.098 C  
BRANCH  15  16
HETATM   16  C   UNL     1      -8.271   8.047  67.925  1.00  0.00    -0.129 A  
HETATM   17  C   UNL     1      -9.041   8.535  66.871  1.00  0.00    -0.177 A  
HETATM   18  C   UNL     1      -9.587   9.826  66.919  1.00  0.00    -0.228 A  
HETATM   19  C   UNL     1      -9.446  10.658  68.048  1.00  0.00    -0.164 A  
HETATM   20  C   UNL     1      -8.863  10.060  69.174  1.00  0.00    -0.171 A  
HETATM   21  C   UNL     1      -8.234   8.803  69.103  1.00  0.00    -0.119 A  
BRANCH  19  22
HETATM   22  C   UNL     1      -9.849  12.105  67.988  1.00  0.00    -0.202 A  
HETATM   23  C   UNL     1     -11.226  12.429  68.096  1.00  0.00    -0.313 A  
HETATM   24  C   UNL     1     -11.718  13.731  67.934  1.00  0.00    -0.395 A  
HETATM   25  C   UNL     1     -10.842  14.774  67.700  1.00  0.00    -0.285 A  
HETATM   26  C   UNL     1      -9.478  14.511  67.628  1.00  0.00    -0.209 A  
HETATM   27  C   UNL     1      -8.962  13.194  67.750  1.00  0.00    -0.194 A  
BRANCH  27  28
HETATM   28  C   UNL     1      -7.516  13.076  67.569  1.00  0.00    -0.156 A  
HETATM   29  N   UNL     1      -6.635  14.009  67.988  1.00  0.00    -0.130 NA 
HETATM   30  N   UNL     1      -5.487  13.460  67.567  1.00  0.00    -0.337 NA 
HETATM   31  H   UNL     1      -4.585  13.909  67.724  1.00  0.00     0.000 HD 
HETATM   32  N   UNL     1      -5.594  12.291  66.932  1.00  0.00    -0.325 NA 
HETATM   33  N   UNL     1      -6.897  12.050  66.895  1.00  0.00    -0.090 NA 
ENDBRANCH  27  28
ENDBRANCH  19  22
ENDBRANCH  15  16
ENDBRANCH  11  15
ENDBRANCH   4   5
ENDBRANCH   3   4
ENDBRANCH   2   3
TORSDOF 7
ENDMDL
MODEL      233
REMARK 921   NORMALIZED FREE ENERGY PREDICTED BY IDOCK:   -3.35 KCAL/MOL
REMARK 922        TOTAL FREE ENERGY PREDICTED BY IDOCK:   -6.67 KCAL/MOL
REMARK 923 INTER-LIGAND FREE ENERGY PREDICTED BY IDOCK:   -5.36 KCAL/MOL
REMARK 924 INTRA-LIGAND FREE ENERGY PREDICTED BY IDOCK:   -1.31 KCAL/MOL
REMARK 927      BINDING AFFINITY PREDICTED BY RF-SCORE:    0.00 PKD
ROOT
HETATM    1  C   UNL     1     -10.922  13.168  66.148  1.00  0.00    -0.299 C  
HETATM    2  C   UNL     1      -9.833  13.729  67.040  1.00  0.00    -0.251 C  
ENDROOT
BRANCH   2   3
HETATM    3  C   UNL     1     -10.013  13.275  68.486  1.00  0.00    -0.189 C  
BRANCH   3   4
HETATM    4  C   UNL     1      -9.332  14.222  69.468  1.00  0.00     0.506 C  
BRANCH   4   5
HETATM    5  C   UNL     1      -8.273  15.026  68.767  1.00  0.00    -0.168 C  
HETATM    6  N   UNL     1      -8.621  16.061  68.064  1.00  0.00    -0.164 NA 
HETATM    7  C   UNL     1      -7.341  16.642  67.590  1.00  0.00    -0.143 C  
HETATM    8  C   UNL     1      -6.326  15.565  67.936  1.00  0.00    -0.152 C  
HETATM    9  C   UNL     1      -7.044  17.924  68.376  1.00  0.00    -0.245 C  
HETATM   10  O   UNL     1      -5.184  15.465  67.512  1.00  0.00    -0.304 OA 
HETATM   11  N   UNL     1      -6.959  14.736  68.827  1.00  0.00    -0.097 N  
HETATM   12  C   UNL     1      -6.322  18.800  67.366  1.00  0.00    -0.191 C  
HETATM   13  C   UNL     1      -7.089  18.538  66.080  1.00  0.00    -0.301 C  
HETATM   14  C   UNL     1      -7.413  17.043  66.118  1.00  0.00    -0.255 C  
BRANCH  11  15
HETATM   15  C   UNL     1      -6.248  13.668  69.526  1.00  0.00    -0.118 C  
BRANCH  15  16
HETATM   16  C   UNL     1      -6.513  12.304  68.915  1.00  0.00    -0.089 A  
HETATM   17  C   UNL     1      -6.862  12.171  67.572  1.00  0.00    -0.127 A  
HETATM   18  C   UNL     1      -7.358  10.957  67.076  1.00  0.00    -0.118 A  
HETATM   19  C   UNL     1      -7.461   9.805  67.881  1.00  0.00    -0.086 A  
HETATM   20  C   UNL     1      -6.896   9.904  69.160  1.00  0.00    -0.055 A  
HETATM   21  C   UNL     1      -6.482  11.139  69.692  1.00  0.00    -0.128 A  
BRANCH  19  22
HETATM   22  C   UNL     1      -8.195   8.589  67.387  1.00  0.00    -0.109 A  
HETATM   23  C   UNL     1      -7.485   7.640  66.607  1.00  0.00    -0.093 A  
HETATM   24  C   UNL     1      -8.100   6.538  66.001  1.00  0.00    -0.121 A  
HETATM   25  C   UNL     1      -9.452   6.314  66.188  1.00  0.00    -0.092 A  
HETATM   26  C   UNL     1     -10.181   7.195  66.979  1.00  0.00    -0.339 A  
HETATM   27  C   UNL     1      -9.586   8.340  67.570  1.00  0.00    -0.194 A  
BRANCH  27  28
HETATM   28  C   UNL     1     -10.506   9.208  68.303  1.00  0.00    -0.208 A  
HETATM   29  N   UNL     1     -11.455   9.961  67.707  1.00  0.00    -0.003 NA 
HETATM   30  N   UNL     1     -11.982  10.572  68.776  1.00  0.00    -0.734 NA 
HETATM   31  H   UNL     1     -12.754  11.234  68.694  1.00  0.00     0.000 HD 
HETATM   32  N   UNL     1     -11.439  10.263  69.956  1.00  0.00    -0.278 NA 
HETATM   33  N   UNL     1     -10.465   9.414  69.662  1.00  0.00    -0.213 NA 
ENDBRANCH  27  28
ENDBRANCH  19  22
ENDBRANCH  15  16
ENDBRANCH  11  15
ENDBRANCH   4   5
ENDBRANCH   3   4
ENDBRANCH   2   3
TORSDOF 7
ENDMDL
MODEL      234
REMARK 921   NORMALIZED FREE ENERGY PREDICTED BY IDOCK:   -3.35 KCAL/MOL
REMARK 922        TOTAL FREE ENERGY PREDICTED BY IDOCK:   -6.67 KCAL/MOL
REMARK 923 INTER-LIGAND FREE ENERGY PREDICTED BY IDOCK:   -5.41 KCAL/MOL
REMARK 924 INTRA-LIGAND FREE ENERGY PREDICTED BY IDOCK:   -1.26 KCAL/MOL
REMARK 927      BINDING AFFINITY PREDICTED BY RF-SCORE:    0.00 PKD
ROOT
HETATM    1  C   UNL     1     -11.659  15.408  68.181  1.00  0.00    -0.331 C  
HETATM    2  C   UNL     1     -12.085  14.003  68.555  1.00  0.00    -0.329 C  
ENDROOT
BRANCH   2   3
HETATM    3  C   UNL     1     -11.842  13.026  67.408  1.00  0.00    -0.411 C  
BRANCH   3   4
HETATM    4  C   UNL     1     -11.174  11.742  67.888  1.00  0.00    -0.331 C  
BRANCH   4   5
HETATM    5  C   UNL     1      -9.692  11.803  67.643  1.00  0.00    -0.182 C  
HETATM    6  N   UNL     1      -8.976  12.672  68.291  1.00  0.00    -0.194 NA 
HETATM    7  C   UNL     1      -7.581  12.404  67.865  1.00  0.00    -0.130 C  
HETATM    8  C   UNL     1      -7.757  11.455  66.691  1.00  0.00    -0.129 C  
HETATM    9  C   UNL     1      -6.829  11.706  69.004  1.00  0.00    -0.105 C  
HETATM   10  O   UNL     1      -6.921  11.160  65.850  1.00  0.00    -0.027 OA 
HETATM   11  N   UNL     1      -9.047  10.997  66.779  1.00  0.00    -0.159 N  
HETATM   12  C   UNL     1      -5.405  12.218  68.854  1.00  0.00    -0.054 C  
HETATM   13  C   UNL     1      -5.607  13.683  68.502  1.00  0.00    -0.091 C  
HETATM   14  C   UNL     1      -6.821  13.696  67.572  1.00  0.00    -0.152 C  
BRANCH  11  15
HETATM   15  C   UNL     1      -9.546   9.926  65.919  1.00  0.00    -0.239 C  
BRANCH  15  16
HETATM   16  C   UNL     1      -9.517   8.573  66.608  1.00  0.00    -0.268 A  
HETATM   17  C   UNL     1      -8.315   7.904  66.830  1.00  0.00    -0.116 A  
HETATM   18  C   UNL     1      -8.305   6.556  67.220  1.00  0.00    -0.113 A  
HETATM   19  C   UNL     1      -9.492   5.841  67.472  1.00  0.00    -0.112 A  
HETATM   20  C   UNL     1     -10.673   6.598  67.459  1.00  0.00    -0.387 A  
HETATM   21  C   UNL     1     -10.698   7.920  66.981  1.00  0.00    -0.289 A  
BRANCH  19  22
HETATM   22  C   UNL     1      -9.460   4.352  67.673  1.00  0.00    -0.204 A  
HETATM   23  C   UNL     1      -9.458   3.514  66.527  1.00  0.00    -0.172 A  
HETATM   24  C   UNL     1      -9.549   2.119  66.603  1.00  0.00     0.334 A  
HETATM   25  C   UNL     1      -9.602   1.497  67.836  1.00  0.00    -0.100 A  
HETATM   26  C   UNL     1      -9.565   2.275  68.989  1.00  0.00    -0.060 A  
HETATM   27  C   UNL     1      -9.513   3.692  68.935  1.00  0.00    -0.218 A  
BRANCH  27  28
HETATM   28  C   UNL     1      -9.562   4.364  70.232  1.00  0.00    -0.193 A  
HETATM   29  N   UNL     1     -10.544   5.218  70.592  1.00  0.00    -0.233 NA 
HETATM   30  N   UNL     1     -10.119   5.570  71.813  1.00  0.00    -0.189 NA 
HETATM   31  H   UNL     1     -10.640   6.224  72.398  1.00  0.00     0.000 HD 
HETATM   32  N   UNL     1      -8.976   5.015  72.219  1.00  0.00    -0.130 NA 
HETATM   33  N   UNL     1      -8.588   4.264  71.198  1.00  0.00    -0.091 NA 
ENDBRANCH  27  28
ENDBRANCH  19  22
ENDBRANCH  15  16
ENDBRANCH  11  15
ENDBRANCH   4   5
ENDBRANCH   3   4
ENDBRANCH   2   3
TORSDOF 7
ENDMDL
MODEL      235
REMARK 921   NORMALIZED FREE ENERGY PREDICTED BY IDOCK:   -3.33 KCAL/MOL
REMARK 922        TOTAL FREE ENERGY PREDICTED BY IDOCK:   -6.64 KCAL/MOL
REMARK 923 INTER-LIGAND FREE ENERGY PREDICTED BY IDOCK:   -5.58 KCAL/MOL
REMARK 924 INTRA-LIGAND FREE ENERGY PREDICTED BY IDOCK:   -1.06 KCAL/MOL
REMARK 927      BINDING AFFINITY PREDICTED BY RF-SCORE:    0.00 PKD
ROOT
HETATM    1  C   UNL     1     -10.289  11.625  64.472  1.00  0.00    -0.349 C  
HETATM    2  C   UNL     1     -10.257  10.910  65.807  1.00  0.00    -0.318 C  
ENDROOT
BRANCH   2   3
HETATM    3  C   UNL     1     -10.950  11.730  66.891  1.00  0.00    -0.333 C  
BRANCH   3   4
HETATM    4  C   UNL     1     -10.959  11.005  68.233  1.00  0.00    -0.287 C  
BRANCH   4   5
HETATM    5  C   UNL     1     -11.527  11.895  69.303  1.00  0.00    -0.306 C  
HETATM    6  N   UNL     1     -11.368  13.181  69.210  1.00  0.00    -0.268 NA 
HETATM    7  C   UNL     1     -12.105  13.736  70.371  1.00  0.00    -0.350 C  
HETATM    8  C   UNL     1     -12.409  12.504  71.206  1.00  0.00    -0.047 C  
HETATM    9  C   UNL     1     -13.406  14.383  69.884  1.00  0.00     0.913 C  
HETATM   10  O   UNL     1     -12.766  12.475  72.375  1.00  0.00     0.004 OA 
HETATM   11  N   UNL     1     -12.204  11.435  70.371  1.00  0.00    -0.357 N  
HETATM   12  C   UNL     1     -13.609  15.540  70.848  1.00  0.00    -0.270 C  
HETATM   13  C   UNL     1     -12.200  16.080  71.031  1.00  0.00    -0.328 C  
HETATM   14  C   UNL     1     -11.309  14.837  71.071  1.00  0.00    -0.188 C  
BRANCH  11  15
HETATM   15  C   UNL     1     -12.560  10.073  70.761  1.00  0.00    -0.285 C  
BRANCH  15  16
HETATM   16  C   UNL     1     -11.418   9.358  71.463  1.00  0.00    -0.467 A  
HETATM   17  C   UNL     1     -10.092   9.712  71.224  1.00  0.00    -0.026 A  
HETATM   18  C   UNL     1      -9.040   8.892  71.660  1.00  0.00    -0.280 A  
HETATM   19  C   UNL     1      -9.265   7.722  72.412  1.00  0.00    -0.218 A  
HETATM   20  C   UNL     1     -10.587   7.511  72.828  1.00  0.00    -0.365 A  
HETATM   21  C   UNL     1     -11.653   8.275  72.319  1.00  0.00    -0.449 A  
BRANCH  19  22
HETATM   22  C   UNL     1      -8.145   6.755  72.676  1.00  0.00    -0.104 A  
HETATM   23  C   UNL     1      -7.435   6.858  73.900  1.00  0.00    -0.097 A  
HETATM   24  C   UNL     1      -6.303   6.087  74.192  1.00  0.00    -0.070 A  
HETATM   25  C   UNL     1      -5.859   5.143  73.285  1.00  0.00    -0.023 A  
HETATM   26  C   UNL     1      -6.548   4.977  72.089  1.00  0.00    -0.044 A  
HETATM   27  C   UNL     1      -7.674   5.775  71.755  1.00  0.00    -0.101 A  
BRANCH  27  28
HETATM   28  C   UNL     1      -8.235   5.531  70.428  1.00  0.00    -0.104 A  
HETATM   29  N   UNL     1      -9.389   4.861  70.218  1.00  0.00    -0.143 NA 
HETATM   30  N   UNL     1      -9.438   4.882  68.880  1.00  0.00    -0.133 NA 
HETATM   31  H   UNL     1     -10.205   4.455  68.361  1.00  0.00     0.000 HD 
HETATM   32  N   UNL     1      -8.423   5.493  68.265  1.00  0.00    -0.098 NA 
HETATM   33  N   UNL     1      -7.625   5.885  69.248  1.00  0.00    -0.087 NA 
ENDBRANCH  27  28
ENDBRANCH  19  22
ENDBRANCH  15  16
ENDBRANCH  11  15
ENDBRANCH   4   5
ENDBRANCH   3   4
ENDBRANCH   2   3
TORSDOF 7
ENDMDL
MODEL      236
REMARK 921   NORMALIZED FREE ENERGY PREDICTED BY IDOCK:   -3.31 KCAL/MOL
REMARK 922        TOTAL FREE ENERGY PREDICTED BY IDOCK:   -6.61 KCAL/MOL
REMARK 923 INTER-LIGAND FREE ENERGY PREDICTED BY IDOCK:   -5.58 KCAL/MOL
REMARK 924 INTRA-LIGAND FREE ENERGY PREDICTED BY IDOCK:   -1.03 KCAL/MOL
REMARK 927      BINDING AFFINITY PREDICTED BY RF-SCORE:    0.00 PKD
ROOT
HETATM    1  C   UNL     1      -9.618   8.752  71.704  1.00  0.00    -0.363 C  
HETATM    2  C   UNL     1      -9.667   7.288  71.318  1.00  0.00    -0.168 C  
ENDROOT
BRANCH   2   3
HETATM    3  C   UNL     1      -8.442   6.888  70.501  1.00  0.00    -0.137 C  
BRANCH   3   4
HETATM    4  C   UNL     1      -7.734   8.102  69.908  1.00  0.00    -0.098 C  
BRANCH   4   5
HETATM    5  C   UNL     1      -7.624   7.963  68.416  1.00  0.00    -0.108 C  
HETATM    6  N   UNL     1      -6.498   7.576  67.895  1.00  0.00    -0.052 NA 
HETATM    7  C   UNL     1      -6.769   7.480  66.440  1.00  0.00    -0.057 C  
HETATM    8  C   UNL     1      -8.123   8.154  66.297  1.00  0.00    -0.107 C  
HETATM    9  C   UNL     1      -6.866   6.004  66.039  1.00  0.00    -0.061 C  
HETATM   10  O   UNL     1      -8.644   8.552  65.266  1.00  0.00    -0.171 OA 
HETATM   11  N   UNL     1      -8.638   8.216  67.568  1.00  0.00    -0.129 N  
HETATM   12  C   UNL     1      -6.313   5.985  64.623  1.00  0.00    -0.033 C  
HETATM   13  C   UNL     1      -5.144   6.952  64.702  1.00  0.00    -0.027 C  
HETATM   14  C   UNL     1      -5.633   8.080  65.613  1.00  0.00    -0.036 C  
BRANCH  11  15
HETATM   15  C   UNL     1     -10.010   8.649  67.823  1.00  0.00    -0.190 C  
BRANCH  15  16
HETATM   16  C   UNL     1     -10.165  10.156  67.731  1.00  0.00    -0.232 A  
HETATM   17  C   UNL     1     -11.409  10.739  67.494  1.00  0.00    -0.283 A  
HETATM   18  C   UNL     1     -11.512  12.095  67.149  1.00  0.00    -0.413 A  
HETATM   19  C   UNL     1     -10.388  12.942  67.095  1.00  0.00    -0.239 A  
HETATM   20  C   UNL     1      -9.185  12.386  67.555  1.00  0.00    -0.183 A  
HETATM   21  C   UNL     1      -9.058  11.009  67.813  1.00  0.00    -0.147 A  
BRANCH  19  22
HETATM   22  C   UNL     1     -10.498  14.324  66.514  1.00  0.00    -0.287 A  
HETATM   23  C   UNL     1     -11.379  14.531  65.421  1.00  0.00    -0.341 A  
HETATM   24  C   UNL     1     -11.467  15.747  64.733  1.00  0.00    -0.256 A  
HETATM   25  C   UNL     1     -10.706  16.826  65.139  1.00  0.00    -0.159 A  
HETATM   26  C   UNL     1      -9.858  16.684  66.233  1.00  0.00    -0.329 A  
HETATM   27  C   UNL     1      -9.723  15.449  66.920  1.00  0.00    -0.241 A  
BRANCH  27  28
HETATM   28  C   UNL     1      -8.732  15.443  67.995  1.00  0.00    -0.160 A  
HETATM   29  N   UNL     1      -9.055  15.459  69.306  1.00  0.00    -0.248 NA 
HETATM   30  N   UNL     1      -7.832  15.479  69.853  1.00  0.00    -0.052 NA 
HETATM   31  H   UNL     1      -7.692  15.491  70.863  1.00  0.00     0.000 HD 
HETATM   32  N   UNL     1      -6.807  15.481  68.998  1.00  0.00    -0.130 NA 
HETATM   33  N   UNL     1      -7.372  15.493  67.799  1.00  0.00    -0.141 NA 
ENDBRANCH  27  28
ENDBRANCH  19  22
ENDBRANCH  15  16
ENDBRANCH  11  15
ENDBRANCH   4   5
ENDBRANCH   3   4
ENDBRANCH   2   3
TORSDOF 7
ENDMDL
MODEL      237
REMARK 921   NORMALIZED FREE ENERGY PREDICTED BY IDOCK:   -3.27 KCAL/MOL
REMARK 922        TOTAL FREE ENERGY PREDICTED BY IDOCK:   -6.56 KCAL/MOL
REMARK 923 INTER-LIGAND FREE ENERGY PREDICTED BY IDOCK:   -6.67 KCAL/MOL
REMARK 924 INTRA-LIGAND FREE ENERGY PREDICTED BY IDOCK:    0.10 KCAL/MOL
REMARK 927      BINDING AFFINITY PREDICTED BY RF-SCORE:    0.00 PKD
ROOT
HETATM    1  C   UNL     1      -8.254  15.996  66.463  1.00  0.00    -0.334 C  
HETATM    2  C   UNL     1      -9.631  15.466  66.805  1.00  0.00    -0.257 C  
ENDROOT
BRANCH   2   3
HETATM    3  C   UNL     1      -9.553  14.341  67.834  1.00  0.00    -0.221 C  
BRANCH   3   4
HETATM    4  C   UNL     1     -10.818  13.490  67.841  1.00  0.00    -0.262 C  
BRANCH   4   5
HETATM    5  C   UNL     1     -11.531  13.627  69.157  1.00  0.00    -0.297 C  
HETATM    6  N   UNL     1     -11.549  14.781  69.753  1.00  0.00    -0.281 NA 
HETATM    7  C   UNL     1     -12.385  14.569  70.960  1.00  0.00    -0.347 C  
HETATM    8  C   UNL     1     -12.538  13.058  71.011  1.00  0.00    -0.299 C  
HETATM    9  C   UNL     1     -13.751  15.234  70.754  1.00  0.00    -0.255 C  
HETATM   10  O   UNL     1     -12.918  12.387  71.959  1.00  0.00    -0.358 OA 
HETATM   11  N   UNL     1     -12.166  12.609  69.769  1.00  0.00    -0.200 N  
HETATM   12  C   UNL     1     -14.136  15.691  72.151  1.00  0.00    -0.546 C  
HETATM   13  C   UNL     1     -12.821  16.200  72.717  1.00  0.00    -0.446 C  
HETATM   14  C   UNL     1     -11.768  15.220  72.196  1.00  0.00    -0.537 C  
BRANCH  11  15
HETATM   15  C   UNL     1     -12.340  11.215  69.369  1.00  0.00    -0.155 C  
BRANCH  15  16
HETATM   16  C   UNL     1     -11.041  10.432  69.431  1.00  0.00    -0.304 A  
HETATM   17  C   UNL     1      -9.808  11.068  69.292  1.00  0.00    -0.060 A  
HETATM   18  C   UNL     1      -8.636  10.326  69.086  1.00  0.00    -0.167 A  
HETATM   19  C   UNL     1      -8.633   8.917  69.080  1.00  0.00    -0.138 A  
HETATM   20  C   UNL     1      -9.841   8.304  69.444  1.00  0.00    -0.185 A  
HETATM   21  C   UNL     1     -11.036   9.038  69.560  1.00  0.00    -0.118 A  
BRANCH  19  22
HETATM   22  C   UNL     1      -7.413   8.156  68.642  1.00  0.00    -0.098 A  
HETATM   23  C   UNL     1      -6.486   8.800  67.782  1.00  0.00    -0.061 A  
HETATM   24  C   UNL     1      -5.382   8.145  67.223  1.00  0.00    -0.037 A  
HETATM   25  C   UNL     1      -5.134   6.822  67.537  1.00  0.00    -0.008 A  
HETATM   26  C   UNL     1      -5.992   6.160  68.408  1.00  0.00    -0.016 A  
HETATM   27  C   UNL     1      -7.139   6.793  68.956  1.00  0.00    -0.089 A  
BRANCH  27  28
HETATM   28  C   UNL     1      -7.982   5.937  69.788  1.00  0.00    -0.101 A  
HETATM   29  N   UNL     1      -7.868   5.860  71.131  1.00  0.00    -0.109 NA 
HETATM   30  N   UNL     1      -8.810   4.945  71.399  1.00  0.00    -0.131 NA 
HETATM   31  H   UNL     1      -9.008   4.637  72.350  1.00  0.00     0.000 HD 
HETATM   32  N   UNL     1      -9.475   4.462  70.346  1.00  0.00    -0.157 NA 
HETATM   33  N   UNL     1      -8.927   5.066  69.301  1.00  0.00    -0.094 NA 
ENDBRANCH  27  28
ENDBRANCH  19  22
ENDBRANCH  15  16
ENDBRANCH  11  15
ENDBRANCH   4   5
ENDBRANCH   3   4
ENDBRANCH   2   3
TORSDOF 7
ENDMDL
MODEL      238
REMARK 921   NORMALIZED FREE ENERGY PREDICTED BY IDOCK:   -3.25 KCAL/MOL
REMARK 922        TOTAL FREE ENERGY PREDICTED BY IDOCK:   -6.53 KCAL/MOL
REMARK 923 INTER-LIGAND FREE ENERGY PREDICTED BY IDOCK:   -5.14 KCAL/MOL
REMARK 924 INTRA-LIGAND FREE ENERGY PREDICTED BY IDOCK:   -1.38 KCAL/MOL
REMARK 927      BINDING AFFINITY PREDICTED BY RF-SCORE:    0.00 PKD
ROOT
HETATM    1  C   UNL     1     -11.360  11.358  67.714  1.00  0.00    -0.354 C  
HETATM    2  C   UNL     1     -10.509  12.596  67.514  1.00  0.00    -0.229 C  
ENDROOT
BRANCH   2   3
HETATM    3  C   UNL     1      -9.223  12.523  68.332  1.00  0.00    -0.139 C  
BRANCH   3   4
HETATM    4  C   UNL     1      -7.983  12.641  67.453  1.00  0.00    -0.177 C  
BRANCH   4   5
HETATM    5  C   UNL     1      -7.751  11.359  66.703  1.00  0.00    -0.129 C  
HETATM    6  N   UNL     1      -8.283  11.205  65.528  1.00  0.00     0.018 NA 
HETATM    7  C   UNL     1      -7.794   9.883  65.064  1.00  0.00    -0.131 C  
HETATM    8  C   UNL     1      -7.169   9.289  66.315  1.00  0.00    -0.088 C  
HETATM    9  C   UNL     1      -6.726  10.090  63.983  1.00  0.00    -0.128 C  
HETATM   10  O   UNL     1      -6.867   8.121  66.504  1.00  0.00    -0.065 OA 
HETATM   11  N   UNL     1      -7.011  10.341  67.182  1.00  0.00    -0.086 N  
HETATM   12  C   UNL     1      -6.918   8.894  63.064  1.00  0.00    -0.089 C  
HETATM   13  C   UNL     1      -8.430   8.754  63.000  1.00  0.00    -0.143 C  
HETATM   14  C   UNL     1      -8.910   9.063  64.420  1.00  0.00    -0.107 C  
BRANCH  11  15
HETATM   15  C   UNL     1      -6.281  10.201  68.439  1.00  0.00    -0.048 C  
BRANCH  15  16
HETATM   16  C   UNL     1      -7.145   9.623  69.546  1.00  0.00    -0.072 A  
HETATM   17  C   UNL     1      -6.575   8.984  70.646  1.00  0.00    -0.060 A  
HETATM   18  C   UNL     1      -7.363   8.227  71.525  1.00  0.00    -0.092 A  
HETATM   19  C   UNL     1      -8.762   8.132  71.383  1.00  0.00    -0.179 A  
HETATM   20  C   UNL     1      -9.332   8.962  70.407  1.00  0.00    -0.223 A  
HETATM   21  C   UNL     1      -8.543   9.649  69.468  1.00  0.00    -0.177 A  
BRANCH  19  22
HETATM   22  C   UNL     1      -9.549   7.146  72.200  1.00  0.00    -0.160 A  
HETATM   23  C   UNL     1      -9.672   7.369  73.596  1.00  0.00    -0.349 A  
HETATM   24  C   UNL     1     -10.280   6.453  74.464  1.00  0.00    -0.310 A  
HETATM   25  C   UNL     1     -10.832   5.289  73.962  1.00  0.00    -0.200 A  
HETATM   26  C   UNL     1     -10.772   5.047  72.593  1.00  0.00    -0.279 A  
HETATM   27  C   UNL     1     -10.126   5.943  71.701  1.00  0.00    -0.233 A  
BRANCH  27  28
HETATM   28  C   UNL     1     -10.080   5.503  70.308  1.00  0.00    -0.237 A  
HETATM   29  N   UNL     1      -9.094   4.731  69.803  1.00  0.00    -0.102 NA 
HETATM   30  N   UNL     1      -9.488   4.646  68.525  1.00  0.00    -0.138 NA 
HETATM   31  H   UNL     1      -8.960   4.115  67.832  1.00  0.00     0.000 HD 
HETATM   32  N   UNL     1     -10.611   5.296  68.212  1.00  0.00    -0.072 NA 
HETATM   33  N   UNL     1     -10.983   5.881  69.342  1.00  0.00    -0.362 NA 
ENDBRANCH  27  28
ENDBRANCH  19  22
ENDBRANCH  15  16
ENDBRANCH  11  15
ENDBRANCH   4   5
ENDBRANCH   3   4
ENDBRANCH   2   3
TORSDOF 7
ENDMDL
MODEL      239
REMARK 921   NORMALIZED FREE ENERGY PREDICTED BY IDOCK:   -3.21 KCAL/MOL
REMARK 922        TOTAL FREE ENERGY PREDICTED BY IDOCK:   -6.48 KCAL/MOL
REMARK 923 INTER-LIGAND FREE ENERGY PREDICTED BY IDOCK:   -5.09 KCAL/MOL
REMARK 924 INTRA-LIGAND FREE ENERGY PREDICTED BY IDOCK:   -1.38 KCAL/MOL
REMARK 927      BINDING AFFINITY PREDICTED BY RF-SCORE:    0.00 PKD
ROOT
HETATM    1  C   UNL     1     -11.786  12.823  68.220  1.00  0.00    -0.388 C  
HETATM    2  C   UNL     1     -11.688  12.166  69.582  1.00  0.00    -0.396 C  
ENDROOT
BRANCH   2   3
HETATM    3  C   UNL     1     -11.658  10.645  69.463  1.00  0.00    -0.360 C  
BRANCH   3   4
HETATM    4  C   UNL     1     -10.289  10.074  69.816  1.00  0.00    -0.290 C  
BRANCH   4   5
HETATM    5  C   UNL     1      -9.275  10.474  68.782  1.00  0.00    -0.177 C  
HETATM    6  N   UNL     1      -8.348  11.328  69.097  1.00  0.00    -0.002 NA 
HETATM    7  C   UNL     1      -7.500  11.428  67.884  1.00  0.00    -0.095 C  
HETATM    8  C   UNL     1      -8.321  10.705  66.830  1.00  0.00    -0.132 C  
HETATM    9  C   UNL     1      -6.179  10.690  68.127  1.00  0.00    -0.057 C  
HETATM   10  O   UNL     1      -8.168  10.747  65.618  1.00  0.00    -0.162 OA 
HETATM   11  N   UNL     1      -9.265   9.991  67.525  1.00  0.00    -0.137 N  
HETATM   12  C   UNL     1      -5.171  11.493  67.321  1.00  0.00    -0.071 C  
HETATM   13  C   UNL     1      -5.606  12.928  67.569  1.00  0.00    -0.084 C  
HETATM   14  C   UNL     1      -7.135  12.877  67.568  1.00  0.00    -0.153 C  
BRANCH  11  15
HETATM   15  C   UNL     1     -10.143   9.027  66.866  1.00  0.00    -0.267 C  
BRANCH  15  16
HETATM   16  C   UNL     1     -10.003   7.631  67.446  1.00  0.00    -0.252 A  
HETATM   17  C   UNL     1     -11.096   6.971  68.007  1.00  0.00    -0.112 A  
HETATM   18  C   UNL     1     -10.918   5.808  68.771  1.00  0.00    -0.223 A  
HETATM   19  C   UNL     1      -9.652   5.216  68.949  1.00  0.00    -0.201 A  
HETATM   20  C   UNL     1      -8.609   5.770  68.193  1.00  0.00    -0.108 A  
HETATM   21  C   UNL     1      -8.762   6.985  67.501  1.00  0.00    -0.120 A  
BRANCH  19  22
HETATM   22  C   UNL     1      -9.460   4.106  69.944  1.00  0.00    -0.265 A  
HETATM   23  C   UNL     1      -9.652   4.391  71.321  1.00  0.00    -0.242 A  
HETATM   24  C   UNL     1      -9.384   3.463  72.336  1.00  0.00    -0.165 A  
HETATM   25  C   UNL     1      -8.954   2.190  72.011  1.00  0.00    -0.117 A  
HETATM   26  C   UNL     1      -8.792   1.852  70.672  1.00  0.00    -0.124 A  
HETATM   27  C   UNL     1      -9.019   2.788  69.629  1.00  0.00    -0.169 A  
BRANCH  27  28
HETATM   28  C   UNL     1      -8.726   2.300  68.283  1.00  0.00    -0.094 A  
HETATM   29  N   UNL     1      -9.677   2.050  67.358  1.00  0.00     0.178 NA 
HETATM   30  N   UNL     1      -8.917   1.608  66.347  1.00  0.00    -0.194 NA 
HETATM   31  H   UNL     1      -9.319   1.322  65.454  1.00  0.00     0.000 HD 
HETATM   32  N   UNL     1      -7.603   1.563  66.577  1.00  0.00    -0.060 NA 
HETATM   33  N   UNL     1      -7.470   1.972  67.830  1.00  0.00    -0.054 NA 
ENDBRANCH  27  28
ENDBRANCH  19  22
ENDBRANCH  15  16
ENDBRANCH  11  15
ENDBRANCH   4   5
ENDBRANCH   3   4
ENDBRANCH   2   3
TORSDOF 7
ENDMDL
MODEL      240
REMARK 921   NORMALIZED FREE ENERGY PREDICTED BY IDOCK:   -3.19 KCAL/MOL
REMARK 922        TOTAL FREE ENERGY PREDICTED BY IDOCK:   -6.45 KCAL/MOL
REMARK 923 INTER-LIGAND FREE ENERGY PREDICTED BY IDOCK:   -5.89 KCAL/MOL
REMARK 924 INTRA-LIGAND FREE ENERGY PREDICTED BY IDOCK:   -0.56 KCAL/MOL
REMARK 927      BINDING AFFINITY PREDICTED BY RF-SCORE:    0.00 PKD
ROOT
HETATM    1  C   UNL     1     -12.025  12.314  66.446  1.00  0.00    -0.286 C  
HETATM    2  C   UNL     1     -11.946  12.887  65.045  1.00  0.00    -0.445 C  
ENDROOT
BRANCH   2   3
HETATM    3  C   UNL     1     -11.823  14.407  65.074  1.00  0.00    -0.400 C  
BRANCH   3   4
HETATM    4  C   UNL     1     -10.444  14.857  65.543  1.00  0.00    -0.380 C  
BRANCH   4   5
HETATM    5  C   UNL     1     -10.389  14.891  67.044  1.00  0.00    -0.264 C  
HETATM    6  N   UNL     1     -11.431  15.291  67.710  1.00  0.00    -0.329 NA 
HETATM    7  C   UNL     1     -11.053  15.127  69.135  1.00  0.00    -0.258 C  
HETATM    8  C   UNL     1      -9.560  14.852  69.065  1.00  0.00    -0.204 C  
HETATM    9  C   UNL     1     -11.790  13.916  69.717  1.00  0.00    -0.390 C  
HETATM   10  O   UNL     1      -8.757  14.908  69.985  1.00  0.00     0.190 OA 
HETATM   11  N   UNL     1      -9.308  14.524  67.757  1.00  0.00    -0.195 N  
HETATM   12  C   UNL     1     -12.025  14.308  71.167  1.00  0.00    -0.354 C  
HETATM   13  C   UNL     1     -12.390  15.780  71.065  1.00  0.00    -0.465 C  
HETATM   14  C   UNL     1     -11.472  16.334  69.973  1.00  0.00    -0.218 C  
BRANCH  11  15
HETATM   15  C   UNL     1      -8.004  14.025  67.325  1.00  0.00    -0.137 C  
BRANCH  15  16
HETATM   16  C   UNL     1      -7.987  12.515  67.173  1.00  0.00    -0.140 A  
HETATM   17  C   UNL     1      -9.141  11.812  66.832  1.00  0.00    -0.192 A  
HETATM   18  C   UNL     1      -9.192  10.415  66.948  1.00  0.00    -0.170 A  
HETATM   19  C   UNL     1      -8.072   9.655  67.342  1.00  0.00    -0.110 A  
HETATM   20  C   UNL     1      -6.868  10.363  67.460  1.00  0.00    -0.075 A  
HETATM   21  C   UNL     1      -6.831  11.769  67.436  1.00  0.00    -0.122 A  
BRANCH  19  22
HETATM   22  C   UNL     1      -8.215   8.195  67.667  1.00  0.00    -0.127 A  
HETATM   23  C   UNL     1      -8.551   7.827  68.996  1.00  0.00    -0.135 A  
HETATM   24  C   UNL     1      -8.592   6.497  69.432  1.00  0.00    -0.134 A  
HETATM   25  C   UNL     1      -8.339   5.471  68.541  1.00  0.00    -0.101 A  
HETATM   26  C   UNL     1      -8.046   5.781  67.217  1.00  0.00    -0.102 A  
HETATM   27  C   UNL     1      -7.960   7.123  66.763  1.00  0.00    -0.108 A  
BRANCH  27  28
HETATM   28  C   UNL     1      -7.563   7.281  65.365  1.00  0.00    -0.100 A  
HETATM   29  N   UNL     1      -8.395   7.058  64.325  1.00  0.00     0.063 NA 
HETATM   30  N   UNL     1      -7.566   7.300  63.300  1.00  0.00    -0.107 NA 
HETATM   31  H   UNL     1      -7.872   7.228  62.330  1.00  0.00     0.000 HD 
HETATM   32  N   UNL     1      -6.316   7.641  63.624  1.00  0.00    -0.054 NA 
HETATM   33  N   UNL     1      -6.292   7.598  64.949  1.00  0.00    -0.038 NA 
ENDBRANCH  27  28
ENDBRANCH  19  22
ENDBRANCH  15  16
ENDBRANCH  11  15
ENDBRANCH   4   5
ENDBRANCH   3   4
ENDBRANCH   2   3
TORSDOF 7
ENDMDL
MODEL      241
REMARK 921   NORMALIZED FREE ENERGY PREDICTED BY IDOCK:   -3.12 KCAL/MOL
REMARK 922        TOTAL FREE ENERGY PREDICTED BY IDOCK:   -6.35 KCAL/MOL
REMARK 923 INTER-LIGAND FREE ENERGY PREDICTED BY IDOCK:   -6.51 KCAL/MOL
REMARK 924 INTRA-LIGAND FREE ENERGY PREDICTED BY IDOCK:    0.16 KCAL/MOL
REMARK 927      BINDING AFFINITY PREDICTED BY RF-SCORE:    0.00 PKD
ROOT
HETATM    1  C   UNL     1     -11.417   7.112  70.789  1.00  0.00    -0.342 C  
HETATM    2  C   UNL     1     -10.702   5.785  70.630  1.00  0.00    -0.351 C  
ENDROOT
BRANCH   2   3
HETATM    3  C   UNL     1      -9.329   5.969  69.989  1.00  0.00    -0.170 C  
BRANCH   3   4
HETATM    4  C   UNL     1      -9.000   7.440  69.762  1.00  0.00    -0.141 C  
BRANCH   4   5
HETATM    5  C   UNL     1      -8.534   7.659  68.351  1.00  0.00    -0.125 C  
HETATM    6  N   UNL     1      -7.280   7.480  68.061  1.00  0.00    -0.088 NA 
HETATM    7  C   UNL     1      -7.196   7.706  66.597  1.00  0.00    -0.087 C  
HETATM    8  C   UNL     1      -8.553   8.303  66.263  1.00  0.00    -0.138 C  
HETATM    9  C   UNL     1      -7.018   6.360  65.886  1.00  0.00    -0.061 C  
HETATM   10  O   UNL     1      -8.867   8.893  65.240  1.00  0.00    -0.191 OA 
HETATM   11  N   UNL     1      -9.349   8.033  67.347  1.00  0.00    -0.142 N  
HETATM   12  C   UNL     1      -6.156   6.707  64.682  1.00  0.00    -0.035 C  
HETATM   13  C   UNL     1      -5.163   7.706  65.252  1.00  0.00    -0.029 C  
HETATM   14  C   UNL     1      -5.982   8.557  66.226  1.00  0.00    -0.045 C  
BRANCH  11  15
HETATM   15  C   UNL     1     -10.785   8.302  67.334  1.00  0.00    -0.166 C  
BRANCH  15  16
HETATM   16  C   UNL     1     -11.109   9.725  67.752  1.00  0.00    -0.142 A  
HETATM   17  C   UNL     1     -11.359  10.715  66.803  1.00  0.00     0.181 A  
HETATM   18  C   UNL     1     -11.396  12.069  67.170  1.00  0.00    -0.396 A  
HETATM   19  C   UNL     1     -11.255  12.486  68.509  1.00  0.00    -0.322 A  
HETATM   20  C   UNL     1     -11.231  11.461  69.466  1.00  0.00    -0.322 A  
HETATM   21  C   UNL     1     -11.101  10.109  69.098  1.00  0.00    -0.257 A  
BRANCH  19  22
HETATM   22  C   UNL     1     -11.081  13.941  68.843  1.00  0.00    -0.296 A  
HETATM   23  C   UNL     1     -10.864  14.303  70.197  1.00  0.00     0.185 A  
HETATM   24  C   UNL     1     -10.808  15.634  70.631  1.00  0.00    -0.319 A  
HETATM   25  C   UNL     1     -10.922  16.663  69.715  1.00  0.00    -0.208 A  
HETATM   26  C   UNL     1     -11.094  16.356  68.370  1.00  0.00    -0.351 A  
HETATM   27  C   UNL     1     -11.193  15.015  67.914  1.00  0.00    -0.330 A  
BRANCH  27  28
HETATM   28  C   UNL     1     -11.454  14.865  66.483  1.00  0.00    -0.286 A  
HETATM   29  N   UNL     1     -12.502  14.175  65.985  1.00  0.00    -0.464 NA 
HETATM   30  N   UNL     1     -12.274  14.308  64.672  1.00  0.00    -0.494 NA 
HETATM   31  H   UNL     1     -12.894  13.900  63.972  1.00  0.00     0.000 HD 
HETATM   32  N   UNL     1     -11.188  15.005  64.333  1.00  0.00    -0.231 NA 
HETATM   33  N   UNL     1     -10.632  15.340  65.488  1.00  0.00    -0.344 NA 
ENDBRANCH  27  28
ENDBRANCH  19  22
ENDBRANCH  15  16
ENDBRANCH  11  15
ENDBRANCH   4   5
ENDBRANCH   3   4
ENDBRANCH   2   3
TORSDOF 7
ENDMDL
MODEL      242
REMARK 921   NORMALIZED FREE ENERGY PREDICTED BY IDOCK:   -3.07 KCAL/MOL
REMARK 922        TOTAL FREE ENERGY PREDICTED BY IDOCK:   -6.27 KCAL/MOL
REMARK 923 INTER-LIGAND FREE ENERGY PREDICTED BY IDOCK:   -4.83 KCAL/MOL
REMARK 924 INTRA-LIGAND FREE ENERGY PREDICTED BY IDOCK:   -1.45 KCAL/MOL
REMARK 927      BINDING AFFINITY PREDICTED BY RF-SCORE:    0.00 PKD
ROOT
HETATM    1  C   UNL     1     -11.068   4.314  65.097  1.00  0.00     0.166 C  
HETATM    2  C   UNL     1     -10.715   4.769  66.499  1.00  0.00     0.001 C  
ENDROOT
BRANCH   2   3
HETATM    3  C   UNL     1     -10.653   6.291  66.589  1.00  0.00    -0.268 C  
BRANCH   3   4
HETATM    4  C   UNL     1     -10.607   6.773  68.035  1.00  0.00    -0.283 C  
BRANCH   4   5
HETATM    5  C   UNL     1      -9.183   6.942  68.483  1.00  0.00    -0.129 C  
HETATM    6  N   UNL     1      -8.711   6.162  69.409  1.00  0.00    -0.122 NA 
HETATM    7  C   UNL     1      -7.286   6.555  69.542  1.00  0.00    -0.091 C  
HETATM    8  C   UNL     1      -7.208   7.841  68.737  1.00  0.00    -0.081 C  
HETATM    9  C   UNL     1      -6.402   5.476  68.906  1.00  0.00    -0.038 C  
HETATM   10  O   UNL     1      -6.314   8.674  68.764  1.00  0.00    -0.047 OA 
HETATM   11  N   UNL     1      -8.348   7.867  67.974  1.00  0.00    -0.123 N  
HETATM   12  C   UNL     1      -5.146   5.500  69.762  1.00  0.00    -0.004 C  
HETATM   13  C   UNL     1      -5.696   5.680  71.167  1.00  0.00    -0.017 C  
HETATM   14  C   UNL     1      -6.863   6.655  71.006  1.00  0.00    -0.062 C  
BRANCH  11  15
HETATM   15  C   UNL     1      -8.557   8.872  66.934  1.00  0.00    -0.115 C  
BRANCH  15  16
HETATM   16  C   UNL     1      -9.324  10.078  67.445  1.00  0.00    -0.167 A  
HETATM   17  C   UNL     1      -8.848  10.836  68.514  1.00  0.00    -0.149 A  
HETATM   18  C   UNL     1      -9.671  11.776  69.150  1.00  0.00     0.240 A  
HETATM   19  C   UNL     1     -10.979  12.051  68.704  1.00  0.00    -0.281 A  
HETATM   20  C   UNL     1     -11.350  11.441  67.497  1.00  0.00    -0.362 A  
HETATM   21  C   UNL     1     -10.568  10.432  66.907  1.00  0.00    -0.293 A  
BRANCH  19  22
HETATM   22  C   UNL     1     -11.908  12.896  69.530  1.00  0.00    -0.383 A  
HETATM   23  C   UNL     1     -11.890  14.302  69.343  1.00  0.00    -0.372 A  
HETATM   24  C   UNL     1     -12.627  15.187  70.141  1.00  0.00    -0.319 A  
HETATM   25  C   UNL     1     -13.449  14.695  71.137  1.00  0.00    -0.425 A  
HETATM   26  C   UNL     1     -13.531  13.320  71.331  1.00  0.00    -0.149 A  
HETATM   27  C   UNL     1     -12.763  12.408  70.560  1.00  0.00    -0.051 A  
BRANCH  27  28
HETATM   28  C   UNL     1     -12.902  11.004  70.942  1.00  0.00    -0.301 A  
HETATM   29  N   UNL     1     -14.014  10.275  70.710  1.00  0.00     0.559 NA 
HETATM   30  N   UNL     1     -13.655   9.108  71.262  1.00  0.00    -0.543 NA 
HETATM   31  H   UNL     1     -14.276   8.299  71.265  1.00  0.00     0.000 HD 
HETATM   32  N   UNL     1     -12.437   9.067  71.807  1.00  0.00    -0.344 NA 
HETATM   33  N   UNL     1     -11.956  10.290  71.640  1.00  0.00    -0.270 NA 
ENDBRANCH  27  28
ENDBRANCH  19  22
ENDBRANCH  15  16
ENDBRANCH  11  15
ENDBRANCH   4   5
ENDBRANCH   3   4
ENDBRANCH   2   3
TORSDOF 7
ENDMDL
MODEL      243
REMARK 921   NORMALIZED FREE ENERGY PREDICTED BY IDOCK:   -2.99 KCAL/MOL
REMARK 922        TOTAL FREE ENERGY PREDICTED BY IDOCK:   -6.17 KCAL/MOL
REMARK 923 INTER-LIGAND FREE ENERGY PREDICTED BY IDOCK:   -5.16 KCAL/MOL
REMARK 924 INTRA-LIGAND FREE ENERGY PREDICTED BY IDOCK:   -1.00 KCAL/MOL
REMARK 927      BINDING AFFINITY PREDICTED BY RF-SCORE:    0.00 PKD
ROOT
HETATM    1  C   UNL     1     -10.502   6.595  74.285  1.00  0.00    -0.161 C  
HETATM    2  C   UNL     1      -9.470   7.579  73.772  1.00  0.00    -0.330 C  
ENDROOT
BRANCH   2   3
HETATM    3  C   UNL     1      -8.885   7.124  72.439  1.00  0.00    -0.144 C  
BRANCH   3   4
HETATM    4  C   UNL     1      -9.816   7.436  71.273  1.00  0.00    -0.182 C  
BRANCH   4   5
HETATM    5  C   UNL     1      -9.062   7.382  69.974  1.00  0.00    -0.148 C  
HETATM    6  N   UNL     1      -7.810   7.034  69.979  1.00  0.00    -0.111 NA 
HETATM    7  C   UNL     1      -7.417   7.018  68.549  1.00  0.00    -0.102 C  
HETATM    8  C   UNL     1      -8.594   7.690  67.862  1.00  0.00    -0.122 C  
HETATM    9  C   UNL     1      -7.284   5.566  68.076  1.00  0.00    -0.072 C  
HETATM   10  O   UNL     1      -8.625   8.141  66.727  1.00  0.00    -0.125 OA 
HETATM   11  N   UNL     1      -9.613   7.676  68.781  1.00  0.00    -0.152 N  
HETATM   12  C   UNL     1      -6.169   5.631  67.045  1.00  0.00    -0.034 C  
HETATM   13  C   UNL     1      -5.182   6.600  67.673  1.00  0.00    -0.008 C  
HETATM   14  C   UNL     1      -6.054   7.672  68.331  1.00  0.00    -0.036 C  
BRANCH  11  15
HETATM   15  C   UNL     1     -10.972   8.084  68.432  1.00  0.00     0.220 C  
BRANCH  15  16
HETATM   16  C   UNL     1     -11.132   9.593  68.408  1.00  0.00    -0.090 A  
HETATM   17  C   UNL     1     -10.846  10.330  67.260  1.00  0.00    -0.312 A  
HETATM   18  C   UNL     1     -10.740  11.728  67.312  1.00  0.00    -0.279 A  
HETATM   19  C   UNL     1     -10.982  12.454  68.494  1.00  0.00    -0.277 A  
HETATM   20  C   UNL     1     -11.484  11.711  69.572  1.00  0.00    -0.371 A  
HETATM   21  C   UNL     1     -11.505  10.305  69.555  1.00  0.00    -0.273 A  
BRANCH  19  22
HETATM   22  C   UNL     1     -10.649  13.918  68.576  1.00  0.00    -0.260 A  
HETATM   23  C   UNL     1     -11.713  14.849  68.691  1.00  0.00    -0.358 A  
HETATM   24  C   UNL     1     -11.521  16.236  68.654  1.00  0.00    -0.288 A  
HETATM   25  C   UNL     1     -10.243  16.752  68.544  1.00  0.00    -0.298 A  
HETATM   26  C   UNL     1      -9.164  15.878  68.471  1.00  0.00    -0.200 A  
HETATM   27  C   UNL     1      -9.339  14.469  68.466  1.00  0.00    -0.203 A  
BRANCH  27  28
HETATM   28  C   UNL     1      -8.112  13.692  68.301  1.00  0.00    -0.155 A  
HETATM   29  N   UNL     1      -7.853  12.555  68.982  1.00  0.00     0.141 NA 
HETATM   30  N   UNL     1      -6.633  12.266  68.509  1.00  0.00    -0.066 NA 
HETATM   31  H   UNL     1      -6.117  11.441  68.815  1.00  0.00     0.000 HD 
HETATM   32  N   UNL     1      -6.133  13.121  67.615  1.00  0.00    -0.187 NA 
HETATM   33  N   UNL     1      -7.059  14.062  67.498  1.00  0.00    -0.182 NA 
ENDBRANCH  27  28
ENDBRANCH  19  22
ENDBRANCH  15  16
ENDBRANCH  11  15
ENDBRANCH   4   5
ENDBRANCH   3   4
ENDBRANCH   2   3
TORSDOF 7
ENDMDL
MODEL      244
REMARK 921   NORMALIZED FREE ENERGY PREDICTED BY IDOCK:   -2.96 KCAL/MOL
REMARK 922        TOTAL FREE ENERGY PREDICTED BY IDOCK:   -6.12 KCAL/MOL
REMARK 923 INTER-LIGAND FREE ENERGY PREDICTED BY IDOCK:   -4.77 KCAL/MOL
REMARK 924 INTRA-LIGAND FREE ENERGY PREDICTED BY IDOCK:   -1.36 KCAL/MOL
REMARK 927      BINDING AFFINITY PREDICTED BY RF-SCORE:    0.00 PKD
ROOT
HETATM    1  C   UNL     1      -6.319  10.931  65.267  1.00  0.00     0.147 C  
HETATM    2  C   UNL     1      -7.399  10.359  66.163  1.00  0.00    -0.131 C  
ENDROOT
BRANCH   2   3
HETATM    3  C   UNL     1      -6.815   9.852  67.479  1.00  0.00    -0.081 C  
BRANCH   3   4
HETATM    4  C   UNL     1      -7.905   9.492  68.483  1.00  0.00    -0.085 C  
BRANCH   4   5
HETATM    5  C   UNL     1      -9.107  10.373  68.284  1.00  0.00    -0.145 C  
HETATM    6  N   UNL     1      -9.024  11.636  68.576  1.00  0.00    -0.164 NA 
HETATM    7  C   UNL     1     -10.343  12.198  68.193  1.00  0.00    -0.207 C  
HETATM    8  C   UNL     1     -11.183  10.958  67.934  1.00  0.00    -0.321 C  
HETATM    9  C   UNL     1     -10.191  13.016  66.906  1.00  0.00    -0.244 C  
HETATM   10  O   UNL     1     -12.400  10.898  67.848  1.00  0.00    -0.052 OA 
HETATM   11  N   UNL     1     -10.287   9.927  67.812  1.00  0.00    -0.205 N  
HETATM   12  C   UNL     1     -11.216  14.127  67.069  1.00  0.00    -0.328 C  
HETATM   13  C   UNL     1     -11.088  14.493  68.539  1.00  0.00    -0.271 C  
HETATM   14  C   UNL     1     -10.878  13.157  69.256  1.00  0.00    -0.055 C  
BRANCH  11  15
HETATM   15  C   UNL     1     -10.701   8.592  67.388  1.00  0.00    -0.145 C  
BRANCH  15  16
HETATM   16  C   UNL     1     -10.719   7.601  68.539  1.00  0.00    -0.094 A  
HETATM   17  C   UNL     1     -11.131   7.986  69.814  1.00  0.00    -0.067 A  
HETATM   18  C   UNL     1     -10.902   7.158  70.923  1.00  0.00    -0.266 A  
HETATM   19  C   UNL     1     -10.316   5.883  70.797  1.00  0.00    -0.292 A  
HETATM   20  C   UNL     1     -10.118   5.431  69.485  1.00  0.00    -0.310 A  
HETATM   21  C   UNL     1     -10.259   6.289  68.378  1.00  0.00    -0.200 A  
BRANCH  19  22
HETATM   22  C   UNL     1      -9.884   5.116  72.016  1.00  0.00    -0.221 A  
HETATM   23  C   UNL     1     -10.849   4.330  72.698  1.00  0.00    -0.129 A  
HETATM   24  C   UNL     1     -10.583   3.674  73.906  1.00  0.00    -0.286 A  
HETATM   25  C   UNL     1      -9.319   3.740  74.462  1.00  0.00    -0.125 A  
HETATM   26  C   UNL     1      -8.328   4.464  73.808  1.00  0.00    -0.100 A  
HETATM   27  C   UNL     1      -8.587   5.170  72.603  1.00  0.00    -0.117 A  
BRANCH  27  28
HETATM   28  C   UNL     1      -7.463   5.947  72.086  1.00  0.00    -0.096 A  
HETATM   29  N   UNL     1      -7.100   7.151  72.579  1.00  0.00    -0.068 NA 
HETATM   30  N   UNL     1      -6.075   7.443  71.766  1.00  0.00    -0.036 NA 
HETATM   31  H   UNL     1      -5.543   8.308  71.858  1.00  0.00     0.000 HD 
HETATM   32  N   UNL     1      -5.790   6.534  70.831  1.00  0.00    -0.026 NA 
HETATM   33  N   UNL     1      -6.698   5.583  71.002  1.00  0.00    -0.043 NA 
ENDBRANCH  27  28
ENDBRANCH  19  22
ENDBRANCH  15  16
ENDBRANCH  11  15
ENDBRANCH   4   5
ENDBRANCH   3   4
ENDBRANCH   2   3
TORSDOF 7
ENDMDL
MODEL      245
REMARK 921   NORMALIZED FREE ENERGY PREDICTED BY IDOCK:   -2.91 KCAL/MOL
REMARK 922        TOTAL FREE ENERGY PREDICTED BY IDOCK:   -6.05 KCAL/MOL
REMARK 923 INTER-LIGAND FREE ENERGY PREDICTED BY IDOCK:   -5.18 KCAL/MOL
REMARK 924 INTRA-LIGAND FREE ENERGY PREDICTED BY IDOCK:   -0.87 KCAL/MOL
REMARK 927      BINDING AFFINITY PREDICTED BY RF-SCORE:    0.00 PKD
ROOT
HETATM    1  C   UNL     1     -11.608  14.540  65.833  1.00  0.00    -0.349 C  
HETATM    2  C   UNL     1     -10.336  14.909  66.568  1.00  0.00    -0.295 C  
ENDROOT
BRANCH   2   3
HETATM    3  C   UNL     1     -10.251  14.204  67.918  1.00  0.00    -0.235 C  
BRANCH   3   4
HETATM    4  C   UNL     1      -9.996  15.186  69.057  1.00  0.00    -0.239 C  
BRANCH   4   5
HETATM    5  C   UNL     1      -8.957  16.194  68.653  1.00  0.00    -0.221 C  
HETATM    6  N   UNL     1      -9.297  17.184  67.883  1.00  0.00    -0.245 NA 
HETATM    7  C   UNL     1      -8.066  18.002  67.755  1.00  0.00    -0.237 C  
HETATM    8  C   UNL     1      -6.994  17.105  68.350  1.00  0.00    -0.195 C  
HETATM    9  C   UNL     1      -8.216  19.278  68.590  1.00  0.00    -0.408 C  
HETATM   10  O   UNL     1      -5.784  17.226  68.235  1.00  0.00    -0.132 OA 
HETATM   11  N   UNL     1      -7.672  16.137  69.048  1.00  0.00    -0.212 N  
HETATM   12  C   UNL     1      -7.432  20.313  67.800  1.00  0.00    -0.319 C  
HETATM   13  C   UNL     1      -7.789  19.981  66.360  1.00  0.00    -0.326 C  
HETATM   14  C   UNL     1      -7.835  18.452  66.313  1.00  0.00    -0.273 C  
BRANCH  11  15
HETATM   15  C   UNL     1      -6.980  15.179  69.907  1.00  0.00    -0.140 C  
BRANCH  15  16
HETATM   16  C   UNL     1      -6.620  13.900  69.171  1.00  0.00    -0.111 A  
HETATM   17  C   UNL     1      -6.218  13.925  67.837  1.00  0.00    -0.164 A  
HETATM   18  C   UNL     1      -6.142  12.742  67.087  1.00  0.00     0.101 A  
HETATM   19  C   UNL     1      -6.396  11.478  67.655  1.00  0.00    -0.066 A  
HETATM   20  C   UNL     1      -6.578  11.461  69.046  1.00  0.00    -0.086 A  
HETATM   21  C   UNL     1      -6.746  12.647  69.784  1.00  0.00     0.157 A  
BRANCH  19  22
HETATM   22  C   UNL     1      -6.521  10.259  66.785  1.00  0.00    -0.073 A  
HETATM   23  C   UNL     1      -5.653  10.131  65.670  1.00  0.00    -0.073 A  
HETATM   24  C   UNL     1      -5.765   9.098  64.731  1.00  0.00    -0.063 A  
HETATM   25  C   UNL     1      -6.727   8.120  64.893  1.00  0.00    -0.055 A  
HETATM   26  C   UNL     1      -7.575   8.180  65.994  1.00  0.00    -0.082 A  
HETATM   27  C   UNL     1      -7.505   9.240  66.937  1.00  0.00    -0.091 A  
BRANCH  27  28
HETATM   28  C   UNL     1      -8.518   9.200  67.990  1.00  0.00    -0.121 A  
HETATM   29  N   UNL     1      -8.458   8.367  69.051  1.00  0.00    -0.122 NA 
HETATM   30  N   UNL     1      -9.599   8.692  69.675  1.00  0.00    -0.169 NA 
HETATM   31  H   UNL     1      -9.883   8.245  70.546  1.00  0.00     0.000 HD 
HETATM   32  N   UNL     1     -10.341   9.634  69.088  1.00  0.00    -0.198 NA 
HETATM   33  N   UNL     1      -9.675   9.944  67.985  1.00  0.00    -0.139 NA 
ENDBRANCH  27  28
ENDBRANCH  19  22
ENDBRANCH  15  16
ENDBRANCH  11  15
ENDBRANCH   4   5
ENDBRANCH   3   4
ENDBRANCH   2   3
TORSDOF 7
ENDMDL
MODEL      246
REMARK 921   NORMALIZED FREE ENERGY PREDICTED BY IDOCK:   -2.87 KCAL/MOL
REMARK 922        TOTAL FREE ENERGY PREDICTED BY IDOCK:   -5.99 KCAL/MOL
REMARK 923 INTER-LIGAND FREE ENERGY PREDICTED BY IDOCK:   -5.17 KCAL/MOL
REMARK 924 INTRA-LIGAND FREE ENERGY PREDICTED BY IDOCK:   -0.82 KCAL/MOL
REMARK 927      BINDING AFFINITY PREDICTED BY RF-SCORE:    0.00 PKD
ROOT
HETATM    1  C   UNL     1     -10.035   3.271  73.809  1.00  0.00    -0.168 C  
HETATM    2  C   UNL     1      -9.731   4.438  72.893  1.00  0.00    -0.176 C  
ENDROOT
BRANCH   2   3
HETATM    3  C   UNL     1     -10.989   5.246  72.587  1.00  0.00    -0.316 C  
BRANCH   3   4
HETATM    4  C   UNL     1     -11.135   5.527  71.096  1.00  0.00    -0.125 C  
BRANCH   4   5
HETATM    5  C   UNL     1      -9.906   5.077  70.358  1.00  0.00    -0.230 C  
HETATM    6  N   UNL     1      -9.913   3.929  69.750  1.00  0.00    -0.038 NA 
HETATM    7  C   UNL     1      -8.591   3.849  69.081  1.00  0.00    -0.079 C  
HETATM    8  C   UNL     1      -7.826   5.012  69.690  1.00  0.00    -0.067 C  
HETATM    9  C   UNL     1      -8.772   4.063  67.574  1.00  0.00    -0.116 C  
HETATM   10  O   UNL     1      -6.619   5.200  69.654  1.00  0.00    -0.039 OA 
HETATM   11  N   UNL     1      -8.776   5.806  70.283  1.00  0.00    -0.135 N  
HETATM   12  C   UNL     1      -7.689   3.191  66.961  1.00  0.00    -0.075 C  
HETATM   13  C   UNL     1      -7.721   1.946  67.832  1.00  0.00    -0.058 C  
HETATM   14  C   UNL     1      -7.956   2.469  69.250  1.00  0.00    -0.056 C  
BRANCH  11  15
HETATM   15  C   UNL     1      -8.448   7.119  70.833  1.00  0.00    -0.133 C  
BRANCH  15  16
HETATM   16  C   UNL     1      -9.142   8.245  70.088  1.00  0.00    -0.147 A  
HETATM   17  C   UNL     1      -8.795   8.562  68.775  1.00  0.00    -0.139 A  
HETATM   18  C   UNL     1      -9.239   9.752  68.182  1.00  0.00    -0.132 A  
HETATM   19  C   UNL     1     -10.105  10.643  68.848  1.00  0.00    -0.215 A  
HETATM   20  C   UNL     1     -10.615  10.193  70.074  1.00  0.00    -0.338 A  
HETATM   21  C   UNL     1     -10.104   9.048  70.712  1.00  0.00    -0.303 A  
BRANCH  19  22
HETATM   22  C   UNL     1     -10.386  12.005  68.279  1.00  0.00    -0.211 A  
HETATM   23  C   UNL     1     -11.725  12.336  67.945  1.00  0.00    -0.410 A  
HETATM   24  C   UNL     1     -12.078  13.529  67.301  1.00  0.00    -0.367 A  
HETATM   25  C   UNL     1     -11.106  14.465  67.002  1.00  0.00    -0.317 A  
HETATM   26  C   UNL     1      -9.785  14.203  67.348  1.00  0.00    -0.232 A  
HETATM   27  C   UNL     1      -9.399  12.984  67.965  1.00  0.00    -0.213 A  
BRANCH  27  28
HETATM   28  C   UNL     1      -7.963  12.830  68.188  1.00  0.00    -0.156 A  
HETATM   29  N   UNL     1      -7.317  13.337  69.260  1.00  0.00     0.119 NA 
HETATM   30  N   UNL     1      -6.061  12.961  68.983  1.00  0.00    -0.083 NA 
HETATM   31  H   UNL     1      -5.283  13.181  69.604  1.00  0.00     0.000 HD 
HETATM   32  N   UNL     1      -5.889  12.283  67.846  1.00  0.00    -0.068 NA 
HETATM   33  N   UNL     1      -7.099  12.222  67.308  1.00  0.00    -0.148 NA 
ENDBRANCH  27  28
ENDBRANCH  19  22
ENDBRANCH  15  16
ENDBRANCH  11  15
ENDBRANCH   4   5
ENDBRANCH   3   4
ENDBRANCH   2   3
TORSDOF 7
ENDMDL
MODEL      247
REMARK 921   NORMALIZED FREE ENERGY PREDICTED BY IDOCK:   -2.86 KCAL/MOL
REMARK 922        TOTAL FREE ENERGY PREDICTED BY IDOCK:   -5.98 KCAL/MOL
REMARK 923 INTER-LIGAND FREE ENERGY PREDICTED BY IDOCK:   -7.01 KCAL/MOL
REMARK 924 INTRA-LIGAND FREE ENERGY PREDICTED BY IDOCK:    1.03 KCAL/MOL
REMARK 927      BINDING AFFINITY PREDICTED BY RF-SCORE:    0.00 PKD
ROOT
HETATM    1  C   UNL     1     -11.047   3.985  73.546  1.00  0.00    -0.350 C  
HETATM    2  C   UNL     1      -9.940   4.864  73.000  1.00  0.00    -0.182 C  
ENDROOT
BRANCH   2   3
HETATM    3  C   UNL     1      -9.971   6.252  73.634  1.00  0.00    -0.218 C  
BRANCH   3   4
HETATM    4  C   UNL     1      -9.955   7.356  72.583  1.00  0.00    -0.241 C  
BRANCH   4   5
HETATM    5  C   UNL     1      -8.888   7.087  71.559  1.00  0.00    -0.128 C  
HETATM    6  N   UNL     1      -8.443   5.875  71.409  1.00  0.00    -0.127 NA 
HETATM    7  C   UNL     1      -7.476   5.966  70.288  1.00  0.00    -0.089 C  
HETATM    8  C   UNL     1      -7.306   7.464  70.101  1.00  0.00    -0.078 C  
HETATM    9  C   UNL     1      -8.095   5.341  69.033  1.00  0.00    -0.086 C  
HETATM   10  O   UNL     1      -6.421   8.034  69.479  1.00  0.00    -0.034 OA 
HETATM   11  N   UNL     1      -8.356   8.040  70.771  1.00  0.00    -0.112 N  
HETATM   12  C   UNL     1      -6.900   4.741  68.310  1.00  0.00    -0.055 C  
HETATM   13  C   UNL     1      -6.073   4.160  69.445  1.00  0.00    -0.027 C  
HETATM   14  C   UNL     1      -6.199   5.180  70.579  1.00  0.00    -0.022 C  
BRANCH  11  15
HETATM   15  C   UNL     1      -8.637   9.470  70.681  1.00  0.00    -0.124 C  
BRANCH  15  16
HETATM   16  C   UNL     1      -9.277   9.850  69.357  1.00  0.00    -0.225 A  
HETATM   17  C   UNL     1      -8.499  10.175  68.248  1.00  0.00    -0.115 A  
HETATM   18  C   UNL     1      -9.074  10.773  67.117  1.00  0.00    -0.153 A  
HETATM   19  C   UNL     1     -10.460  11.009  67.019  1.00  0.00    -0.284 A  
HETATM   20  C   UNL     1     -11.244  10.471  68.049  1.00  0.00    -0.361 A  
HETATM   21  C   UNL     1     -10.667   9.953  69.224  1.00  0.00    -0.247 A  
BRANCH  19  22
HETATM   22  C   UNL     1     -11.017  11.844  65.900  1.00  0.00    -0.354 A  
HETATM   23  C   UNL     1     -11.077  11.280  64.599  1.00  0.00    -0.223 A  
HETATM   24  C   UNL     1     -11.465  12.009  63.468  1.00  0.00    -0.536 A  
HETATM   25  C   UNL     1     -11.854  13.329  63.600  1.00  0.00    -0.515 A  
HETATM   26  C   UNL     1     -11.851  13.914  64.862  1.00  0.00    -0.401 A  
HETATM   27  C   UNL     1     -11.423  13.205  66.015  1.00  0.00    -0.370 A  
BRANCH  27  28
HETATM   28  C   UNL     1     -11.403  13.986  67.250  1.00  0.00    -0.330 A  
HETATM   29  N   UNL     1     -11.068  13.470  68.452  1.00  0.00    -0.259 NA 
HETATM   30  N   UNL     1     -11.236  14.548  69.230  1.00  0.00    -0.269 NA 
HETATM   31  H   UNL     1     -11.061  14.521  70.235  1.00  0.00     0.000 HD 
HETATM   32  N   UNL     1     -11.643  15.659  68.613  1.00  0.00    -0.373 NA 
HETATM   33  N   UNL     1     -11.788  15.302  67.345  1.00  0.00    -0.120 NA 
ENDBRANCH  27  28
ENDBRANCH  19  22
ENDBRANCH  15  16
ENDBRANCH  11  15
ENDBRANCH   4   5
ENDBRANCH   3   4
ENDBRANCH   2   3
TORSDOF 7
ENDMDL
MODEL      248
REMARK 921   NORMALIZED FREE ENERGY PREDICTED BY IDOCK:   -2.82 KCAL/MOL
REMARK 922        TOTAL FREE ENERGY PREDICTED BY IDOCK:   -5.93 KCAL/MOL
REMARK 923 INTER-LIGAND FREE ENERGY PREDICTED BY IDOCK:   -4.98 KCAL/MOL
REMARK 924 INTRA-LIGAND FREE ENERGY PREDICTED BY IDOCK:   -0.95 KCAL/MOL
REMARK 927      BINDING AFFINITY PREDICTED BY RF-SCORE:    0.00 PKD
ROOT
HETATM    1  C   UNL     1     -10.670   4.204  64.838  1.00  0.00    -0.139 C  
HETATM    2  C   UNL     1     -10.620   4.995  66.130  1.00  0.00    -0.321 C  
ENDROOT
BRANCH   2   3
HETATM    3  C   UNL     1      -9.705   6.209  66.002  1.00  0.00     0.037 C  
BRANCH   3   4
HETATM    4  C   UNL     1     -10.109   7.327  66.956  1.00  0.00    -0.316 C  
BRANCH   4   5
HETATM    5  C   UNL     1      -9.376   7.188  68.262  1.00  0.00    -0.130 C  
HETATM    6  N   UNL     1      -9.902   6.475  69.212  1.00  0.00    -0.147 NA 
HETATM    7  C   UNL     1      -8.894   6.497  70.300  1.00  0.00    -0.151 C  
HETATM    8  C   UNL     1      -7.917   7.567  69.842  1.00  0.00    -0.123 C  
HETATM    9  C   UNL     1      -8.195   5.135  70.370  1.00  0.00    -0.098 C  
HETATM   10  O   UNL     1      -7.068   8.128  70.519  1.00  0.00    -0.040 OA 
HETATM   11  N   UNL     1      -8.186   7.765  68.512  1.00  0.00    -0.127 N  
HETATM   12  C   UNL     1      -7.891   4.968  71.851  1.00  0.00    -0.109 C  
HETATM   13  C   UNL     1      -9.143   5.515  72.517  1.00  0.00    -0.140 C  
HETATM   14  C   UNL     1      -9.541   6.723  71.666  1.00  0.00    -0.163 C  
BRANCH  11  15
HETATM   15  C   UNL     1      -7.336   8.604  67.670  1.00  0.00    -0.089 C  
BRANCH  15  16
HETATM   16  C   UNL     1      -7.750  10.064  67.708  1.00  0.00    -0.090 A  
HETATM   17  C   UNL     1      -7.382  10.889  68.770  1.00  0.00    -0.104 A  
HETATM   18  C   UNL     1      -7.975  12.149  68.939  1.00  0.00     0.096 A  
HETATM   19  C   UNL     1      -8.907  12.668  68.019  1.00  0.00    -0.195 A  
HETATM   20  C   UNL     1      -9.089  11.917  66.849  1.00  0.00    -0.196 A  
HETATM   21  C   UNL     1      -8.570  10.616  66.717  1.00  0.00    -0.129 A  
BRANCH  19  22
HETATM   22  C   UNL     1      -9.684  13.914  68.337  1.00  0.00    -0.226 A  
HETATM   23  C   UNL     1     -10.989  13.779  68.879  1.00  0.00    -0.281 A  
HETATM   24  C   UNL     1     -11.840  14.869  69.100  1.00  0.00    -0.340 A  
HETATM   25  C   UNL     1     -11.403  16.151  68.827  1.00  0.00    -0.359 A  
HETATM   26  C   UNL     1     -10.116  16.337  68.333  1.00  0.00    -0.237 A  
HETATM   27  C   UNL     1      -9.251  15.244  68.064  1.00  0.00    -0.188 A  
BRANCH  27  28
HETATM   28  C   UNL     1      -7.964  15.603  67.472  1.00  0.00    -0.162 A  
HETATM   29  N   UNL     1      -7.823  16.532  66.503  1.00  0.00    -0.284 NA 
HETATM   30  N   UNL     1      -6.502  16.461  66.293  1.00  0.00     0.111 NA 
HETATM   31  H   UNL     1      -6.032  17.048  65.605  1.00  0.00     0.000 HD 
HETATM   32  N   UNL     1      -5.836  15.576  67.038  1.00  0.00    -0.182 NA 
HETATM   33  N   UNL     1      -6.770  14.992  67.776  1.00  0.00    -0.155 NA 
ENDBRANCH  27  28
ENDBRANCH  19  22
ENDBRANCH  15  16
ENDBRANCH  11  15
ENDBRANCH   4   5
ENDBRANCH   3   4
ENDBRANCH   2   3
TORSDOF 7
ENDMDL
MODEL      249
REMARK 921   NORMALIZED FREE ENERGY PREDICTED BY IDOCK:   -2.75 KCAL/MOL
REMARK 922        TOTAL FREE ENERGY PREDICTED BY IDOCK:   -5.83 KCAL/MOL
REMARK 923 INTER-LIGAND FREE ENERGY PREDICTED BY IDOCK:   -6.03 KCAL/MOL
REMARK 924 INTRA-LIGAND FREE ENERGY PREDICTED BY IDOCK:    0.21 KCAL/MOL
REMARK 927      BINDING AFFINITY PREDICTED BY RF-SCORE:    0.00 PKD
ROOT
HETATM    1  C   UNL     1     -12.910  10.361  72.093  1.00  0.00    -0.321 C  
HETATM    2  C   UNL     1     -12.135   9.058  72.098  1.00  0.00    -0.412 C  
ENDROOT
BRANCH   2   3
HETATM    3  C   UNL     1     -11.987   8.496  70.688  1.00  0.00    -0.047 C  
BRANCH   3   4
HETATM    4  C   UNL     1     -10.673   8.924  70.041  1.00  0.00    -0.241 C  
BRANCH   4   5
HETATM    5  C   UNL     1      -9.617   7.879  70.266  1.00  0.00    -0.171 C  
HETATM    6  N   UNL     1      -9.975   6.643  70.451  1.00  0.00    -0.175 NA 
HETATM    7  C   UNL     1      -8.699   5.895  70.562  1.00  0.00    -0.140 C  
HETATM    8  C   UNL     1      -7.662   6.999  70.688  1.00  0.00    -0.095 C  
HETATM    9  C   UNL     1      -8.468   5.093  69.277  1.00  0.00    -0.093 C  
HETATM   10  O   UNL     1      -6.505   6.884  71.063  1.00  0.00    -0.043 OA 
HETATM   11  N   UNL     1      -8.298   8.146  70.286  1.00  0.00    -0.122 N  
HETATM   12  C   UNL     1      -7.742   3.849  69.761  1.00  0.00    -0.052 C  
HETATM   13  C   UNL     1      -8.459   3.521  71.061  1.00  0.00    -0.097 C  
HETATM   14  C   UNL     1      -8.737   4.881  71.705  1.00  0.00    -0.137 C  
BRANCH  11  15
HETATM   15  C   UNL     1      -7.577   9.404  70.104  1.00  0.00    -0.130 C  
BRANCH  15  16
HETATM   16  C   UNL     1      -8.217  10.287  69.048  1.00  0.00    -0.139 A  
HETATM   17  C   UNL     1      -8.304  11.667  69.219  1.00  0.00     0.404 A  
HETATM   18  C   UNL     1      -9.118  12.445  68.383  1.00  0.00    -0.141 A  
HETATM   19  C   UNL     1      -9.824  11.889  67.297  1.00  0.00    -0.197 A  
HETATM   20  C   UNL     1      -9.542  10.546  67.013  1.00  0.00    -0.202 A  
HETATM   21  C   UNL     1      -8.802   9.742  67.899  1.00  0.00    -0.122 A  
BRANCH  19  22
HETATM   22  C   UNL     1     -10.852  12.699  66.558  1.00  0.00    -0.285 A  
HETATM   23  C   UNL     1     -10.943  12.553  65.149  1.00  0.00    -0.332 A  
HETATM   24  C   UNL     1     -11.782  13.344  64.354  1.00  0.00    -0.435 A  
HETATM   25  C   UNL     1     -12.601  14.289  64.942  1.00  0.00    -0.339 A  
HETATM   26  C   UNL     1     -12.576  14.439  66.325  1.00  0.00    -0.116 A  
HETATM   27  C   UNL     1     -11.706  13.676  67.146  1.00  0.00    -0.418 A  
BRANCH  27  28
HETATM   28  C   UNL     1     -11.743  14.011  68.569  1.00  0.00    -0.352 A  
HETATM   29  N   UNL     1     -11.232  15.152  69.079  1.00  0.00    -0.257 NA 
HETATM   30  N   UNL     1     -11.482  14.964  70.382  1.00  0.00    -0.267 NA 
HETATM   31  H   UNL     1     -11.224  15.655  71.086  1.00  0.00     0.000 HD 
HETATM   32  N   UNL     1     -12.089  13.820  70.704  1.00  0.00    -0.344 NA 
HETATM   33  N   UNL     1     -12.231  13.182  69.551  1.00  0.00    -0.217 NA 
ENDBRANCH  27  28
ENDBRANCH  19  22
ENDBRANCH  15  16
ENDBRANCH  11  15
ENDBRANCH   4   5
ENDBRANCH   3   4
ENDBRANCH   2   3
TORSDOF 7
ENDMDL
MODEL      250
REMARK 921   NORMALIZED FREE ENERGY PREDICTED BY IDOCK:   -2.67 KCAL/MOL
REMARK 922        TOTAL FREE ENERGY PREDICTED BY IDOCK:   -5.71 KCAL/MOL
REMARK 923 INTER-LIGAND FREE ENERGY PREDICTED BY IDOCK:   -5.11 KCAL/MOL
REMARK 924 INTRA-LIGAND FREE ENERGY PREDICTED BY IDOCK:   -0.60 KCAL/MOL
REMARK 927      BINDING AFFINITY PREDICTED BY RF-SCORE:    0.00 PKD
ROOT
HETATM    1  C   UNL     1     -12.460  11.254  68.912  1.00  0.00     0.286 C  
HETATM    2  C   UNL     1     -11.173  10.735  69.522  1.00  0.00    -0.342 C  
ENDROOT
BRANCH   2   3
HETATM    3  C   UNL     1      -9.956  11.445  68.936  1.00  0.00    -0.146 C  
BRANCH   3   4
HETATM    4  C   UNL     1      -9.253  10.591  67.886  1.00  0.00    -0.143 C  
BRANCH   4   5
HETATM    5  C   UNL     1      -8.245   9.688  68.539  1.00  0.00    -0.105 C  
HETATM    6  N   UNL     1      -8.651   8.602  69.126  1.00  0.00    -0.128 NA 
HETATM    7  C   UNL     1      -7.407   7.934  69.582  1.00  0.00    -0.090 C  
HETATM    8  C   UNL     1      -6.347   9.003  69.377  1.00  0.00    -0.044 C  
HETATM    9  C   UNL     1      -7.123   6.725  68.684  1.00  0.00    -0.082 C  
HETATM   10  O   UNL     1      -5.219   9.022  69.846  1.00  0.00    -0.029 OA 
HETATM   11  N   UNL     1      -6.922   9.936  68.552  1.00  0.00    -0.066 N  
HETATM   12  C   UNL     1      -6.466   5.730  69.627  1.00  0.00    -0.042 C  
HETATM   13  C   UNL     1      -7.270   5.893  70.906  1.00  0.00    -0.077 C  
HETATM   14  C   UNL     1      -7.546   7.394  71.005  1.00  0.00    -0.086 C  
BRANCH  11  15
HETATM   15  C   UNL     1      -6.153  11.041  67.984  1.00  0.00    -0.049 C  
BRANCH  15  16
HETATM   16  C   UNL     1      -6.844  12.380  68.173  1.00  0.00    -0.081 A  
HETATM   17  C   UNL     1      -7.506  13.004  67.117  1.00  0.00    -0.004 A  
HETATM   18  C   UNL     1      -7.912  14.343  67.214  1.00  0.00    -0.204 A  
HETATM   19  C   UNL     1      -7.736  15.095  68.393  1.00  0.00    -0.118 A  
HETATM   20  C   UNL     1      -7.274  14.380  69.507  1.00  0.00    -0.051 A  
HETATM   21  C   UNL     1      -6.781  13.067  69.391  1.00  0.00    -0.018 A  
BRANCH  19  22
HETATM   22  C   UNL     1      -7.978  16.578  68.398  1.00  0.00    -0.194 A  
HETATM   23  C   UNL     1      -6.873  17.445  68.189  1.00  0.00    -0.184 A  
HETATM   24  C   UNL     1      -6.967  18.838  68.292  1.00  0.00    -0.266 A  
HETATM   25  C   UNL     1      -8.186  19.429  68.566  1.00  0.00    -0.392 A  
HETATM   26  C   UNL     1      -9.306  18.622  68.737  1.00  0.00    -0.334 A  
HETATM   27  C   UNL     1      -9.226  17.206  68.676  1.00  0.00    -0.263 A  
BRANCH  27  28
HETATM   28  C   UNL     1     -10.476  16.502  68.958  1.00  0.00    -0.303 A  
HETATM   29  N   UNL     1     -11.335  16.097  67.999  1.00  0.00    -0.289 NA 
HETATM   30  N   UNL     1     -12.300  15.555  68.755  1.00  0.00    -0.556 NA 
HETATM   31  H   UNL     1     -13.133  15.133  68.346  1.00  0.00     0.000 HD 
HETATM   32  N   UNL     1     -12.105  15.600  70.075  1.00  0.00    -0.370 NA 
HETATM   33  N   UNL     1     -10.953  16.238  70.221  1.00  0.00    -0.339 NA 
ENDBRANCH  27  28
ENDBRANCH  19  22
ENDBRANCH  15  16
ENDBRANCH  11  15
ENDBRANCH   4   5
ENDBRANCH   3   4
ENDBRANCH   2   3
TORSDOF 7
ENDMDL
MODEL      251
REMARK 921   NORMALIZED FREE ENERGY PREDICTED BY IDOCK:   -2.37 KCAL/MOL
REMARK 922        TOTAL FREE ENERGY PREDICTED BY IDOCK:   -5.29 KCAL/MOL
REMARK 923 INTER-LIGAND FREE ENERGY PREDICTED BY IDOCK:   -5.11 KCAL/MOL
REMARK 924 INTRA-LIGAND FREE ENERGY PREDICTED BY IDOCK:   -0.18 KCAL/MOL
REMARK 927      BINDING AFFINITY PREDICTED BY RF-SCORE:    0.00 PKD
ROOT
HETATM    1  C   UNL     1     -12.996  12.737  70.206  1.00  0.00     0.424 C  
HETATM    2  C   UNL     1     -12.847  14.224  69.952  1.00  0.00     0.056 C  
ENDROOT
BRANCH   2   3
HETATM    3  C   UNL     1     -11.378  14.636  69.924  1.00  0.00    -0.302 C  
BRANCH   3   4
HETATM    4  C   UNL     1     -10.588  13.854  68.881  1.00  0.00    -0.228 C  
BRANCH   4   5
HETATM    5  C   UNL     1      -9.260  14.513  68.631  1.00  0.00    -0.192 C  
HETATM    6  N   UNL     1      -8.817  15.392  69.478  1.00  0.00    -0.256 NA 
HETATM    7  C   UNL     1      -7.478  15.769  68.964  1.00  0.00    -0.186 C  
HETATM    8  C   UNL     1      -7.455  15.148  67.577  1.00  0.00    -0.198 C  
HETATM    9  C   UNL     1      -6.398  15.134  69.848  1.00  0.00    -0.164 C  
HETATM   10  O   UNL     1      -6.677  15.400  66.669  1.00  0.00     0.060 OA 
HETATM   11  N   UNL     1      -8.486  14.242  67.563  1.00  0.00    -0.174 N  
HETATM   12  C   UNL     1      -5.270  16.152  69.814  1.00  0.00    -0.128 C  
HETATM   13  C   UNL     1      -6.007  17.479  69.887  1.00  0.00    -0.223 C  
HETATM   14  C   UNL     1      -7.254  17.279  69.023  1.00  0.00    -0.227 C  
BRANCH  11  15
HETATM   15  C   UNL     1      -8.683  13.316  66.451  1.00  0.00     0.220 C  
BRANCH  15  16
HETATM   16  C   UNL     1      -9.150  11.948  66.917  1.00  0.00    -0.196 A  
HETATM   17  C   UNL     1     -10.505  11.628  66.971  1.00  0.00    -0.258 A  
HETATM   18  C   UNL     1     -10.946  10.478  67.640  1.00  0.00    -0.375 A  
HETATM   19  C   UNL     1     -10.050   9.562  68.225  1.00  0.00    -0.210 A  
HETATM   20  C   UNL     1      -8.691   9.789  67.964  1.00  0.00    -0.118 A  
HETATM   21  C   UNL     1      -8.241  10.985  67.374  1.00  0.00    -0.122 A  
BRANCH  19  22
HETATM   22  C   UNL     1     -10.552   8.463  69.119  1.00  0.00    -0.177 A  
HETATM   23  C   UNL     1     -11.235   8.819  70.311  1.00  0.00    -0.212 A  
HETATM   24  C   UNL     1     -11.638   7.880  71.268  1.00  0.00    -0.304 A  
HETATM   25  C   UNL     1     -11.413   6.533  71.051  1.00  0.00    -0.392 A  
HETATM   26  C   UNL     1     -10.785   6.133  69.876  1.00  0.00    -0.366 A  
HETATM   27  C   UNL     1     -10.332   7.071  68.911  1.00  0.00    -0.198 A  
BRANCH  27  28
HETATM   28  C   UNL     1      -9.620   6.494  67.773  1.00  0.00    -0.122 A  
HETATM   29  N   UNL     1     -10.137   5.531  66.980  1.00  0.00    -0.171 NA 
HETATM   30  N   UNL     1      -9.111   5.334  66.141  1.00  0.00    -0.143 NA 
HETATM   31  H   UNL     1      -9.157   4.654  65.383  1.00  0.00     0.000 HD 
HETATM   32  N   UNL     1      -8.026   6.081  66.356  1.00  0.00    -0.104 NA 
HETATM   33  N   UNL     1      -8.327   6.806  67.425  1.00  0.00    -0.121 NA 
ENDBRANCH  27  28
ENDBRANCH  19  22
ENDBRANCH  15  16
ENDBRANCH  11  15
ENDBRANCH   4   5
ENDBRANCH   3   4
ENDBRANCH   2   3
TORSDOF 7
ENDMDL
MODEL      252
REMARK 921   NORMALIZED FREE ENERGY PREDICTED BY IDOCK:   -2.34 KCAL/MOL
REMARK 922        TOTAL FREE ENERGY PREDICTED BY IDOCK:   -5.24 KCAL/MOL
REMARK 923 INTER-LIGAND FREE ENERGY PREDICTED BY IDOCK:   -5.23 KCAL/MOL
REMARK 924 INTRA-LIGAND FREE ENERGY PREDICTED BY IDOCK:   -0.01 KCAL/MOL
REMARK 927      BINDING AFFINITY PREDICTED BY RF-SCORE:    0.00 PKD
ROOT
HETATM    1  C   UNL     1     -11.813  11.536  63.120  1.00  0.00     0.033 C  
HETATM    2  C   UNL     1     -12.673  11.624  64.364  1.00  0.00     0.336 C  
ENDROOT
BRANCH   2   3
HETATM    3  C   UNL     1     -12.695  13.044  64.924  1.00  0.00    -0.456 C  
BRANCH   3   4
HETATM    4  C   UNL     1     -12.395  13.069  66.419  1.00  0.00    -0.227 C  
BRANCH   4   5
HETATM    5  C   UNL     1     -11.414  11.987  66.772  1.00  0.00    -0.345 C  
HETATM    6  N   UNL     1     -11.719  11.131  67.701  1.00  0.00    -0.598 NA 
HETATM    7  C   UNL     1     -10.577  10.185  67.730  1.00  0.00    -0.256 C  
HETATM    8  C   UNL     1      -9.535  10.877  66.868  1.00  0.00    -0.176 C  
HETATM    9  C   UNL     1     -11.001   8.858  67.090  1.00  0.00     0.119 C  
HETATM   10  O   UNL     1      -8.342  10.619  66.804  1.00  0.00    -0.126 OA 
HETATM   11  N   UNL     1     -10.216  11.845  66.174  1.00  0.00    -0.220 N  
HETATM   12  C   UNL     1     -10.207   7.821  67.866  1.00  0.00    -0.259 C  
HETATM   13  C   UNL     1     -10.274   8.340  69.293  1.00  0.00    -0.207 C  
HETATM   14  C   UNL     1     -10.151   9.859  69.161  1.00  0.00    -0.210 C  
BRANCH  11  15
HETATM   15  C   UNL     1      -9.585  12.616  65.106  1.00  0.00     0.117 C  
BRANCH  15  16
HETATM   16  C   UNL     1      -9.438  14.084  65.466  1.00  0.00     0.116 A  
HETATM   17  C   UNL     1      -8.602  14.491  66.505  1.00  0.00     0.022 A  
HETATM   18  C   UNL     1      -8.664  15.799  67.006  1.00  0.00    -0.251 A  
HETATM   19  C   UNL     1      -9.512  16.776  66.448  1.00  0.00    -0.307 A  
HETATM   20  C   UNL     1     -10.173  16.405  65.268  1.00  0.00    -0.114 A  
HETATM   21  C   UNL     1     -10.186  15.073  64.815  1.00  0.00    -0.121 A  
BRANCH  19  22
HETATM   22  C   UNL     1      -9.719  18.095  67.138  1.00  0.00    -0.301 A  
HETATM   23  C   UNL     1      -9.159  19.260  66.553  1.00  0.00    -0.383 A  
HETATM   24  C   UNL     1      -9.191  20.515  67.173  1.00  0.00    -0.485 A  
HETATM   25  C   UNL     1      -9.827  20.667  68.391  1.00  0.00     0.084 A  
HETATM   26  C   UNL     1     -10.427  19.561  68.984  1.00  0.00     0.014 A  
HETATM   27  C   UNL     1     -10.372  18.272  68.392  1.00  0.00    -0.366 A  
BRANCH  27  28
HETATM   28  C   UNL     1     -10.980  17.201  69.181  1.00  0.00     0.058 A  
HETATM   29  N   UNL     1     -10.794  17.058  70.510  1.00  0.00     0.304 NA 
HETATM   30  N   UNL     1     -11.512  15.949  70.734  1.00  0.00    -0.379 NA 
HETATM   31  H   UNL     1     -11.599  15.541  71.664  1.00  0.00     0.000 HD 
HETATM   32  N   UNL     1     -12.106  15.409  69.667  1.00  0.00    -0.340 NA 
HETATM   33  N   UNL     1     -11.744  16.185  68.655  1.00  0.00    -0.305 NA 
ENDBRANCH  27  28
ENDBRANCH  19  22
ENDBRANCH  15  16
ENDBRANCH  11  15
ENDBRANCH   4   5
ENDBRANCH   3   4
ENDBRANCH   2   3
TORSDOF 7
ENDMDL
MODEL      253
REMARK 921   NORMALIZED FREE ENERGY PREDICTED BY IDOCK:   -2.24 KCAL/MOL
REMARK 922        TOTAL FREE ENERGY PREDICTED BY IDOCK:   -5.10 KCAL/MOL
REMARK 923 INTER-LIGAND FREE ENERGY PREDICTED BY IDOCK:   -3.90 KCAL/MOL
REMARK 924 INTRA-LIGAND FREE ENERGY PREDICTED BY IDOCK:   -1.20 KCAL/MOL
REMARK 927      BINDING AFFINITY PREDICTED BY RF-SCORE:    0.00 PKD
ROOT
HETATM    1  C   UNL     1     -12.969  11.287  70.679  1.00  0.00    -0.109 C  
HETATM    2  C   UNL     1     -11.799  10.617  71.371  1.00  0.00    -0.157 C  
ENDROOT
BRANCH   2   3
HETATM    3  C   UNL     1     -10.583  10.539  70.452  1.00  0.00     0.027 C  
BRANCH   3   4
HETATM    4  C   UNL     1     -10.579   9.259  69.623  1.00  0.00    -0.241 C  
BRANCH   4   5
HETATM    5  C   UNL     1      -9.562   8.293  70.161  1.00  0.00    -0.167 C  
HETATM    6  N   UNL     1      -9.803   7.670  71.275  1.00  0.00    -0.172 NA 
HETATM    7  C   UNL     1      -8.644   6.763  71.458  1.00  0.00    -0.120 C  
HETATM    8  C   UNL     1      -7.660   7.247  70.407  1.00  0.00    -0.088 C  
HETATM    9  C   UNL     1      -9.075   5.322  71.160  1.00  0.00    -0.170 C  
HETATM   10  O   UNL     1      -6.467   6.989  70.340  1.00  0.00    -0.041 OA 
HETATM   11  N   UNL     1      -8.393   8.026  69.548  1.00  0.00    -0.125 N  
HETATM   12  C   UNL     1      -8.223   4.495  72.109  1.00  0.00    -0.105 C  
HETATM   13  C   UNL     1      -8.228   5.326  73.382  1.00  0.00    -0.111 C  
HETATM   14  C   UNL     1      -8.140   6.775  72.901  1.00  0.00    -0.109 C  
BRANCH  11  15
HETATM   15  C   UNL     1      -7.831   8.538  68.301  1.00  0.00    -0.106 C  
BRANCH  15  16
HETATM   16  C   UNL     1      -7.867  10.054  68.232  1.00  0.00    -0.089 A  
HETATM   17  C   UNL     1      -8.446  10.713  67.149  1.00  0.00    -0.128 A  
HETATM   18  C   UNL     1      -8.251  12.088  66.956  1.00  0.00    -0.169 A  
HETATM   19  C   UNL     1      -7.527  12.877  67.872  1.00  0.00    -0.131 A  
HETATM   20  C   UNL     1      -7.149  12.237  69.060  1.00  0.00    -0.051 A  
HETATM   21  C   UNL     1      -7.262  10.843  69.217  1.00  0.00    -0.128 A  
BRANCH  19  22
HETATM   22  C   UNL     1      -7.148  14.291  67.531  1.00  0.00    -0.189 A  
HETATM   23  C   UNL     1      -5.782  14.586  67.288  1.00  0.00     0.558 A  
HETATM   24  C   UNL     1      -5.308  15.888  67.081  1.00  0.00     0.177 A  
HETATM   25  C   UNL     1      -6.193  16.949  67.065  1.00  0.00    -0.226 A  
HETATM   26  C   UNL     1      -7.548  16.704  67.257  1.00  0.00    -0.199 A  
HETATM   27  C   UNL     1      -8.045  15.398  67.508  1.00  0.00    -0.187 A  
BRANCH  27  28
HETATM   28  C   UNL     1      -9.481  15.321  67.770  1.00  0.00    -0.197 A  
HETATM   29  N   UNL     1     -10.058  15.777  68.903  1.00  0.00    -0.212 NA 
HETATM   30  N   UNL     1     -11.336  15.450  68.669  1.00  0.00    -0.311 NA 
HETATM   31  H   UNL     1     -12.077  15.656  69.338  1.00  0.00     0.000 HD 
HETATM   32  N   UNL     1     -11.582  14.837  67.508  1.00  0.00    -0.358 NA 
HETATM   33  N   UNL     1     -10.393  14.717  66.936  1.00  0.00    -0.264 NA 
ENDBRANCH  27  28
ENDBRANCH  19  22
ENDBRANCH  15  16
ENDBRANCH  11  15
ENDBRANCH   4   5
ENDBRANCH   3   4
ENDBRANCH   2   3
TORSDOF 7
ENDMDL
MODEL      254
REMARK 921   NORMALIZED FREE ENERGY PREDICTED BY IDOCK:   -2.18 KCAL/MOL
REMARK 922        TOTAL FREE ENERGY PREDICTED BY IDOCK:   -5.02 KCAL/MOL
REMARK 923 INTER-LIGAND FREE ENERGY PREDICTED BY IDOCK:   -6.05 KCAL/MOL
REMARK 924 INTRA-LIGAND FREE ENERGY PREDICTED BY IDOCK:    1.03 KCAL/MOL
REMARK 927      BINDING AFFINITY PREDICTED BY RF-SCORE:    0.00 PKD
ROOT
HETATM    1  C   UNL     1     -10.081  20.357  67.018  1.00  0.00    -0.507 C  
HETATM    2  C   UNL     1     -10.373  18.873  67.093  1.00  0.00    -0.479 C  
ENDROOT
BRANCH   2   3
HETATM    3  C   UNL     1      -9.325  18.062  66.336  1.00  0.00    -0.267 C  
BRANCH   3   4
HETATM    4  C   UNL     1      -9.833  16.669  65.979  1.00  0.00    -0.335 C  
BRANCH   4   5
HETATM    5  C   UNL     1      -8.939  15.620  66.578  1.00  0.00    -0.308 C  
HETATM    6  N   UNL     1      -7.861  15.985  67.205  1.00  0.00    -0.187 NA 
HETATM    7  C   UNL     1      -7.277  14.721  67.717  1.00  0.00    -0.176 C  
HETATM    8  C   UNL     1      -8.086  13.653  67.000  1.00  0.00     0.017 C  
HETATM    9  C   UNL     1      -7.505  14.634  69.230  1.00  0.00    -0.132 C  
HETATM   10  O   UNL     1      -7.810  12.468  66.892  1.00  0.00    -0.102 OA 
HETATM   11  N   UNL     1      -9.192  14.299  66.507  1.00  0.00    -0.262 N  
HETATM   12  C   UNL     1      -6.277  13.892  69.731  1.00  0.00    -0.136 C  
HETATM   13  C   UNL     1      -5.157  14.486  68.894  1.00  0.00    -0.088 C  
HETATM   14  C   UNL     1      -5.765  14.670  67.503  1.00  0.00     0.134 C  
BRANCH  11  15
HETATM   15  C   UNL     1     -10.301  13.571  65.896  1.00  0.00    -0.299 C  
BRANCH  15  16
HETATM   16  C   UNL     1     -11.015  12.670  66.888  1.00  0.00    -0.297 A  
HETATM   17  C   UNL     1     -11.832  13.200  67.885  1.00  0.00    -0.390 A  
HETATM   18  C   UNL     1     -12.275  12.403  68.951  1.00  0.00    -0.005 A  
HETATM   19  C   UNL     1     -11.978  11.027  69.031  1.00  0.00    -0.364 A  
HETATM   20  C   UNL     1     -11.348  10.475  67.907  1.00  0.00    -0.297 A  
HETATM   21  C   UNL     1     -10.823  11.283  66.881  1.00  0.00    -0.333 A  
BRANCH  19  22
HETATM   22  C   UNL     1     -12.276  10.252  70.283  1.00  0.00    -0.298 A  
HETATM   23  C   UNL     1     -12.105   8.843  70.264  1.00  0.00     0.307 A  
HETATM   24  C   UNL     1     -12.466   8.017  71.335  1.00  0.00    -0.320 A  
HETATM   25  C   UNL     1     -12.974   8.573  72.494  1.00  0.00    -0.300 A  
HETATM   26  C   UNL     1     -13.121   9.953  72.575  1.00  0.00    -0.135 A  
HETATM   27  C   UNL     1     -12.798  10.806  71.487  1.00  0.00    -0.567 A  
BRANCH  27  28
HETATM   28  C   UNL     1     -13.086  12.223  71.704  1.00  0.00    -0.306 A  
HETATM   29  N   UNL     1     -12.827  12.867  72.862  1.00  0.00     0.327 NA 
HETATM   30  N   UNL     1     -13.290  14.089  72.565  1.00  0.00    -0.503 NA 
HETATM   31  H   UNL     1     -13.250  14.858  73.233  1.00  0.00     0.000 HD 
HETATM   32  N   UNL     1     -13.806  14.240  71.343  1.00  0.00    -0.331 NA 
HETATM   33  N   UNL     1     -13.713  13.038  70.791  1.00  0.00     0.892 NA 
ENDBRANCH  27  28
ENDBRANCH  19  22
ENDBRANCH  15  16
ENDBRANCH  11  15
ENDBRANCH   4   5
ENDBRANCH   3   4
ENDBRANCH   2   3
TORSDOF 7
ENDMDL
MODEL      255
REMARK 921   NORMALIZED FREE ENERGY PREDICTED BY IDOCK:   -2.06 KCAL/MOL
REMARK 922        TOTAL FREE ENERGY PREDICTED BY IDOCK:   -4.84 KCAL/MOL
REMARK 923 INTER-LIGAND FREE ENERGY PREDICTED BY IDOCK:   -4.00 KCAL/MOL
REMARK 924 INTRA-LIGAND FREE ENERGY PREDICTED BY IDOCK:   -0.85 KCAL/MOL
REMARK 927      BINDING AFFINITY PREDICTED BY RF-SCORE:    0.00 PKD
ROOT
HETATM    1  C   UNL     1     -11.992  15.297  69.227  1.00  0.00    -0.327 C  
HETATM    2  C   UNL     1     -12.090  14.009  70.018  1.00  0.00    -0.412 C  
ENDROOT
BRANCH   2   3
HETATM    3  C   UNL     1     -12.368  12.818  69.105  1.00  0.00     0.109 C  
BRANCH   3   4
HETATM    4  C   UNL     1     -11.359  11.694  69.314  1.00  0.00    -0.353 C  
BRANCH   4   5
HETATM    5  C   UNL     1     -10.110  11.962  68.521  1.00  0.00    -0.206 C  
HETATM    6  N   UNL     1      -9.415  13.030  68.772  1.00  0.00     0.024 NA 
HETATM    7  C   UNL     1      -8.238  12.933  67.874  1.00  0.00    -0.165 C  
HETATM    8  C   UNL     1      -8.611  11.793  66.941  1.00  0.00    -0.177 C  
HETATM    9  C   UNL     1      -7.000  12.562  68.698  1.00  0.00    -0.091 C  
HETATM   10  O   UNL     1      -8.085  11.511  65.875  1.00  0.00     0.034 OA 
HETATM   11  N   UNL     1      -9.656  11.146  67.551  1.00  0.00    -0.168 N  
HETATM   12  C   UNL     1      -5.868  13.273  67.976  1.00  0.00    -0.120 C  
HETATM   13  C   UNL     1      -6.489  14.608  67.602  1.00  0.00    -0.157 C  
HETATM   14  C   UNL     1      -7.927  14.270  67.204  1.00  0.00    -0.128 C  
BRANCH  11  15
HETATM   15  C   UNL     1     -10.186   9.884  67.040  1.00  0.00    -0.233 C  
BRANCH  15  16
HETATM   16  C   UNL     1      -9.608   8.682  67.764  1.00  0.00    -0.178 A  
HETATM   17  C   UNL     1     -10.436   7.743  68.377  1.00  0.00    -0.207 A  
HETATM   18  C   UNL     1      -9.911   6.789  69.260  1.00  0.00    -0.160 A  
HETATM   19  C   UNL     1      -8.529   6.686  69.516  1.00  0.00    -0.132 A  
HETATM   20  C   UNL     1      -7.702   7.491  68.720  1.00  0.00    -0.119 A  
HETATM   21  C   UNL     1      -8.225   8.509  67.903  1.00  0.00    -0.119 A  
BRANCH  19  22
HETATM   22  C   UNL     1      -8.019   5.808  70.624  1.00  0.00    -0.109 A  
HETATM   23  C   UNL     1      -7.931   6.351  71.932  1.00  0.00    -0.104 A  
HETATM   24  C   UNL     1      -7.360   5.659  73.008  1.00  0.00    -0.092 A  
HETATM   25  C   UNL     1      -6.892   4.371  72.829  1.00  0.00    -0.056 A  
HETATM   26  C   UNL     1      -6.995   3.781  71.573  1.00  0.00    -0.031 A  
HETATM   27  C   UNL     1      -7.533   4.478  70.460  1.00  0.00    -0.050 A  
BRANCH  27  28
HETATM   28  C   UNL     1      -7.496   3.748  69.194  1.00  0.00    -0.053 A  
HETATM   29  N   UNL     1      -7.848   2.450  69.073  1.00  0.00    -0.049 NA 
HETATM   30  N   UNL     1      -7.611   2.259  67.768  1.00  0.00    -0.055 NA 
HETATM   31  H   UNL     1      -7.776   1.360  67.315  1.00  0.00     0.000 HD 
HETATM   32  N   UNL     1      -7.146   3.314  67.095  1.00  0.00    -0.057 NA 
HETATM   33  N   UNL     1      -7.034   4.268  68.008  1.00  0.00    -0.055 NA 
ENDBRANCH  27  28
ENDBRANCH  19  22
ENDBRANCH  15  16
ENDBRANCH  11  15
ENDBRANCH   4   5
ENDBRANCH   3   4
ENDBRANCH   2   3
TORSDOF 7
ENDMDL
MODEL      256
REMARK 921   NORMALIZED FREE ENERGY PREDICTED BY IDOCK:   -1.91 KCAL/MOL
REMARK 922        TOTAL FREE ENERGY PREDICTED BY IDOCK:   -4.64 KCAL/MOL
REMARK 923 INTER-LIGAND FREE ENERGY PREDICTED BY IDOCK:   -3.96 KCAL/MOL
REMARK 924 INTRA-LIGAND FREE ENERGY PREDICTED BY IDOCK:   -0.69 KCAL/MOL
REMARK 927      BINDING AFFINITY PREDICTED BY RF-SCORE:    0.00 PKD
ROOT
HETATM    1  C   UNL     1     -12.502  11.805  63.288  1.00  0.00    -0.411 C  
HETATM    2  C   UNL     1     -11.064  12.090  62.904  1.00  0.00     0.201 C  
ENDROOT
BRANCH   2   3
HETATM    3  C   UNL     1     -10.280  10.799  62.691  1.00  0.00     0.187 C  
BRANCH   3   4
HETATM    4  C   UNL     1      -9.046  10.729  63.583  1.00  0.00    -0.224 C  
BRANCH   4   5
HETATM    5  C   UNL     1      -9.284   9.786  64.729  1.00  0.00    -0.261 C  
HETATM    6  N   UNL     1      -8.722   8.615  64.716  1.00  0.00    -0.120 NA 
HETATM    7  C   UNL     1      -9.107   7.997  66.008  1.00  0.00    -0.142 C  
HETATM    8  C   UNL     1     -10.180   8.937  66.532  1.00  0.00    -0.249 C  
HETATM    9  C   UNL     1      -7.898   7.995  66.950  1.00  0.00    -0.103 C  
HETATM   10  O   UNL     1     -10.980   8.716  67.428  1.00  0.00    -0.114 OA 
HETATM   11  N   UNL     1     -10.056  10.085  65.790  1.00  0.00    -0.271 N  
HETATM   12  C   UNL     1      -8.088   6.728  67.767  1.00  0.00    -0.113 C  
HETATM   13  C   UNL     1      -8.587   5.730  66.735  1.00  0.00    -0.112 C  
HETATM   14  C   UNL     1      -9.524   6.538  65.835  1.00  0.00     0.089 C  
BRANCH  11  15
HETATM   15  C   UNL     1     -10.807  11.296  66.113  1.00  0.00    -0.222 C  
BRANCH  15  16
HETATM   16  C   UNL     1      -9.930  12.536  66.110  1.00  0.00    -0.267 A  
HETATM   17  C   UNL     1      -8.745  12.581  66.843  1.00  0.00    -0.182 A  
HETATM   18  C   UNL     1      -8.077  13.796  67.053  1.00  0.00    -0.004 A  
HETATM   19  C   UNL     1      -8.525  15.005  66.484  1.00  0.00    -0.093 A  
HETATM   20  C   UNL     1      -9.585  14.893  65.574  1.00  0.00    -0.180 A  
HETATM   21  C   UNL     1     -10.314  13.698  65.430  1.00  0.00    -0.345 A  
BRANCH  19  22
HETATM   22  C   UNL     1      -7.922  16.317  66.902  1.00  0.00    -0.278 A  
HETATM   23  C   UNL     1      -6.610  16.630  66.461  1.00  0.00    -0.041 A  
HETATM   24  C   UNL     1      -5.912  17.767  66.888  1.00  0.00    -0.181 A  
HETATM   25  C   UNL     1      -6.519  18.666  67.745  1.00  0.00    -0.213 A  
HETATM   26  C   UNL     1      -7.820  18.423  68.171  1.00  0.00    -0.304 A  
HETATM   27  C   UNL     1      -8.531  17.257  67.782  1.00  0.00    -0.217 A  
BRANCH  27  28
HETATM   28  C   UNL     1      -9.856  17.111  68.381  1.00  0.00    -0.296 A  
HETATM   29  N   UNL     1     -10.090  16.407  69.510  1.00  0.00    -0.234 NA 
HETATM   30  N   UNL     1     -11.419  16.550  69.610  1.00  0.00    -0.303 NA 
HETATM   31  H   UNL     1     -11.950  16.137  70.375  1.00  0.00     0.000 HD 
HETATM   32  N   UNL     1     -12.006  17.267  68.648  1.00  0.00     1.276 NA 
HETATM   33  N   UNL     1     -11.017  17.604  67.832  1.00  0.00    -0.229 NA 
ENDBRANCH  27  28
ENDBRANCH  19  22
ENDBRANCH  15  16
ENDBRANCH  11  15
ENDBRANCH   4   5
ENDBRANCH   3   4
ENDBRANCH   2   3
TORSDOF 7
ENDMDL
MODEL      257
REMARK 921   NORMALIZED FREE ENERGY PREDICTED BY IDOCK:   -1.91 KCAL/MOL
REMARK 922        TOTAL FREE ENERGY PREDICTED BY IDOCK:   -4.64 KCAL/MOL
REMARK 923 INTER-LIGAND FREE ENERGY PREDICTED BY IDOCK:   -3.33 KCAL/MOL
REMARK 924 INTRA-LIGAND FREE ENERGY PREDICTED BY IDOCK:   -1.31 KCAL/MOL
REMARK 927      BINDING AFFINITY PREDICTED BY RF-SCORE:    0.00 PKD
ROOT
HETATM    1  C   UNL     1     -10.029   6.434  67.786  1.00  0.00    -0.147 C  
HETATM    2  C   UNL     1      -9.304   5.568  66.776  1.00  0.00    -0.136 C  
ENDROOT
BRANCH   2   3
HETATM    3  C   UNL     1      -7.796   5.591  67.008  1.00  0.00    -0.101 C  
BRANCH   3   4
HETATM    4  C   UNL     1      -7.335   4.414  67.860  1.00  0.00    -0.069 C  
BRANCH   4   5
HETATM    5  C   UNL     1      -7.505   4.729  69.320  1.00  0.00    -0.053 C  
HETATM    6  N   UNL     1      -8.383   4.071  70.014  1.00  0.00    -0.057 NA 
HETATM    7  C   UNL     1      -8.229   4.581  71.399  1.00  0.00    -0.100 C  
HETATM    8  C   UNL     1      -7.334   5.796  71.219  1.00  0.00    -0.079 C  
HETATM    9  C   UNL     1      -7.522   3.523  72.253  1.00  0.00    -0.057 C  
HETATM   10  O   UNL     1      -7.139   6.694  72.025  1.00  0.00    -0.077 OA 
HETATM   11  N   UNL     1      -6.789   5.669  69.966  1.00  0.00    -0.058 N  
HETATM   12  C   UNL     1      -8.133   3.716  73.632  1.00  0.00    -0.083 C  
HETATM   13  C   UNL     1      -9.598   3.974  73.321  1.00  0.00    -0.140 C  
HETATM   14  C   UNL     1      -9.582   4.840  72.059  1.00  0.00    -0.201 C  
BRANCH  11  15
HETATM   15  C   UNL     1      -5.735   6.561  69.489  1.00  0.00    -0.014 C  
BRANCH  15  16
HETATM   16  C   UNL     1      -6.287   7.872  68.959  1.00  0.00    -0.036 A  
HETATM   17  C   UNL     1      -7.474   8.409  69.456  1.00  0.00    -0.088 A  
HETATM   18  C   UNL     1      -8.117   9.466  68.796  1.00  0.00    -0.103 A  
HETATM   19  C   UNL     1      -7.568  10.078  67.651  1.00  0.00    -0.091 A  
HETATM   20  C   UNL     1      -6.272   9.670  67.306  1.00  0.00    -0.067 A  
HETATM   21  C   UNL     1      -5.663   8.553  67.906  1.00  0.00    -0.039 A  
BRANCH  19  22
HETATM   22  C   UNL     1      -8.377  11.053  66.842  1.00  0.00    -0.138 A  
HETATM   23  C   UNL     1      -8.864  12.222  67.481  1.00  0.00    -0.182 A  
HETATM   24  C   UNL     1      -9.724  13.132  66.853  1.00  0.00    -0.243 A  
HETATM   25  C   UNL     1     -10.099  12.932  65.538  1.00  0.00    -0.270 A  
HETATM   26  C   UNL     1      -9.613  11.821  64.857  1.00  0.00    -0.132 A  
HETATM   27  C   UNL     1      -8.772  10.865  65.486  1.00  0.00    -0.178 A  
BRANCH  27  28
HETATM   28  C   UNL     1      -8.415   9.714  64.659  1.00  0.00    -0.174 A  
HETATM   29  N   UNL     1      -7.707   9.812  63.514  1.00  0.00    -0.126 NA 
HETATM   30  N   UNL     1      -7.681   8.525  63.138  1.00  0.00    -0.126 NA 
HETATM   31  H   UNL     1      -7.209   8.221  62.287  1.00  0.00     0.000 HD 
HETATM   32  N   UNL     1      -8.309   7.666  63.944  1.00  0.00     0.048 NA 
HETATM   33  N   UNL     1      -8.816   8.423  64.907  1.00  0.00    -0.017 NA 
ENDBRANCH  27  28
ENDBRANCH  19  22
ENDBRANCH  15  16
ENDBRANCH  11  15
ENDBRANCH   4   5
ENDBRANCH   3   4
ENDBRANCH   2   3
TORSDOF 7
ENDMDL
MODEL      258
REMARK 921   NORMALIZED FREE ENERGY PREDICTED BY IDOCK:   -1.80 KCAL/MOL
REMARK 922        TOTAL FREE ENERGY PREDICTED BY IDOCK:   -4.48 KCAL/MOL
REMARK 923 INTER-LIGAND FREE ENERGY PREDICTED BY IDOCK:   -4.78 KCAL/MOL
REMARK 924 INTRA-LIGAND FREE ENERGY PREDICTED BY IDOCK:    0.30 KCAL/MOL
REMARK 927      BINDING AFFINITY PREDICTED BY RF-SCORE:    0.00 PKD
ROOT
HETATM    1  C   UNL     1     -12.225  12.214  65.257  1.00  0.00    -0.177 C  
HETATM    2  C   UNL     1     -10.902  12.947  65.157  1.00  0.00    -0.320 C  
ENDROOT
BRANCH   2   3
HETATM    3  C   UNL     1      -9.820  12.252  65.978  1.00  0.00    -0.263 C  
BRANCH   3   4
HETATM    4  C   UNL     1     -10.390  11.598  67.232  1.00  0.00    -0.232 C  
BRANCH   4   5
HETATM    5  C   UNL     1     -10.827  12.648  68.214  1.00  0.00    -0.239 C  
HETATM    6  N   UNL     1     -10.376  13.861  68.092  1.00  0.00    -0.241 NA 
HETATM    7  C   UNL     1     -11.060  14.627  69.162  1.00  0.00    -0.268 C  
HETATM    8  C   UNL     1     -11.701  13.539  70.007  1.00  0.00    -0.241 C  
HETATM    9  C   UNL     1     -12.139  15.518  68.536  1.00  0.00    -0.048 C  
HETATM   10  O   UNL     1     -12.149  13.653  71.139  1.00  0.00    -0.301 OA 
HETATM   11  N   UNL     1     -11.676  12.408  69.232  1.00  0.00    -0.315 N  
HETATM   12  C   UNL     1     -12.153  16.742  69.438  1.00  0.00     1.350 C  
HETATM   13  C   UNL     1     -10.679  16.966  69.729  1.00  0.00    -0.084 C  
HETATM   14  C   UNL     1     -10.097  15.560  69.892  1.00  0.00    -0.282 C  
BRANCH  11  15
HETATM   15  C   UNL     1     -12.359  11.181  69.634  1.00  0.00    -0.218 C  
BRANCH  15  16
HETATM   16  C   UNL     1     -11.390  10.105  70.090  1.00  0.00    -0.372 A  
HETATM   17  C   UNL     1     -11.548   9.467  71.319  1.00  0.00    -0.434 A  
HETATM   18  C   UNL     1     -10.523   8.674  71.854  1.00  0.00    -0.410 A  
HETATM   19  C   UNL     1      -9.325   8.427  71.155  1.00  0.00    -0.223 A  
HETATM   20  C   UNL     1      -9.285   8.894  69.834  1.00  0.00    -0.171 A  
HETATM   21  C   UNL     1     -10.267   9.764  69.327  1.00  0.00    -0.216 A  
BRANCH  19  22
HETATM   22  C   UNL     1      -8.163   7.761  71.838  1.00  0.00    -0.128 A  
HETATM   23  C   UNL     1      -7.338   8.543  72.688  1.00  0.00    -0.065 A  
HETATM   24  C   UNL     1      -6.166   8.052  73.276  1.00  0.00    -0.076 A  
HETATM   25  C   UNL     1      -5.792   6.736  73.073  1.00  0.00    -0.042 A  
HETATM   26  C   UNL     1      -6.592   5.919  72.281  1.00  0.00    -0.059 A  
HETATM   27  C   UNL     1      -7.763   6.408  71.643  1.00  0.00    -0.100 A  
BRANCH  27  28
HETATM   28  C   UNL     1      -8.446   5.445  70.781  1.00  0.00    -0.121 A  
HETATM   29  N   UNL     1      -7.862   4.850  69.719  1.00  0.00    -0.066 NA 
HETATM   30  N   UNL     1      -8.885   4.114  69.265  1.00  0.00    -0.089 NA 
HETATM   31  H   UNL     1      -8.795   3.513  68.446  1.00  0.00     0.000 HD 
HETATM   32  N   UNL     1     -10.028   4.213  69.947  1.00  0.00    -0.154 NA 
HETATM   33  N   UNL     1      -9.769   5.093  70.904  1.00  0.00    -0.177 NA 
ENDBRANCH  27  28
ENDBRANCH  19  22
ENDBRANCH  15  16
ENDBRANCH  11  15
ENDBRANCH   4   5
ENDBRANCH   3   4
ENDBRANCH   2   3
TORSDOF 7
ENDMDL
MODEL      259
REMARK 921   NORMALIZED FREE ENERGY PREDICTED BY IDOCK:   -1.75 KCAL/MOL
REMARK 922        TOTAL FREE ENERGY PREDICTED BY IDOCK:   -4.42 KCAL/MOL
REMARK 923 INTER-LIGAND FREE ENERGY PREDICTED BY IDOCK:   -4.08 KCAL/MOL
REMARK 924 INTRA-LIGAND FREE ENERGY PREDICTED BY IDOCK:   -0.34 KCAL/MOL
REMARK 927      BINDING AFFINITY PREDICTED BY RF-SCORE:    0.00 PKD
ROOT
HETATM    1  C   UNL     1      -6.575  18.159  67.446  1.00  0.00    -0.196 C  
HETATM    2  C   UNL     1      -6.806  18.291  68.938  1.00  0.00    -0.270 C  
ENDROOT
BRANCH   2   3
HETATM    3  C   UNL     1      -6.891  16.924  69.609  1.00  0.00    -0.014 C  
BRANCH   3   4
HETATM    4  C   UNL     1      -7.276  15.829  68.620  1.00  0.00    -0.135 C  
BRANCH   4   5
HETATM    5  C   UNL     1      -8.690  15.381  68.862  1.00  0.00    -0.208 C  
HETATM    6  N   UNL     1      -9.311  15.786  69.929  1.00  0.00    -0.065 NA 
HETATM    7  C   UNL     1     -10.678  15.223  69.805  1.00  0.00    -0.283 C  
HETATM    8  C   UNL     1     -10.543  14.244  68.651  1.00  0.00    -0.250 C  
HETATM    9  C   UNL     1     -11.656  16.345  69.438  1.00  0.00    -0.057 C  
HETATM   10  O   UNL     1     -11.323  13.354  68.345  1.00  0.00    -0.257 OA 
HETATM   11  N   UNL     1      -9.368  14.573  68.025  1.00  0.00    -0.196 N  
HETATM   12  C   UNL     1     -12.946  15.928  70.126  1.00  0.00     0.480 C  
HETATM   13  C   UNL     1     -12.460  15.386  71.460  1.00  0.00    -0.450 C  
HETATM   14  C   UNL     1     -11.169  14.635  71.127  1.00  0.00     0.027 C  
BRANCH  11  15
HETATM   15  C   UNL     1      -8.971  13.963  66.758  1.00  0.00    -0.188 C  
BRANCH  15  16
HETATM   16  C   UNL     1      -8.736  12.469  66.888  1.00  0.00    -0.182 A  
HETATM   17  C   UNL     1      -8.079  11.936  67.995  1.00  0.00    -0.151 A  
HETATM   18  C   UNL     1      -7.631  10.607  67.994  1.00  0.00    -0.091 A  
HETATM   19  C   UNL     1      -7.881   9.733  66.917  1.00  0.00    -0.102 A  
HETATM   20  C   UNL     1      -8.733  10.226  65.919  1.00  0.00    -0.169 A  
HETATM   21  C   UNL     1      -9.108  11.582  65.870  1.00  0.00    -0.186 A  
BRANCH  19  22
HETATM   22  C   UNL     1      -7.206   8.392  66.847  1.00  0.00    -0.079 A  
HETATM   23  C   UNL     1      -6.128   8.223  65.940  1.00  0.00    -0.045 A  
HETATM   24  C   UNL     1      -5.510   6.988  65.711  1.00  0.00    -0.027 A  
HETATM   25  C   UNL     1      -5.918   5.872  66.418  1.00  0.00    -0.022 A  
HETATM   26  C   UNL     1      -6.943   5.997  67.349  1.00  0.00    -0.069 A  
HETATM   27  C   UNL     1      -7.610   7.231  67.568  1.00  0.00    -0.109 A  
BRANCH  27  28
HETATM   28  C   UNL     1      -8.718   7.177  68.519  1.00  0.00    -0.126 A  
HETATM   29  N   UNL     1      -9.279   8.273  69.073  1.00  0.00    -0.147 NA 
HETATM   30  N   UNL     1     -10.192   7.699  69.868  1.00  0.00    -0.210 NA 
HETATM   31  H   UNL     1     -10.821   8.249  70.453  1.00  0.00     0.000 HD 
HETATM   32  N   UNL     1     -10.230   6.365  69.850  1.00  0.00    -0.177 NA 
HETATM   33  N   UNL     1      -9.264   6.015  69.013  1.00  0.00    -0.121 NA 
ENDBRANCH  27  28
ENDBRANCH  19  22
ENDBRANCH  15  16
ENDBRANCH  11  15
ENDBRANCH   4   5
ENDBRANCH   3   4
ENDBRANCH   2   3
TORSDOF 7
ENDMDL
MODEL      260
REMARK 921   NORMALIZED FREE ENERGY PREDICTED BY IDOCK:   -1.72 KCAL/MOL
REMARK 922        TOTAL FREE ENERGY PREDICTED BY IDOCK:   -4.37 KCAL/MOL
REMARK 923 INTER-LIGAND FREE ENERGY PREDICTED BY IDOCK:   -3.65 KCAL/MOL
REMARK 924 INTRA-LIGAND FREE ENERGY PREDICTED BY IDOCK:   -0.72 KCAL/MOL
REMARK 927      BINDING AFFINITY PREDICTED BY RF-SCORE:    0.00 PKD
ROOT
HETATM    1  C   UNL     1      -9.035   2.175  66.006  1.00  0.00    -0.103 C  
HETATM    2  C   UNL     1      -8.083   2.793  67.010  1.00  0.00    -0.076 C  
ENDROOT
BRANCH   2   3
HETATM    3  C   UNL     1      -8.191   4.316  67.011  1.00  0.00    -0.101 C  
BRANCH   3   4
HETATM    4  C   UNL     1      -9.029   4.824  68.179  1.00  0.00    -0.129 C  
BRANCH   4   5
HETATM    5  C   UNL     1      -8.187   4.931  69.419  1.00  0.00    -0.081 C  
HETATM    6  N   UNL     1      -8.697   4.594  70.565  1.00  0.00    -0.099 NA 
HETATM    7  C   UNL     1      -7.584   4.751  71.533  1.00  0.00    -0.079 C  
HETATM    8  C   UNL     1      -6.529   5.489  70.728  1.00  0.00    -0.035 C  
HETATM    9  C   UNL     1      -7.069   3.366  71.941  1.00  0.00    -0.038 C  
HETATM   10  O   UNL     1      -5.545   6.072  71.160  1.00  0.00    -0.017 OA 
HETATM   11  N   UNL     1      -6.910   5.359  69.416  1.00  0.00    -0.055 N  
HETATM   12  C   UNL     1      -6.634   3.562  73.385  1.00  0.00    -0.033 C  
HETATM   13  C   UNL     1      -7.724   4.459  73.949  1.00  0.00    -0.085 C  
HETATM   14  C   UNL     1      -8.046   5.438  72.818  1.00  0.00    -0.109 C  
BRANCH  11  15
HETATM   15  C   UNL     1      -6.052   5.793  68.317  1.00  0.00    -0.018 C  
BRANCH  15  16
HETATM   16  C   UNL     1      -6.168   7.283  68.049  1.00  0.00    -0.039 A  
HETATM   17  C   UNL     1      -5.790   8.219  69.010  1.00  0.00    -0.039 A  
HETATM   18  C   UNL     1      -6.137   9.571  68.872  1.00  0.00    -0.042 A  
HETATM   19  C   UNL     1      -6.816  10.057  67.737  1.00  0.00    -0.076 A  
HETATM   20  C   UNL     1      -6.985   9.140  66.690  1.00  0.00    -0.081 A  
HETATM   21  C   UNL     1      -6.722   7.768  66.858  1.00  0.00    -0.067 A  
BRANCH  19  22
HETATM   22  C   UNL     1      -7.366  11.456  67.715  1.00  0.00    -0.098 A  
HETATM   23  C   UNL     1      -6.477  12.529  67.446  1.00  0.00    -0.153 A  
HETATM   24  C   UNL     1      -6.861  13.874  67.519  1.00  0.00    -0.148 A  
HETATM   25  C   UNL     1      -8.169  14.202  67.822  1.00  0.00    -0.172 A  
HETATM   26  C   UNL     1      -9.087  13.183  68.052  1.00  0.00    -0.207 A  
HETATM   27  C   UNL     1      -8.710  11.814  68.022  1.00  0.00    -0.167 A  
BRANCH  27  28
HETATM   28  C   UNL     1      -9.774  10.872  68.365  1.00  0.00    -0.176 A  
HETATM   29  N   UNL     1     -10.540  10.247  67.446  1.00  0.00    -0.251 NA 
HETATM   30  N   UNL     1     -11.353   9.546  68.248  1.00  0.00    -0.457 NA 
HETATM   31  H   UNL     1     -12.081   8.936  67.879  1.00  0.00     0.000 HD 
HETATM   32  N   UNL     1     -11.152   9.693  69.560  1.00  0.00    -0.207 NA 
HETATM   33  N   UNL     1     -10.162  10.570  69.649  1.00  0.00    -0.207 NA 
ENDBRANCH  27  28
ENDBRANCH  19  22
ENDBRANCH  15  16
ENDBRANCH  11  15
ENDBRANCH   4   5
ENDBRANCH   3   4
ENDBRANCH   2   3
TORSDOF 7
ENDMDL
MODEL      261
REMARK 921   NORMALIZED FREE ENERGY PREDICTED BY IDOCK:   -1.15 KCAL/MOL
REMARK 922        TOTAL FREE ENERGY PREDICTED BY IDOCK:   -3.57 KCAL/MOL
REMARK 923 INTER-LIGAND FREE ENERGY PREDICTED BY IDOCK:   -2.11 KCAL/MOL
REMARK 924 INTRA-LIGAND FREE ENERGY PREDICTED BY IDOCK:   -1.46 KCAL/MOL
REMARK 927      BINDING AFFINITY PREDICTED BY RF-SCORE:    0.00 PKD
ROOT
HETATM    1  C   UNL     1     -12.529  15.319  68.724  1.00  0.00     0.219 C  
HETATM    2  C   UNL     1     -12.541  14.425  69.947  1.00  0.00    -0.217 C  
ENDROOT
BRANCH   2   3
HETATM    3  C   UNL     1     -12.564  12.950  69.556  1.00  0.00     0.350 C  
BRANCH   3   4
HETATM    4  C   UNL     1     -11.337  12.206  70.073  1.00  0.00    -0.028 C  
BRANCH   4   5
HETATM    5  C   UNL     1     -10.166  12.434  69.160  1.00  0.00     0.234 C  
HETATM    6  N   UNL     1      -9.365  13.432  69.390  1.00  0.00     0.798 NA 
HETATM    7  C   UNL     1      -8.305  13.309  68.360  1.00  0.00    -0.131 C  
HETATM    8  C   UNL     1      -8.866  12.261  67.413  1.00  0.00    -0.185 C  
HETATM    9  C   UNL     1      -7.018  12.797  69.016  1.00  0.00    -0.059 C  
HETATM   10  O   UNL     1      -8.484  12.012  66.279  1.00  0.00    -0.066 OA 
HETATM   11  N   UNL     1      -9.886  11.653  68.100  1.00  0.00    -0.185 N  
HETATM   12  C   UNL     1      -5.918  13.470  68.210  1.00  0.00    -0.100 C  
HETATM   13  C   UNL     1      -6.470  14.868  67.986  1.00  0.00    -0.161 C  
HETATM   14  C   UNL     1      -7.965  14.661  67.735  1.00  0.00    -0.166 C  
BRANCH  11  15
HETATM   15  C   UNL     1     -10.566  10.468  67.582  1.00  0.00    -0.250 C  
BRANCH  15  16
HETATM   16  C   UNL     1     -10.226   9.217  68.374  1.00  0.00    -0.231 A  
HETATM   17  C   UNL     1     -11.187   8.573  69.150  1.00  0.00     0.315 A  
HETATM   18  C   UNL     1     -10.818   7.587  70.077  1.00  0.00    -0.260 A  
HETATM   19  C   UNL     1      -9.485   7.154  70.219  1.00  0.00    -0.162 A  
HETATM   20  C   UNL     1      -8.579   7.655  69.274  1.00  0.00    -0.136 A  
HETATM   21  C   UNL     1      -8.922   8.708  68.406  1.00  0.00    -0.142 A  
BRANCH  19  22
HETATM   22  C   UNL     1      -9.087   6.263  71.363  1.00  0.00    -0.143 A  
HETATM   23  C   UNL     1      -9.964   5.211  71.738  1.00  0.00    -0.244 A  
HETATM   24  C   UNL     1      -9.746   4.401  72.859  1.00  0.00    -0.176 A  
HETATM   25  C   UNL     1      -8.614   4.582  73.631  1.00  0.00    -0.103 A  
HETATM   26  C   UNL     1      -7.705   5.573  73.278  1.00  0.00    -0.100 A  
HETATM   27  C   UNL     1      -7.925   6.431  72.169  1.00  0.00    -0.107 A  
BRANCH  27  28
HETATM   28  C   UNL     1      -6.916   7.473  71.982  1.00  0.00    -0.063 A  
HETATM   29  N   UNL     1      -5.772   7.285  71.290  1.00  0.00    -0.035 NA 
HETATM   30  N   UNL     1      -5.202   8.489  71.440  1.00  0.00    -0.032 NA 
HETATM   31  H   UNL     1      -4.296   8.712  71.029  1.00  0.00     0.000 HD 
HETATM   32  N   UNL     1      -5.891   9.379  72.158  1.00  0.00    -0.244 NA 
HETATM   33  N   UNL     1      -6.979   8.727  72.542  1.00  0.00    -0.307 NA 
ENDBRANCH  27  28
ENDBRANCH  19  22
ENDBRANCH  15  16
ENDBRANCH  11  15
ENDBRANCH   4   5
ENDBRANCH   3   4
ENDBRANCH   2   3
TORSDOF 7
ENDMDL
MODEL      262
REMARK 921   NORMALIZED FREE ENERGY PREDICTED BY IDOCK:   -1.04 KCAL/MOL
REMARK 922        TOTAL FREE ENERGY PREDICTED BY IDOCK:   -3.41 KCAL/MOL
REMARK 923 INTER-LIGAND FREE ENERGY PREDICTED BY IDOCK:   -3.88 KCAL/MOL
REMARK 924 INTRA-LIGAND FREE ENERGY PREDICTED BY IDOCK:    0.46 KCAL/MOL
REMARK 927      BINDING AFFINITY PREDICTED BY RF-SCORE:    0.00 PKD
ROOT
HETATM    1  C   UNL     1      -8.199   2.877  73.673  1.00  0.00    -0.072 C  
HETATM    2  C   UNL     1      -7.572   3.607  72.502  1.00  0.00    -0.063 C  
ENDROOT
BRANCH   2   3
HETATM    3  C   UNL     1      -6.835   4.861  72.961  1.00  0.00    -0.072 C  
BRANCH   3   4
HETATM    4  C   UNL     1      -6.627   5.848  71.818  1.00  0.00    -0.054 C  
BRANCH   4   5
HETATM    5  C   UNL     1      -6.800   5.157  70.495  1.00  0.00    -0.044 C  
HETATM    6  N   UNL     1      -7.548   4.097  70.424  1.00  0.00    -0.045 NA 
HETATM    7  C   UNL     1      -7.551   3.733  68.986  1.00  0.00    -0.053 C  
HETATM    8  C   UNL     1      -6.458   4.614  68.406  1.00  0.00    -0.037 C  
HETATM    9  C   UNL     1      -8.908   4.098  68.374  1.00  0.00    -0.136 C  
HETATM   10  O   UNL     1      -5.910   4.491  67.321  1.00  0.00    -0.021 OA 
HETATM   11  N   UNL     1      -6.220   5.577  69.354  1.00  0.00    -0.028 N  
HETATM   12  C   UNL     1      -9.119   3.028  67.316  1.00  0.00    -0.203 C  
HETATM   13  C   UNL     1      -8.605   1.770  67.998  1.00  0.00    -0.099 C  
HETATM   14  C   UNL     1      -7.375   2.229  68.784  1.00  0.00    -0.044 C  
BRANCH  11  15
HETATM   15  C   UNL     1      -5.347   6.718  69.092  1.00  0.00    -0.014 C  
BRANCH  15  16
HETATM   16  C   UNL     1      -6.104   7.903  68.518  1.00  0.00    -0.040 A  
HETATM   17  C   UNL     1      -6.475   8.979  69.321  1.00  0.00    -0.045 A  
HETATM   18  C   UNL     1      -7.390   9.938  68.861  1.00  0.00    -0.078 A  
HETATM   19  C   UNL     1      -7.920   9.900  67.556  1.00  0.00    -0.106 A  
HETATM   20  C   UNL     1      -7.361   8.941  66.700  1.00  0.00    -0.085 A  
HETATM   21  C   UNL     1      -6.515   7.924  67.180  1.00  0.00    -0.056 A  
BRANCH  19  22
HETATM   22  C   UNL     1      -9.056  10.804  67.166  1.00  0.00    -0.153 A  
HETATM   23  C   UNL     1      -8.861  11.711  66.091  1.00  0.00    -0.139 A  
HETATM   24  C   UNL     1      -9.809  12.674  65.726  1.00  0.00    -0.236 A  
HETATM   25  C   UNL     1     -11.017  12.742  66.395  1.00  0.00    -0.305 A  
HETATM   26  C   UNL     1     -11.270  11.847  67.428  1.00  0.00    -0.366 A  
HETATM   27  C   UNL     1     -10.307  10.888  67.841  1.00  0.00    -0.216 A  
BRANCH  27  28
HETATM   28  C   UNL     1     -10.696  10.077  68.994  1.00  0.00    -0.220 A  
HETATM   29  N   UNL     1     -11.158   8.812  68.892  1.00  0.00     0.121 NA 
HETATM   30  N   UNL     1     -11.393   8.539  70.183  1.00  0.00    -0.438 NA 
HETATM   31  H   UNL     1     -11.757   7.636  70.486  1.00  0.00     0.000 HD 
HETATM   32  N   UNL     1     -11.123   9.519  71.048  1.00  0.00    -0.333 NA 
HETATM   33  N   UNL     1     -10.707  10.526  70.293  1.00  0.00    -0.195 NA 
ENDBRANCH  27  28
ENDBRANCH  19  22
ENDBRANCH  15  16
ENDBRANCH  11  15
ENDBRANCH   4   5
ENDBRANCH   3   4
ENDBRANCH   2   3
TORSDOF 7
ENDMDL
MODEL      263
REMARK 921   NORMALIZED FREE ENERGY PREDICTED BY IDOCK:   -0.80 KCAL/MOL
REMARK 922        TOTAL FREE ENERGY PREDICTED BY IDOCK:   -3.08 KCAL/MOL
REMARK 923 INTER-LIGAND FREE ENERGY PREDICTED BY IDOCK:   -5.70 KCAL/MOL
REMARK 924 INTRA-LIGAND FREE ENERGY PREDICTED BY IDOCK:    2.62 KCAL/MOL
REMARK 927      BINDING AFFINITY PREDICTED BY RF-SCORE:    0.00 PKD
ROOT
HETATM    1  C   UNL     1     -10.683  20.240  65.299  1.00  0.00     0.134 C  
HETATM    2  C   UNL     1      -9.864  19.281  66.139  1.00  0.00    -0.429 C  
ENDROOT
BRANCH   2   3
HETATM    3  C   UNL     1      -8.440  19.154  65.606  1.00  0.00     0.467 C  
BRANCH   3   4
HETATM    4  C   UNL     1      -7.955  17.708  65.621  1.00  0.00     0.378 C  
BRANCH   4   5
HETATM    5  C   UNL     1      -7.805  17.223  67.035  1.00  0.00    -0.214 C  
HETATM    6  N   UNL     1      -6.616  17.107  67.544  1.00  0.00    -0.133 NA 
HETATM    7  C   UNL     1      -6.846  16.685  68.948  1.00  0.00    -0.191 C  
HETATM    8  C   UNL     1      -8.325  16.337  68.963  1.00  0.00    -0.239 C  
HETATM    9  C   UNL     1      -6.569  17.866  69.884  1.00  0.00     0.151 C  
HETATM   10  O   UNL     1      -8.923  15.697  69.815  1.00  0.00    -0.222 OA 
HETATM   11  N   UNL     1      -8.846  16.896  67.824  1.00  0.00    -0.215 N  
HETATM   12  C   UNL     1      -6.021  17.202  71.137  1.00  0.00     1.078 C  
HETATM   13  C   UNL     1      -5.131  16.104  70.579  1.00  0.00    -0.185 C  
HETATM   14  C   UNL     1      -5.892  15.567  69.365  1.00  0.00    -0.115 C  
BRANCH  11  15
HETATM   15  C   UNL     1     -10.284  16.924  67.566  1.00  0.00    -0.295 C  
BRANCH  15  16
HETATM   16  C   UNL     1     -10.989  15.692  68.105  1.00  0.00    -0.314 A  
HETATM   17  C   UNL     1     -11.977  15.796  69.083  1.00  0.00    -0.312 A  
HETATM   18  C   UNL     1     -12.437  14.660  69.763  1.00  0.00    -0.247 A  
HETATM   19  C   UNL     1     -11.982  13.363  69.449  1.00  0.00    -0.369 A  
HETATM   20  C   UNL     1     -11.162  13.265  68.317  1.00  0.00    -0.309 A  
HETATM   21  C   UNL     1     -10.626  14.405  67.690  1.00  0.00    -0.260 A  
BRANCH  19  22
HETATM   22  C   UNL     1     -12.324  12.197  70.334  1.00  0.00    -0.315 A  
HETATM   23  C   UNL     1     -12.070  10.886  69.854  1.00  0.00    -0.428 A  
HETATM   24  C   UNL     1     -12.459   9.732  70.546  1.00  0.00    -0.129 A  
HETATM   25  C   UNL     1     -13.082   9.842  71.775  1.00  0.00    -0.553 A  
HETATM   26  C   UNL     1     -13.314  11.107  72.306  1.00  0.00    -0.080 A  
HETATM   27  C   UNL     1     -12.964  12.290  71.603  1.00  0.00    -0.416 A  
BRANCH  27  28
HETATM   28  C   UNL     1     -13.349  13.538  72.261  1.00  0.00    -0.531 A  
HETATM   29  N   UNL     1     -14.256  14.399  71.753  1.00  0.00    -0.475 NA 
HETATM   30  N   UNL     1     -14.222  15.360  72.685  1.00  0.00    -0.422 NA 
HETATM   31  H   UNL     1     -14.806  16.194  72.623  1.00  0.00     0.000 HD 
HETATM   32  N   UNL     1     -13.379  15.163  73.701  1.00  0.00    -0.309 NA 
HETATM   33  N   UNL     1     -12.785  14.011  73.423  1.00  0.00    -0.202 NA 
ENDBRANCH  27  28
ENDBRANCH  19  22
ENDBRANCH  15  16
ENDBRANCH  11  15
ENDBRANCH   4   5
ENDBRANCH   3   4
ENDBRANCH   2   3
TORSDOF 7
ENDMDL
MODEL      264
REMARK 921   NORMALIZED FREE ENERGY PREDICTED BY IDOCK:   -0.50 KCAL/MOL
REMARK 922        TOTAL FREE ENERGY PREDICTED BY IDOCK:   -2.65 KCAL/MOL
REMARK 923 INTER-LIGAND FREE ENERGY PREDICTED BY IDOCK:   -1.48 KCAL/MOL
REMARK 924 INTRA-LIGAND FREE ENERGY PREDICTED BY IDOCK:   -1.17 KCAL/MOL
REMARK 927      BINDING AFFINITY PREDICTED BY RF-SCORE:    0.00 PKD
ROOT
HETATM    1  C   UNL     1     -12.125  20.428  65.876  1.00  0.00     3.652 C  
HETATM    2  C   UNL     1     -10.782  19.884  65.430  1.00  0.00    -0.180 C  
ENDROOT
BRANCH   2   3
HETATM    3  C   UNL     1     -10.038  19.227  66.588  1.00  0.00    -0.487 C  
BRANCH   3   4
HETATM    4  C   UNL     1      -8.849  18.403  66.105  1.00  0.00    -0.117 C  
BRANCH   4   5
HETATM    5  C   UNL     1      -7.768  18.385  67.150  1.00  0.00    -0.224 C  
HETATM    6  N   UNL     1      -7.424  19.497  67.727  1.00  0.00    -0.262 NA 
HETATM    7  C   UNL     1      -6.407  19.100  68.732  1.00  0.00    -0.247 C  
HETATM    8  C   UNL     1      -6.101  17.659  68.360  1.00  0.00    -0.175 C  
HETATM    9  C   UNL     1      -7.026  19.167  70.133  1.00  0.00     0.334 C  
HETATM   10  O   UNL     1      -5.145  16.991  68.725  1.00  0.00    -0.128 OA 
HETATM   11  N   UNL     1      -7.124  17.267  67.533  1.00  0.00    -0.158 N  
HETATM   12  C   UNL     1      -5.858  19.576  71.016  1.00  0.00    -0.173 C  
HETATM   13  C   UNL     1      -5.132  20.604  70.164  1.00  0.00    -0.341 C  
HETATM   14  C   UNL     1      -5.216  20.056  68.738  1.00  0.00    -0.221 C  
BRANCH  11  15
HETATM   15  C   UNL     1      -7.276  15.881  67.098  1.00  0.00    -0.219 C  
BRANCH  15  16
HETATM   16  C   UNL     1      -8.443  15.189  67.779  1.00  0.00    -0.156 A  
HETATM   17  C   UNL     1      -8.403  14.875  69.136  1.00  0.00    -0.150 A  
HETATM   18  C   UNL     1      -9.353  14.012  69.703  1.00  0.00     0.942 A  
HETATM   19  C   UNL     1     -10.423  13.481  68.955  1.00  0.00    -0.145 A  
HETATM   20  C   UNL     1     -10.567  13.989  67.656  1.00  0.00    -0.249 A  
HETATM   21  C   UNL     1      -9.570  14.780  67.055  1.00  0.00    -0.248 A  
BRANCH  19  22
HETATM   22  C   UNL     1     -11.291  12.395  69.525  1.00  0.00    -0.250 A  
HETATM   23  C   UNL     1     -12.082  12.690  70.666  1.00  0.00    -0.315 A  
HETATM   24  C   UNL     1     -12.832  11.722  71.344  1.00  0.00    -0.440 A  
HETATM   25  C   UNL     1     -12.857  10.420  70.882  1.00  0.00    -0.482 A  
HETATM   26  C   UNL     1     -12.130  10.092  69.742  1.00  0.00     0.044 A  
HETATM   27  C   UNL     1     -11.332  11.049  69.062  1.00  0.00    -0.345 A  
BRANCH  27  28
HETATM   28  C   UNL     1     -10.566  10.526  67.932  1.00  0.00    -0.232 A  
HETATM   29  N   UNL     1      -9.259  10.796  67.728  1.00  0.00    -0.150 NA 
HETATM   30  N   UNL     1      -9.053  10.132  66.583  1.00  0.00    -0.143 NA 
HETATM   31  H   UNL     1      -8.142  10.115  66.126  1.00  0.00     0.000 HD 
HETATM   32  N   UNL     1     -10.110   9.493  66.077  1.00  0.00    -0.283 NA 
HETATM   33  N   UNL     1     -11.099   9.767  66.916  1.00  0.00     0.068 NA 
ENDBRANCH  27  28
ENDBRANCH  19  22
ENDBRANCH  15  16
ENDBRANCH  11  15
ENDBRANCH   4   5
ENDBRANCH   3   4
ENDBRANCH   2   3
TORSDOF 7
ENDMDL
MODEL      265
REMARK 921   NORMALIZED FREE ENERGY PREDICTED BY IDOCK:   -0.47 KCAL/MOL
REMARK 922        TOTAL FREE ENERGY PREDICTED BY IDOCK:   -2.61 KCAL/MOL
REMARK 923 INTER-LIGAND FREE ENERGY PREDICTED BY IDOCK:   -2.26 KCAL/MOL
REMARK 924 INTRA-LIGAND FREE ENERGY PREDICTED BY IDOCK:   -0.35 KCAL/MOL
REMARK 927      BINDING AFFINITY PREDICTED BY RF-SCORE:    0.00 PKD
ROOT
HETATM    1  C   UNL     1     -11.926  10.157  68.017  1.00  0.00     1.331 C  
HETATM    2  C   UNL     1     -11.585   8.903  68.795  1.00  0.00     1.006 C  
ENDROOT
BRANCH   2   3
HETATM    3  C   UNL     1     -11.114   7.786  67.869  1.00  0.00     0.214 C  
BRANCH   3   4
HETATM    4  C   UNL     1     -10.262   8.321  66.722  1.00  0.00    -0.375 C  
BRANCH   4   5
HETATM    5  C   UNL     1      -8.931   7.624  66.692  1.00  0.00    -0.156 C  
HETATM    6  N   UNL     1      -8.701   6.732  65.776  1.00  0.00    -0.141 NA 
HETATM    7  C   UNL     1      -7.294   6.317  66.000  1.00  0.00    -0.080 C  
HETATM    8  C   UNL     1      -6.963   6.937  67.347  1.00  0.00    -0.079 C  
HETATM    9  C   UNL     1      -6.407   6.920  64.905  1.00  0.00    -0.039 C  
HETATM   10  O   UNL     1      -6.019   6.662  68.073  1.00  0.00    -0.022 OA 
HETATM   11  N   UNL     1      -7.942   7.871  67.572  1.00  0.00    -0.121 N  
HETATM   12  C   UNL     1      -5.326   5.870  64.707  1.00  0.00    -0.016 C  
HETATM   13  C   UNL     1      -6.100   4.565  64.798  1.00  0.00    -0.026 C  
HETATM   14  C   UNL     1      -7.131   4.801  65.903  1.00  0.00    -0.071 C  
BRANCH  11  15
HETATM   15  C   UNL     1      -7.875   8.803  68.695  1.00  0.00    -0.103 C  
BRANCH  15  16
HETATM   16  C   UNL     1      -7.722  10.244  68.240  1.00  0.00    -0.092 A  
HETATM   17  C   UNL     1      -7.534  11.274  69.160  1.00  0.00    -0.084 A  
HETATM   18  C   UNL     1      -7.656  12.616  68.770  1.00  0.00    -0.022 A  
HETATM   19  C   UNL     1      -7.901  12.988  67.434  1.00  0.00    -0.166 A  
HETATM   20  C   UNL     1      -7.862  11.947  66.495  1.00  0.00     0.076 A  
HETATM   21  C   UNL     1      -7.833  10.597  66.889  1.00  0.00    -0.121 A  
BRANCH  19  22
HETATM   22  C   UNL     1      -8.243  14.410  67.086  1.00  0.00    -0.202 A  
HETATM   23  C   UNL     1      -7.219  15.390  67.160  1.00  0.00    -0.179 A  
HETATM   24  C   UNL     1      -7.457  16.757  66.973  1.00  0.00    -0.236 A  
HETATM   25  C   UNL     1      -8.728  17.199  66.658  1.00  0.00    -0.281 A  
HETATM   26  C   UNL     1      -9.756  16.270  66.533  1.00  0.00    -0.281 A  
HETATM   27  C   UNL     1      -9.545  14.884  66.758  1.00  0.00    -0.265 A  
BRANCH  27  28
HETATM   28  C   UNL     1     -10.744  14.053  66.667  1.00  0.00    -0.281 A  
HETATM   29  N   UNL     1     -11.901  14.341  67.300  1.00  0.00    -0.401 NA 
HETATM   30  N   UNL     1     -12.644  13.289  66.931  1.00  0.00    -0.131 NA 
HETATM   31  H   UNL     1     -13.611  13.179  67.235  1.00  0.00     0.000 HD 
HETATM   32  N   UNL     1     -12.044  12.394  66.143  1.00  0.00    -0.641 NA 
HETATM   33  N   UNL     1     -10.811  12.855  65.994  1.00  0.00    -0.276 NA 
ENDBRANCH  27  28
ENDBRANCH  19  22
ENDBRANCH  15  16
ENDBRANCH  11  15
ENDBRANCH   4   5
ENDBRANCH   3   4
ENDBRANCH   2   3
TORSDOF 7
ENDMDL
MODEL      266
REMARK 921   NORMALIZED FREE ENERGY PREDICTED BY IDOCK:   -0.18 KCAL/MOL
REMARK 922        TOTAL FREE ENERGY PREDICTED BY IDOCK:   -2.20 KCAL/MOL
REMARK 923 INTER-LIGAND FREE ENERGY PREDICTED BY IDOCK:   -2.49 KCAL/MOL
REMARK 924 INTRA-LIGAND FREE ENERGY PREDICTED BY IDOCK:    0.29 KCAL/MOL
REMARK 927      BINDING AFFINITY PREDICTED BY RF-SCORE:    0.00 PKD
ROOT
HETATM    1  C   UNL     1     -11.382   7.341  66.782  1.00  0.00     0.858 C  
HETATM    2  C   UNL     1     -11.367   6.769  68.185  1.00  0.00    -0.022 C  
ENDROOT
BRANCH   2   3
HETATM    3  C   UNL     1     -10.414   5.581  68.289  1.00  0.00    -0.225 C  
BRANCH   3   4
HETATM    4  C   UNL     1      -9.006   6.015  68.682  1.00  0.00    -0.118 C  
BRANCH   4   5
HETATM    5  C   UNL     1      -8.966   6.396  70.136  1.00  0.00    -0.154 C  
HETATM    6  N   UNL     1      -8.717   5.482  71.025  1.00  0.00    -0.128 NA 
HETATM    7  C   UNL     1      -8.681   6.213  72.316  1.00  0.00    -0.137 C  
HETATM    8  C   UNL     1      -9.233   7.581  71.952  1.00  0.00    -0.132 C  
HETATM    9  C   UNL     1      -7.228   6.336  72.789  1.00  0.00    -0.087 C  
HETATM   10  O   UNL     1      -9.641   8.440  72.720  1.00  0.00    -0.275 OA 
HETATM   11  N   UNL     1      -9.173   7.649  70.583  1.00  0.00    -0.161 N  
HETATM   12  C   UNL     1      -7.343   6.283  74.303  1.00  0.00    -0.089 C  
HETATM   13  C   UNL     1      -8.409   5.223  74.526  1.00  0.00    -0.103 C  
HETATM   14  C   UNL     1      -9.432   5.459  73.413  1.00  0.00    -0.137 C  
BRANCH  11  15
HETATM   15  C   UNL     1      -9.460   8.885  69.859  1.00  0.00    -0.170 C  
BRANCH  15  16
HETATM   16  C   UNL     1      -8.447   9.158  68.761  1.00  0.00    -0.130 A  
HETATM   17  C   UNL     1      -8.504  10.326  68.002  1.00  0.00    -0.118 A  
HETATM   18  C   UNL     1      -7.745  10.459  66.830  1.00  0.00    -0.111 A  
HETATM   19  C   UNL     1      -6.845   9.462  66.404  1.00  0.00    -0.083 A  
HETATM   20  C   UNL     1      -6.642   8.402  67.299  1.00  0.00    -0.059 A  
HETATM   21  C   UNL     1      -7.464   8.219  68.426  1.00  0.00    -0.096 A  
BRANCH  19  22
HETATM   22  C   UNL     1      -6.214   9.532  65.041  1.00  0.00    -0.078 A  
HETATM   23  C   UNL     1      -5.632  10.759  64.628  1.00  0.00    -0.010 A  
HETATM   24  C   UNL     1      -5.125  10.966  63.339  1.00  0.00    -0.138 A  
HETATM   25  C   UNL     1      -5.140   9.935  62.418  1.00  0.00    -0.085 A  
HETATM   26  C   UNL     1      -5.663   8.702  62.791  1.00  0.00    -0.082 A  
HETATM   27  C   UNL     1      -6.217   8.481  64.080  1.00  0.00    -0.071 A  
BRANCH  27  28
HETATM   28  C   UNL     1      -6.798   7.156  64.286  1.00  0.00    -0.047 A  
HETATM   29  N   UNL     1      -6.064   6.026  64.374  1.00  0.00    -0.025 NA 
HETATM   30  N   UNL     1      -7.038   5.119  64.522  1.00  0.00    -0.053 NA 
HETATM   31  H   UNL     1      -6.838   4.124  64.626  1.00  0.00     0.000 HD 
HETATM   32  N   UNL     1      -8.286   5.593  64.526  1.00  0.00    -0.131 NA 
HETATM   33  N   UNL     1      -8.148   6.898  64.340  1.00  0.00    -0.095 NA 
ENDBRANCH  27  28
ENDBRANCH  19  22
ENDBRANCH  15  16
ENDBRANCH  11  15
ENDBRANCH   4   5
ENDBRANCH   3   4
ENDBRANCH   2   3
TORSDOF 7
ENDMDL
MODEL      267
REMARK 921   NORMALIZED FREE ENERGY PREDICTED BY IDOCK:    0.07 KCAL/MOL
REMARK 922        TOTAL FREE ENERGY PREDICTED BY IDOCK:   -1.85 KCAL/MOL
REMARK 923 INTER-LIGAND FREE ENERGY PREDICTED BY IDOCK:   -1.90 KCAL/MOL
REMARK 924 INTRA-LIGAND FREE ENERGY PREDICTED BY IDOCK:    0.05 KCAL/MOL
REMARK 927      BINDING AFFINITY PREDICTED BY RF-SCORE:    0.00 PKD
ROOT
HETATM    1  C   UNL     1     -11.339   7.275  66.771  1.00  0.00     0.858 C  
HETATM    2  C   UNL     1     -11.236   6.604  68.126  1.00  0.00    -0.207 C  
ENDROOT
BRANCH   2   3
HETATM    3  C   UNL     1     -10.359   5.357  68.063  1.00  0.00    -0.215 C  
BRANCH   3   4
HETATM    4  C   UNL     1      -8.878   5.697  68.197  1.00  0.00    -0.108 C  
BRANCH   4   5
HETATM    5  C   UNL     1      -8.291   5.005  69.396  1.00  0.00    -0.085 C  
HETATM    6  N   UNL     1      -7.679   3.870  69.238  1.00  0.00    -0.053 NA 
HETATM    7  C   UNL     1      -7.175   3.524  70.590  1.00  0.00    -0.037 C  
HETATM    8  C   UNL     1      -7.881   4.526  71.487  1.00  0.00    -0.087 C  
HETATM    9  C   UNL     1      -5.658   3.745  70.636  1.00  0.00    -0.013 C  
HETATM   10  O   UNL     1      -7.992   4.476  72.703  1.00  0.00    -0.085 OA 
HETATM   11  N   UNL     1      -8.360   5.499  70.647  1.00  0.00    -0.115 N  
HETATM   12  C   UNL     1      -5.174   2.670  71.595  1.00  0.00    -0.004 C  
HETATM   13  C   UNL     1      -6.025   1.469  71.217  1.00  0.00    -0.013 C  
HETATM   14  C   UNL     1      -7.408   2.051  70.919  1.00  0.00    -0.033 C  
BRANCH  11  15
HETATM   15  C   UNL     1      -8.956   6.732  71.154  1.00  0.00    -0.147 C  
BRANCH  15  16
HETATM   16  C   UNL     1      -8.362   7.969  70.505  1.00  0.00    -0.123 A  
HETATM   17  C   UNL     1      -8.293   9.181  71.191  1.00  0.00    -0.157 A  
HETATM   18  C   UNL     1      -7.993  10.373  70.515  1.00  0.00     0.907 A  
HETATM   19  C   UNL     1      -7.681  10.397  69.142  1.00  0.00    -0.126 A  
HETATM   20  C   UNL     1      -7.538   9.144  68.529  1.00  0.00    -0.085 A  
HETATM   21  C   UNL     1      -7.926   7.956  69.175  1.00  0.00    -0.118 A  
BRANCH  19  22
HETATM   22  C   UNL     1      -7.581  11.702  68.402  1.00  0.00    -0.126 A  
HETATM   23  C   UNL     1      -6.292  12.191  68.065  1.00  0.00    -0.068 A  
HETATM   24  C   UNL     1      -6.082  13.448  67.484  1.00  0.00    -0.074 A  
HETATM   25  C   UNL     1      -7.162  14.254  67.175  1.00  0.00     0.187 A  
HETATM   26  C   UNL     1      -8.447  13.799  67.449  1.00  0.00    -0.209 A  
HETATM   27  C   UNL     1      -8.681  12.545  68.074  1.00  0.00    -0.186 A  
BRANCH  27  28
HETATM   28  C   UNL     1     -10.082  12.251  68.367  1.00  0.00    -0.215 A  
HETATM   29  N   UNL     1     -10.832  12.977  69.224  1.00  0.00    -0.075 NA 
HETATM   30  N   UNL     1     -11.987  12.298  69.165  1.00  0.00    -0.282 NA 
HETATM   31  H   UNL     1     -12.806  12.579  69.703  1.00  0.00     0.000 HD 
HETATM   32  N   UNL     1     -12.001  11.233  68.360  1.00  0.00    -0.603 NA 
HETATM   33  N   UNL     1     -10.771  11.171  67.868  1.00  0.00    -0.202 NA 
ENDBRANCH  27  28
ENDBRANCH  19  22
ENDBRANCH  15  16
ENDBRANCH  11  15
ENDBRANCH   4   5
ENDBRANCH   3   4
ENDBRANCH   2   3
TORSDOF 7
ENDMDL
MODEL      268
REMARK 921   NORMALIZED FREE ENERGY PREDICTED BY IDOCK:    0.17 KCAL/MOL
REMARK 922        TOTAL FREE ENERGY PREDICTED BY IDOCK:   -1.71 KCAL/MOL
REMARK 923 INTER-LIGAND FREE ENERGY PREDICTED BY IDOCK:   -4.79 KCAL/MOL
REMARK 924 INTRA-LIGAND FREE ENERGY PREDICTED BY IDOCK:    3.08 KCAL/MOL
REMARK 927      BINDING AFFINITY PREDICTED BY RF-SCORE:    0.00 PKD
ROOT
HETATM    1  C   UNL     1     -10.679  20.241  65.297  1.00  0.00     0.134 C  
HETATM    2  C   UNL     1      -9.873  19.264  66.129  1.00  0.00    -0.429 C  
ENDROOT
BRANCH   2   3
HETATM    3  C   UNL     1      -8.449  19.127  65.598  1.00  0.00     0.467 C  
BRANCH   3   4
HETATM    4  C   UNL     1      -7.982  17.675  65.593  1.00  0.00     0.378 C  
BRANCH   4   5
HETATM    5  C   UNL     1      -7.829  17.172  67.001  1.00  0.00    -0.198 C  
HETATM    6  N   UNL     1      -6.638  17.037  67.501  1.00  0.00    -0.138 NA 
HETATM    7  C   UNL     1      -6.865  16.601  68.901  1.00  0.00    -0.191 C  
HETATM    8  C   UNL     1      -8.348  16.270  68.922  1.00  0.00    -0.231 C  
HETATM    9  C   UNL     1      -6.568  17.769  69.849  1.00  0.00     0.159 C  
HETATM   10  O   UNL     1      -8.948  15.628  69.771  1.00  0.00    -0.222 OA 
HETATM   11  N   UNL     1      -8.869  16.849  67.792  1.00  0.00    -0.215 N  
HETATM   12  C   UNL     1      -6.021  17.085  71.091  1.00  0.00     1.065 C  
HETATM   13  C   UNL     1      -5.147  15.983  70.515  1.00  0.00    -0.175 C  
HETATM   14  C   UNL     1      -5.922  15.468  69.300  1.00  0.00    -0.112 C  
BRANCH  11  15
HETATM   15  C   UNL     1     -10.308  16.896  67.544  1.00  0.00    -0.318 C  
BRANCH  15  16
HETATM   16  C   UNL     1     -11.024  15.664  68.068  1.00  0.00    -0.318 A  
HETATM   17  C   UNL     1     -12.004  15.765  69.054  1.00  0.00    -0.294 A  
HETATM   18  C   UNL     1     -12.473  14.623  69.720  1.00  0.00    -0.247 A  
HETATM   19  C   UNL     1     -12.034  13.327  69.384  1.00  0.00    -0.356 A  
HETATM   20  C   UNL     1     -11.222  13.236  68.245  1.00  0.00    -0.309 A  
HETATM   21  C   UNL     1     -10.678  14.379  67.632  1.00  0.00    -0.263 A  
BRANCH  19  22
HETATM   22  C   UNL     1     -12.384  12.151  70.253  1.00  0.00    -0.269 A  
HETATM   23  C   UNL     1     -13.094  12.388  71.459  1.00  0.00    -0.362 A  
HETATM   24  C   UNL     1     -13.364  11.382  72.395  1.00  0.00     0.202 A  
HETATM   25  C   UNL     1     -12.971  10.082  72.142  1.00  0.00    -0.460 A  
HETATM   26  C   UNL     1     -12.308   9.793  70.954  1.00  0.00    -0.379 A  
HETATM   27  C   UNL     1     -11.989  10.804  70.010  1.00  0.00    -0.427 A  
BRANCH  27  28
HETATM   28  C   UNL     1     -11.219  10.351  68.853  1.00  0.00    -0.235 A  
HETATM   29  N   UNL     1     -11.400  10.830  67.603  1.00  0.00    -0.460 NA 
HETATM   30  N   UNL     1     -10.506  10.092  66.932  1.00  0.00    -0.233 NA 
HETATM   31  H   UNL     1     -10.365  10.195  65.927  1.00  0.00     0.000 HD 
HETATM   32  N   UNL     1      -9.810   9.212  67.656  1.00  0.00    -0.163 NA 
HETATM   33  N   UNL     1     -10.284   9.344  68.887  1.00  0.00    -0.194 NA 
ENDBRANCH  27  28
ENDBRANCH  19  22
ENDBRANCH  15  16
ENDBRANCH  11  15
ENDBRANCH   4   5
ENDBRANCH   3   4
ENDBRANCH   2   3
TORSDOF 7
ENDMDL
MODEL      269
REMARK 921   NORMALIZED FREE ENERGY PREDICTED BY IDOCK:    0.24 KCAL/MOL
REMARK 922        TOTAL FREE ENERGY PREDICTED BY IDOCK:   -1.61 KCAL/MOL
REMARK 923 INTER-LIGAND FREE ENERGY PREDICTED BY IDOCK:   -2.44 KCAL/MOL
REMARK 924 INTRA-LIGAND FREE ENERGY PREDICTED BY IDOCK:    0.83 KCAL/MOL
REMARK 927      BINDING AFFINITY PREDICTED BY RF-SCORE:    0.00 PKD
ROOT
HETATM    1  C   UNL     1      -9.199   6.248  67.846  1.00  0.00    -0.116 C  
HETATM    2  C   UNL     1      -9.120   5.003  66.986  1.00  0.00    -0.117 C  
ENDROOT
BRANCH   2   3
HETATM    3  C   UNL     1      -7.939   4.124  67.387  1.00  0.00    -0.092 C  
BRANCH   3   4
HETATM    4  C   UNL     1      -8.388   2.886  68.155  1.00  0.00    -0.095 C  
BRANCH   4   5
HETATM    5  C   UNL     1      -8.416   3.170  69.631  1.00  0.00    -0.061 C  
HETATM    6  N   UNL     1      -9.439   2.785  70.333  1.00  0.00    -0.144 NA 
HETATM    7  C   UNL     1      -9.099   3.156  71.729  1.00  0.00    -0.104 C  
HETATM    8  C   UNL     1      -7.874   4.039  71.561  1.00  0.00    -0.065 C  
HETATM    9  C   UNL     1      -8.738   1.891  72.516  1.00  0.00    -0.071 C  
HETATM   10  O   UNL     1      -7.389   4.792  72.392  1.00  0.00    -0.078 OA 
HETATM   11  N   UNL     1      -7.427   3.808  70.285  1.00  0.00    -0.041 N  
HETATM   12  C   UNL     1      -9.225   2.199  73.923  1.00  0.00    -0.083 C  
HETATM   13  C   UNL     1     -10.543   2.915  73.677  1.00  0.00    -0.262 C  
HETATM   14  C   UNL     1     -10.287   3.791  72.449  1.00  0.00    -0.185 C  
BRANCH  11  15
HETATM   15  C   UNL     1      -6.159   4.350  69.802  1.00  0.00    -0.022 C  
BRANCH  15  16
HETATM   16  C   UNL     1      -6.181   5.865  69.701  1.00  0.00    -0.030 A  
HETATM   17  C   UNL     1      -7.265   6.603  70.174  1.00  0.00    -0.080 A  
HETATM   18  C   UNL     1      -7.407   7.960  69.849  1.00  0.00    -0.075 A  
HETATM   19  C   UNL     1      -6.439   8.655  69.097  1.00  0.00    -0.043 A  
HETATM   20  C   UNL     1      -5.258   7.950  68.826  1.00  0.00    -0.026 A  
HETATM   21  C   UNL     1      -5.149   6.568  69.069  1.00  0.00    -0.012 A  
BRANCH  19  22
HETATM   22  C   UNL     1      -6.720  10.038  68.580  1.00  0.00    -0.053 A  
HETATM   23  C   UNL     1      -7.054  11.054  69.513  1.00  0.00    -0.113 A  
HETATM   24  C   UNL     1      -7.448  12.342  69.129  1.00  0.00     0.145 A  
HETATM   25  C   UNL     1      -7.482  12.682  67.790  1.00  0.00    -0.131 A  
HETATM   26  C   UNL     1      -7.122  11.731  66.840  1.00  0.00    -0.097 A  
HETATM   27  C   UNL     1      -6.758  10.408  67.205  1.00  0.00    -0.076 A  
BRANCH  27  28
HETATM   28  C   UNL     1      -6.487   9.509  66.085  1.00  0.00    -0.070 A  
HETATM   29  N   UNL     1      -5.858   9.896  64.955  1.00  0.00    -0.085 NA 
HETATM   30  N   UNL     1      -5.890   8.751  64.260  1.00  0.00    -0.065 NA 
HETATM   31  H   UNL     1      -5.485   8.674  63.327  1.00  0.00     0.000 HD 
HETATM   32  N   UNL     1      -6.482   7.716  64.860  1.00  0.00    -0.041 NA 
HETATM   33  N   UNL     1      -6.902   8.200  66.021  1.00  0.00    -0.057 NA 
ENDBRANCH  27  28
ENDBRANCH  19  22
ENDBRANCH  15  16
ENDBRANCH  11  15
ENDBRANCH   4   5
ENDBRANCH   3   4
ENDBRANCH   2   3
TORSDOF 7
ENDMDL
MODEL      270
REMARK 921   NORMALIZED FREE ENERGY PREDICTED BY IDOCK:    0.56 KCAL/MOL
REMARK 922        TOTAL FREE ENERGY PREDICTED BY IDOCK:   -1.15 KCAL/MOL
REMARK 923 INTER-LIGAND FREE ENERGY PREDICTED BY IDOCK:    0.11 KCAL/MOL
REMARK 924 INTRA-LIGAND FREE ENERGY PREDICTED BY IDOCK:   -1.26 KCAL/MOL
REMARK 927      BINDING AFFINITY PREDICTED BY RF-SCORE:    0.00 PKD
ROOT
HETATM    1  C   UNL     1      -7.131  14.366  70.933  1.00  0.00     1.072 C  
HETATM    2  C   UNL     1      -6.380  13.075  70.674  1.00  0.00     0.447 C  
ENDROOT
BRANCH   2   3
HETATM    3  C   UNL     1      -6.480  12.660  69.209  1.00  0.00    -0.106 C  
BRANCH   3   4
HETATM    4  C   UNL     1      -5.673  11.399  68.920  1.00  0.00    -0.043 C  
BRANCH   4   5
HETATM    5  C   UNL     1      -6.083  10.293  69.852  1.00  0.00    -0.062 C  
HETATM    6  N   UNL     1      -5.277   9.934  70.806  1.00  0.00    -0.045 NA 
HETATM    7  C   UNL     1      -6.022   8.894  71.556  1.00  0.00    -0.061 C  
HETATM    8  C   UNL     1      -7.205   8.597  70.651  1.00  0.00    -0.058 C  
HETATM    9  C   UNL     1      -6.506   9.479  72.888  1.00  0.00     0.719 C  
HETATM   10  O   UNL     1      -7.955   7.634  70.709  1.00  0.00    -0.098 OA 
HETATM   11  N   UNL     1      -7.257   9.640  69.761  1.00  0.00    -0.080 N  
HETATM   12  C   UNL     1      -6.459   8.290  73.834  1.00  0.00    -0.139 C  
HETATM   13  C   UNL     1      -5.176   7.583  73.429  1.00  0.00    -0.041 C  
HETATM   14  C   UNL     1      -5.131   7.702  71.904  1.00  0.00    -0.035 C  
BRANCH  11  15
HETATM   15  C   UNL     1      -8.370   9.804  68.828  1.00  0.00    -0.113 C  
BRANCH  15  16
HETATM   16  C   UNL     1      -8.198   8.966  67.574  1.00  0.00    -0.109 A  
HETATM   17  C   UNL     1      -9.297   8.409  66.923  1.00  0.00    -0.221 A  
HETATM   18  C   UNL     1      -9.126   7.431  65.932  1.00  0.00    -0.073 A  
HETATM   19  C   UNL     1      -7.850   7.018  65.501  1.00  0.00    -0.115 A  
HETATM   20  C   UNL     1      -6.769   7.751  66.009  1.00  0.00    -0.049 A  
HETATM   21  C   UNL     1      -6.928   8.666  67.066  1.00  0.00    -0.074 A  
BRANCH  19  22
HETATM   22  C   UNL     1      -7.696   5.822  64.604  1.00  0.00    -0.098 A  
HETATM   23  C   UNL     1      -8.171   5.911  63.269  1.00  0.00    -0.057 A  
HETATM   24  C   UNL     1      -8.184   4.820  62.390  1.00  0.00    -0.083 A  
HETATM   25  C   UNL     1      -7.679   3.600  62.798  1.00  0.00    -0.059 A  
HETATM   26  C   UNL     1      -7.164   3.476  64.084  1.00  0.00    -0.058 A  
HETATM   27  C   UNL     1      -7.177   4.557  65.004  1.00  0.00    -0.067 A  
BRANCH  27  28
HETATM   28  C   UNL     1      -6.674   4.240  66.340  1.00  0.00    -0.050 A  
HETATM   29  N   UNL     1      -5.367   4.284  66.673  1.00  0.00    -0.012 NA 
HETATM   30  N   UNL     1      -5.432   3.888  67.952  1.00  0.00    -0.016 NA 
HETATM   31  H   UNL     1      -4.600   3.808  68.535  1.00  0.00     0.000 HD 
HETATM   32  N   UNL     1      -6.651   3.605  68.416  1.00  0.00    -0.040 NA 
HETATM   33  N   UNL     1      -7.455   3.793  67.379  1.00  0.00    -0.067 NA 
ENDBRANCH  27  28
ENDBRANCH  19  22
ENDBRANCH  15  16
ENDBRANCH  11  15
ENDBRANCH   4   5
ENDBRANCH   3   4
ENDBRANCH   2   3
TORSDOF 7
ENDMDL
MODEL      271
REMARK 921   NORMALIZED FREE ENERGY PREDICTED BY IDOCK:    0.97 KCAL/MOL
REMARK 922        TOTAL FREE ENERGY PREDICTED BY IDOCK:   -0.58 KCAL/MOL
REMARK 923 INTER-LIGAND FREE ENERGY PREDICTED BY IDOCK:    0.18 KCAL/MOL
REMARK 924 INTRA-LIGAND FREE ENERGY PREDICTED BY IDOCK:   -0.75 KCAL/MOL
REMARK 927      BINDING AFFINITY PREDICTED BY RF-SCORE:    0.00 PKD
ROOT
HETATM    1  C   UNL     1     -10.769   4.740  69.432  1.00  0.00     0.662 C  
HETATM    2  C   UNL     1     -10.806   5.731  70.578  1.00  0.00    -0.348 C  
ENDROOT
BRANCH   2   3
HETATM    3  C   UNL     1     -10.588   7.158  70.084  1.00  0.00    -0.247 C  
BRANCH   3   4
HETATM    4  C   UNL     1      -9.107   7.512  70.005  1.00  0.00    -0.148 C  
BRANCH   4   5
HETATM    5  C   UNL     1      -8.537   7.078  68.684  1.00  0.00    -0.120 C  
HETATM    6  N   UNL     1      -7.482   6.320  68.665  1.00  0.00    -0.086 NA 
HETATM    7  C   UNL     1      -7.249   6.034  67.228  1.00  0.00    -0.076 C  
HETATM    8  C   UNL     1      -8.187   7.004  66.529  1.00  0.00    -0.114 C  
HETATM    9  C   UNL     1      -7.658   4.588  66.926  1.00  0.00    -0.086 C  
HETATM   10  O   UNL     1      -8.167   7.329  65.351  1.00  0.00    -0.131 OA 
HETATM   11  N   UNL     1      -9.062   7.430  67.496  1.00  0.00    -0.125 N  
HETATM   12  C   UNL     1      -6.686   4.165  65.837  1.00  0.00    -0.049 C  
HETATM   13  C   UNL     1      -5.376   4.788  66.291  1.00  0.00    -0.009 C  
HETATM   14  C   UNL     1      -5.771   6.152  66.861  1.00  0.00    -0.016 C  
BRANCH  11  15
HETATM   15  C   UNL     1     -10.229   8.248  67.173  1.00  0.00    -0.295 C  
BRANCH  15  16
HETATM   16  C   UNL     1     -10.015   9.714  67.506  1.00  0.00    -0.231 A  
HETATM   17  C   UNL     1      -9.092  10.485  66.802  1.00  0.00    -0.167 A  
HETATM   18  C   UNL     1      -8.705  11.749  67.272  1.00  0.00    -0.163 A  
HETATM   19  C   UNL     1      -9.274  12.325  68.425  1.00  0.00    -0.145 A  
HETATM   20  C   UNL     1     -10.355  11.629  68.983  1.00  0.00    -0.119 A  
HETATM   21  C   UNL     1     -10.685  10.324  68.574  1.00  0.00    -0.262 A  
BRANCH  19  22
HETATM   22  C   UNL     1      -8.689  13.573  69.025  1.00  0.00     0.362 A  
HETATM   23  C   UNL     1      -9.217  14.828  68.626  1.00  0.00    -0.194 A  
HETATM   24  C   UNL     1      -8.668  16.051  69.032  1.00  0.00    -0.245 A  
HETATM   25  C   UNL     1      -7.588  16.069  69.895  1.00  0.00     0.382 A  
HETATM   26  C   UNL     1      -7.061  14.863  70.346  1.00  0.00     0.294 A  
HETATM   27  C   UNL     1      -7.577  13.612  69.916  1.00  0.00     0.995 A  
BRANCH  27  28
HETATM   28  C   UNL     1      -6.861  12.441  70.418  1.00  0.00     1.267 A  
HETATM   29  N   UNL     1      -5.615  12.494  70.935  1.00  0.00    -0.285 NA 
HETATM   30  N   UNL     1      -5.412  11.198  71.204  1.00  0.00    -0.302 NA 
HETATM   31  H   UNL     1      -4.544  10.863  71.622  1.00  0.00     0.000 HD 
HETATM   32  N   UNL     1      -6.413  10.370  70.895  1.00  0.00    -0.341 NA 
HETATM   33  N   UNL     1      -7.337  11.152  70.355  1.00  0.00     0.520 NA 
ENDBRANCH  27  28
ENDBRANCH  19  22
ENDBRANCH  15  16
ENDBRANCH  11  15
ENDBRANCH   4   5
ENDBRANCH   3   4
ENDBRANCH   2   3
TORSDOF 7
ENDMDL
MODEL      272
REMARK 921   NORMALIZED FREE ENERGY PREDICTED BY IDOCK:    1.90 KCAL/MOL
REMARK 922        TOTAL FREE ENERGY PREDICTED BY IDOCK:    0.73 KCAL/MOL
REMARK 923 INTER-LIGAND FREE ENERGY PREDICTED BY IDOCK:    0.36 KCAL/MOL
REMARK 924 INTRA-LIGAND FREE ENERGY PREDICTED BY IDOCK:    0.37 KCAL/MOL
REMARK 927      BINDING AFFINITY PREDICTED BY RF-SCORE:    0.00 PKD
ROOT
HETATM    1  C   UNL     1     -11.740   8.962  67.367  1.00  0.00     2.818 C  
HETATM    2  C   UNL     1     -11.483   7.721  68.199  1.00  0.00     1.015 C  
ENDROOT
BRANCH   2   3
HETATM    3  C   UNL     1     -11.065   6.544  67.323  1.00  0.00    -0.429 C  
BRANCH   3   4
HETATM    4  C   UNL     1      -9.634   6.693  66.817  1.00  0.00    -0.207 C  
BRANCH   4   5
HETATM    5  C   UNL     1      -8.775   5.578  67.346  1.00  0.00    -0.107 C  
HETATM    6  N   UNL     1      -8.404   4.626  66.544  1.00  0.00    -0.107 NA 
HETATM    7  C   UNL     1      -7.526   3.760  67.369  1.00  0.00    -0.067 C  
HETATM    8  C   UNL     1      -7.756   4.280  68.778  1.00  0.00    -0.066 C  
HETATM    9  C   UNL     1      -6.067   3.976  66.954  1.00  0.00    -0.028 C  
HETATM   10  O   UNL     1      -7.461   3.726  69.826  1.00  0.00    -0.051 OA 
HETATM   11  N   UNL     1      -8.358   5.504  68.624  1.00  0.00    -0.101 N  
HETATM   12  C   UNL     1      -5.433   2.610  67.165  1.00  0.00    -0.017 C  
HETATM   13  C   UNL     1      -6.510   1.657  66.673  1.00  0.00    -0.023 C  
HETATM   14  C   UNL     1      -7.826   2.278  67.147  1.00  0.00    -0.066 C  
BRANCH  11  15
HETATM   15  C   UNL     1      -8.585   6.399  69.756  1.00  0.00    -0.138 C  
BRANCH  15  16
HETATM   16  C   UNL     1      -8.006   7.783  69.521  1.00  0.00    -0.117 A  
HETATM   17  C   UNL     1      -7.704   8.629  70.587  1.00  0.00    -0.086 A  
HETATM   18  C   UNL     1      -7.422   9.985  70.371  1.00  0.00    -0.069 A  
HETATM   19  C   UNL     1      -7.362  10.540  69.077  1.00  0.00    -0.103 A  
HETATM   20  C   UNL     1      -7.447   9.625  68.018  1.00  0.00    -0.082 A  
HETATM   21  C   UNL     1      -7.819   8.285  68.227  1.00  0.00    -0.118 A  
BRANCH  19  22
HETATM   22  C   UNL     1      -7.277  12.029  68.886  1.00  0.00    -0.089 A  
HETATM   23  C   UNL     1      -6.013  12.658  69.029  1.00  0.00    -0.076 A  
HETATM   24  C   UNL     1      -5.845  14.048  68.990  1.00  0.00    -0.089 A  
HETATM   25  C   UNL     1      -6.933  14.868  68.759  1.00  0.00    -0.109 A  
HETATM   26  C   UNL     1      -8.186  14.294  68.571  1.00  0.00    -0.145 A  
HETATM   27  C   UNL     1      -8.386  12.890  68.647  1.00  0.00     0.032 A  
BRANCH  27  28
HETATM   28  C   UNL     1      -9.774  12.454  68.507  1.00  0.00    -0.136 A  
HETATM   29  N   UNL     1     -10.620  12.947  67.578  1.00  0.00    -0.225 NA 
HETATM   30  N   UNL     1     -11.734  12.268  67.884  1.00  0.00    -0.381 NA 
HETATM   31  H   UNL     1     -12.602  12.392  67.363  1.00  0.00     0.000 HD 
HETATM   32  N   UNL     1     -11.640  11.419  68.910  1.00  0.00    -0.293 NA 
HETATM   33  N   UNL     1     -10.394  11.555  69.342  1.00  0.00     0.023 NA 
ENDBRANCH  27  28
ENDBRANCH  19  22
ENDBRANCH  15  16
ENDBRANCH  11  15
ENDBRANCH   4   5
ENDBRANCH   3   4
ENDBRANCH   2   3
TORSDOF 7
ENDMDL
MODEL      273
REMARK 921   NORMALIZED FREE ENERGY PREDICTED BY IDOCK:    2.06 KCAL/MOL
REMARK 922        TOTAL FREE ENERGY PREDICTED BY IDOCK:    0.95 KCAL/MOL
REMARK 923 INTER-LIGAND FREE ENERGY PREDICTED BY IDOCK:    0.82 KCAL/MOL
REMARK 924 INTRA-LIGAND FREE ENERGY PREDICTED BY IDOCK:    0.13 KCAL/MOL
REMARK 927      BINDING AFFINITY PREDICTED BY RF-SCORE:    0.00 PKD
ROOT
HETATM    1  C   UNL     1     -14.329  13.216  64.238  1.00  0.00     5.904 C  
HETATM    2  C   UNL     1     -12.949  13.434  63.652  1.00  0.00     0.610 C  
ENDROOT
BRANCH   2   3
HETATM    3  C   UNL     1     -11.917  13.695  64.745  1.00  0.00    -0.426 C  
BRANCH   3   4
HETATM    4  C   UNL     1     -10.673  12.830  64.570  1.00  0.00    -0.380 C  
BRANCH   4   5
HETATM    5  C   UNL     1     -10.498  11.924  65.756  1.00  0.00    -0.256 C  
HETATM    6  N   UNL     1      -9.874  10.794  65.606  1.00  0.00    -0.231 NA 
HETATM    7  C   UNL     1      -9.823  10.208  66.968  1.00  0.00    -0.191 C  
HETATM    8  C   UNL     1     -10.770  11.095  67.759  1.00  0.00    -0.222 C  
HETATM    9  C   UNL     1      -8.397  10.328  67.518  1.00  0.00    -0.114 C  
HETATM   10  O   UNL     1     -11.258  10.859  68.854  1.00  0.00    -0.224 OA 
HETATM   11  N   UNL     1     -10.953  12.215  66.989  1.00  0.00    -0.257 N  
HETATM   12  C   UNL     1      -8.246   9.087  68.382  1.00  0.00    -0.116 C  
HETATM   13  C   UNL     1      -8.942   8.015  67.561  1.00  0.00    -0.143 C  
HETATM   14  C   UNL     1     -10.158   8.717  66.954  1.00  0.00    -0.348 C  
BRANCH  11  15
HETATM   15  C   UNL     1     -11.671  13.385  67.489  1.00  0.00    -0.366 C  
BRANCH  15  16
HETATM   16  C   UNL     1     -10.800  14.629  67.513  1.00  0.00    -0.286 A  
HETATM   17  C   UNL     1     -11.153  15.770  66.794  1.00  0.00    -0.116 A  
HETATM   18  C   UNL     1     -10.234  16.811  66.602  1.00  0.00    -0.310 A  
HETATM   19  C   UNL     1      -8.948  16.790  67.178  1.00  0.00    -0.218 A  
HETATM   20  C   UNL     1      -8.700  15.742  68.075  1.00  0.00    -0.171 A  
HETATM   21  C   UNL     1      -9.580  14.651  68.199  1.00  0.00    -0.213 A  
BRANCH  19  22
HETATM   22  C   UNL     1      -7.914  17.806  66.779  1.00  0.00    -0.265 A  
HETATM   23  C   UNL     1      -6.821  17.382  65.981  1.00  0.00    -0.220 A  
HETATM   24  C   UNL     1      -5.745  18.217  65.654  1.00  0.00    -0.247 A  
HETATM   25  C   UNL     1      -5.741  19.533  66.079  1.00  0.00    -0.179 A  
HETATM   26  C   UNL     1      -6.812  20.006  66.830  1.00  0.00    -0.244 A  
HETATM   27  C   UNL     1      -7.893  19.165  67.205  1.00  0.00    -0.274 A  
BRANCH  27  28
HETATM   28  C   UNL     1      -8.897  19.793  68.062  1.00  0.00    -0.302 A  
HETATM   29  N   UNL     1      -9.529  20.945  67.748  1.00  0.00    -0.148 NA 
HETATM   30  N   UNL     1     -10.295  21.102  68.836  1.00  0.00     0.893 NA 
HETATM   31  H   UNL     1     -10.928  21.894  68.941  1.00  0.00     0.000 HD 
HETATM   32  N   UNL     1     -10.180  20.159  69.775  1.00  0.00     0.041 NA 
HETATM   33  N   UNL     1      -9.258  19.331  69.305  1.00  0.00    -0.161 NA 
ENDBRANCH  27  28
ENDBRANCH  19  22
ENDBRANCH  15  16
ENDBRANCH  11  15
ENDBRANCH   4   5
ENDBRANCH   3   4
ENDBRANCH   2   3
TORSDOF 7
ENDMDL
MODEL      274
REMARK 921   NORMALIZED FREE ENERGY PREDICTED BY IDOCK:    2.11 KCAL/MOL
REMARK 922        TOTAL FREE ENERGY PREDICTED BY IDOCK:    1.03 KCAL/MOL
REMARK 923 INTER-LIGAND FREE ENERGY PREDICTED BY IDOCK:   -3.53 KCAL/MOL
REMARK 924 INTRA-LIGAND FREE ENERGY PREDICTED BY IDOCK:    4.56 KCAL/MOL
REMARK 927      BINDING AFFINITY PREDICTED BY RF-SCORE:    0.00 PKD
ROOT
HETATM    1  C   UNL     1     -10.289  10.743  65.097  1.00  0.00    -0.341 C  
HETATM    2  C   UNL     1     -10.506   9.995  66.397  1.00  0.00    -0.199 C  
ENDROOT
BRANCH   2   3
HETATM    3  C   UNL     1     -11.070  10.913  67.478  1.00  0.00    -0.375 C  
BRANCH   3   4
HETATM    4  C   UNL     1     -11.194  10.201  68.820  1.00  0.00    -0.217 C  
BRANCH   4   5
HETATM    5  C   UNL     1     -11.841  11.105  69.832  1.00  0.00    -0.363 C  
HETATM    6  N   UNL     1     -11.775  12.392  69.668  1.00  0.00    -0.313 NA 
HETATM    7  C   UNL     1     -12.566  12.955  70.789  1.00  0.00    -0.232 C  
HETATM    8  C   UNL     1     -12.792  11.752  71.689  1.00  0.00    -0.328 C  
HETATM    9  C   UNL     1     -13.905  13.476  70.253  1.00  0.00     2.051 C  
HETATM   10  O   UNL     1     -13.162  11.762  72.854  1.00  0.00     0.684 OA 
HETATM   11  N   UNL     1     -12.498  10.656  70.918  1.00  0.00    -0.362 N  
HETATM   12  C   UNL     1     -14.205  14.667  71.149  1.00  0.00    -0.236 C  
HETATM   13  C   UNL     1     -12.842  15.319  71.315  1.00  0.00    -0.494 C  
HETATM   14  C   UNL     1     -11.863  14.149  71.433  1.00  0.00    -0.071 C  
BRANCH  11  15
HETATM   15  C   UNL     1     -12.758   9.295  71.381  1.00  0.00    -0.330 C  
BRANCH  15  16
HETATM   16  C   UNL     1     -11.562   8.381  71.183  1.00  0.00    -0.317 A  
HETATM   17  C   UNL     1     -10.902   8.312  69.958  1.00  0.00    -0.232 A  
HETATM   18  C   UNL     1      -9.978   7.291  69.696  1.00  0.00    -0.176 A  
HETATM   19  C   UNL     1      -9.621   6.335  70.668  1.00  0.00    -0.189 A  
HETATM   20  C   UNL     1     -10.129   6.560  71.956  1.00  0.00    -0.201 A  
HETATM   21  C   UNL     1     -11.124   7.525  72.201  1.00  0.00    -0.300 A  
BRANCH  19  22
HETATM   22  C   UNL     1      -8.802   5.132  70.295  1.00  0.00    -0.144 A  
HETATM   23  C   UNL     1      -8.350   5.010  68.955  1.00  0.00    -0.086 A  
HETATM   24  C   UNL     1      -7.684   3.875  68.476  1.00  0.00    -0.061 A  
HETATM   25  C   UNL     1      -7.402   2.827  69.332  1.00  0.00    -0.044 A  
HETATM   26  C   UNL     1      -7.790   2.919  70.665  1.00  0.00    -0.045 A  
HETATM   27  C   UNL     1      -8.501   4.043  71.163  1.00  0.00    -0.098 A  
BRANCH  27  28
HETATM   28  C   UNL     1      -8.905   3.949  72.564  1.00  0.00    -0.105 A  
HETATM   29  N   UNL     1      -9.107   5.025  73.355  1.00  0.00    -0.121 NA 
HETATM   30  N   UNL     1      -9.417   4.418  74.509  1.00  0.00    -0.111 NA 
HETATM   31  H   UNL     1      -9.641   4.945  75.353  1.00  0.00     0.000 HD 
HETATM   32  N   UNL     1      -9.417   3.083  74.489  1.00  0.00    -0.090 NA 
HETATM   33  N   UNL     1      -9.055   2.769  73.254  1.00  0.00    -0.084 NA 
ENDBRANCH  27  28
ENDBRANCH  19  22
ENDBRANCH  15  16
ENDBRANCH  11  15
ENDBRANCH   4   5
ENDBRANCH   3   4
ENDBRANCH   2   3
TORSDOF 7
ENDMDL
MODEL      275
REMARK 921   NORMALIZED FREE ENERGY PREDICTED BY IDOCK:    2.18 KCAL/MOL
REMARK 922        TOTAL FREE ENERGY PREDICTED BY IDOCK:    1.13 KCAL/MOL
REMARK 923 INTER-LIGAND FREE ENERGY PREDICTED BY IDOCK:   -3.19 KCAL/MOL
REMARK 924 INTRA-LIGAND FREE ENERGY PREDICTED BY IDOCK:    4.32 KCAL/MOL
REMARK 927      BINDING AFFINITY PREDICTED BY RF-SCORE:    0.00 PKD
ROOT
HETATM    1  C   UNL     1     -11.906  10.107  69.101  1.00  0.00     0.059 C  
HETATM    2  C   UNL     1     -11.101  11.366  69.352  1.00  0.00    -0.301 C  
ENDROOT
BRANCH   2   3
HETATM    3  C   UNL     1     -11.951  12.445  70.015  1.00  0.00    -0.372 C  
BRANCH   3   4
HETATM    4  C   UNL     1     -12.024  13.711  69.169  1.00  0.00    -0.394 C  
BRANCH   4   5
HETATM    5  C   UNL     1     -10.809  13.821  68.291  1.00  0.00    -0.250 C  
HETATM    6  N   UNL     1      -9.797  14.530  68.692  1.00  0.00    -0.230 NA 
HETATM    7  C   UNL     1      -8.773  14.357  67.633  1.00  0.00    -0.189 C  
HETATM    8  C   UNL     1      -9.547  13.683  66.513  1.00  0.00    -0.286 C  
HETATM    9  C   UNL     1      -7.665  13.430  68.146  1.00  0.00    -0.143 C  
HETATM   10  O   UNL     1      -9.208  13.575  65.344  1.00  0.00     0.327 OA 
HETATM   11  N   UNL     1     -10.701  13.218  67.092  1.00  0.00    -0.258 N  
HETATM   12  C   UNL     1      -6.415  13.960  67.462  1.00  0.00    -0.077 C  
HETATM   13  C   UNL     1      -6.606  15.467  67.528  1.00  0.00    -0.191 C  
HETATM   14  C   UNL     1      -8.100  15.682  67.277  1.00  0.00    -0.224 C  
BRANCH  11  15
HETATM   15  C   UNL     1     -11.635  12.359  66.368  1.00  0.00    -0.384 C  
BRANCH  15  16
HETATM   16  C   UNL     1     -10.926  11.261  65.595  1.00  0.00    -0.201 A  
HETATM   17  C   UNL     1     -10.858   9.960  66.089  1.00  0.00     0.218 A  
HETATM   18  C   UNL     1      -9.991   9.018  65.516  1.00  0.00     0.208 A  
HETATM   19  C   UNL     1      -9.207   9.314  64.384  1.00  0.00    -0.021 A  
HETATM   20  C   UNL     1      -9.461  10.551  63.775  1.00  0.00    -0.342 A  
HETATM   21  C   UNL     1     -10.257  11.531  64.395  1.00  0.00    -0.350 A  
BRANCH  19  22
HETATM   22  C   UNL     1      -8.133   8.366  63.928  1.00  0.00    -0.143 A  
HETATM   23  C   UNL     1      -7.092   8.868  63.104  1.00  0.00    -0.089 A  
HETATM   24  C   UNL     1      -6.112   8.049  62.529  1.00  0.00    -0.081 A  
HETATM   25  C   UNL     1      -6.107   6.692  62.792  1.00  0.00    -0.038 A  
HETATM   26  C   UNL     1      -7.084   6.160  63.627  1.00  0.00    -0.049 A  
HETATM   27  C   UNL     1      -8.110   6.966  64.188  1.00  0.00    -0.026 A  
BRANCH  27  28
HETATM   28  C   UNL     1      -9.105   6.241  64.977  1.00  0.00     0.440 A  
HETATM   29  N   UNL     1      -9.222   4.896  64.974  1.00  0.00    -0.137 NA 
HETATM   30  N   UNL     1     -10.264   4.745  65.802  1.00  0.00    -0.336 NA 
HETATM   31  H   UNL     1     -10.636   3.826  66.040  1.00  0.00     0.000 HD 
HETATM   32  N   UNL     1     -10.788   5.869  66.298  1.00  0.00    -0.045 NA 
HETATM   33  N   UNL     1     -10.073   6.840  65.747  1.00  0.00     0.716 NA 
ENDBRANCH  27  28
ENDBRANCH  19  22
ENDBRANCH  15  16
ENDBRANCH  11  15
ENDBRANCH   4   5
ENDBRANCH   3   4
ENDBRANCH   2   3
TORSDOF 7
ENDMDL
MODEL      276
REMARK 921   NORMALIZED FREE ENERGY PREDICTED BY IDOCK:    2.38 KCAL/MOL
REMARK 922        TOTAL FREE ENERGY PREDICTED BY IDOCK:    1.40 KCAL/MOL
REMARK 923 INTER-LIGAND FREE ENERGY PREDICTED BY IDOCK:   -0.41 KCAL/MOL
REMARK 924 INTRA-LIGAND FREE ENERGY PREDICTED BY IDOCK:    1.82 KCAL/MOL
REMARK 927      BINDING AFFINITY PREDICTED BY RF-SCORE:    0.00 PKD
ROOT
HETATM    1  C   UNL     1      -7.153  14.365  70.947  1.00  0.00     1.072 C  
HETATM    2  C   UNL     1      -6.399  13.068  70.737  1.00  0.00     0.607 C  
ENDROOT
BRANCH   2   3
HETATM    3  C   UNL     1      -6.448  12.628  69.277  1.00  0.00    -0.106 C  
BRANCH   3   4
HETATM    4  C   UNL     1      -5.636  11.360  69.038  1.00  0.00    -0.039 C  
BRANCH   4   5
HETATM    5  C   UNL     1      -6.092  10.266  69.963  1.00  0.00    -0.071 C  
HETATM    6  N   UNL     1      -5.368   9.968  71.000  1.00  0.00    -0.066 NA 
HETATM    7  C   UNL     1      -6.142   8.921  71.711  1.00  0.00    -0.073 C  
HETATM    8  C   UNL     1      -7.222   8.551  70.708  1.00  0.00    -0.060 C  
HETATM    9  C   UNL     1      -6.772   9.525  72.971  1.00  0.00     0.987 C  
HETATM   10  O   UNL     1      -7.937   7.561  70.727  1.00  0.00    -0.100 OA 
HETATM   11  N   UNL     1      -7.227   9.565  69.783  1.00  0.00    -0.073 N  
HETATM   12  C   UNL     1      -6.772   8.367  73.956  1.00  0.00    -0.157 C  
HETATM   13  C   UNL     1      -5.431   7.701  73.697  1.00  0.00    -0.045 C  
HETATM   14  C   UNL     1      -5.245   7.776  72.180  1.00  0.00    -0.036 C  
BRANCH  11  15
HETATM   15  C   UNL     1      -8.251   9.657  68.745  1.00  0.00    -0.106 C  
BRANCH  15  16
HETATM   16  C   UNL     1      -7.918   8.808  67.531  1.00  0.00    -0.102 A  
HETATM   17  C   UNL     1      -8.920   8.182  66.792  1.00  0.00    -0.172 A  
HETATM   18  C   UNL     1      -8.606   7.197  65.844  1.00  0.00    -0.157 A  
HETATM   19  C   UNL     1      -7.275   6.845  65.543  1.00  0.00    -0.077 A  
HETATM   20  C   UNL     1      -6.286   7.644  66.135  1.00  0.00    -0.042 A  
HETATM   21  C   UNL     1      -6.591   8.567  67.152  1.00  0.00    -0.058 A  
BRANCH  19  22
HETATM   22  C   UNL     1      -6.976   5.644  64.691  1.00  0.00    -0.052 A  
HETATM   23  C   UNL     1      -5.668   5.500  64.159  1.00  0.00    -0.017 A  
HETATM   24  C   UNL     1      -5.317   4.485  63.260  1.00  0.00    -0.009 A  
HETATM   25  C   UNL     1      -6.255   3.540  62.888  1.00  0.00    -0.014 A  
HETATM   26  C   UNL     1      -7.539   3.615  63.417  1.00  0.00    -0.059 A  
HETATM   27  C   UNL     1      -7.927   4.658  64.298  1.00  0.00    -0.098 A  
BRANCH  27  28
HETATM   28  C   UNL     1      -9.332   4.641  64.699  1.00  0.00    -0.085 A  
HETATM   29  N   UNL     1      -9.789   5.202  65.839  1.00  0.00    -0.153 NA 
HETATM   30  N   UNL     1     -11.089   4.891  65.755  1.00  0.00    -0.885 NA 
HETATM   31  H   UNL     1     -11.759   5.171  66.471  1.00  0.00     0.000 HD 
HETATM   32  N   UNL     1     -11.457   4.193  64.678  1.00  0.00     0.017 NA 
HETATM   33  N   UNL     1     -10.330   3.995  64.008  1.00  0.00    -0.186 NA 
ENDBRANCH  27  28
ENDBRANCH  19  22
ENDBRANCH  15  16
ENDBRANCH  11  15
ENDBRANCH   4   5
ENDBRANCH   3   4
ENDBRANCH   2   3
TORSDOF 7
ENDMDL
MODEL      277
REMARK 921   NORMALIZED FREE ENERGY PREDICTED BY IDOCK:    2.84 KCAL/MOL
REMARK 922        TOTAL FREE ENERGY PREDICTED BY IDOCK:    2.06 KCAL/MOL
REMARK 923 INTER-LIGAND FREE ENERGY PREDICTED BY IDOCK:   -3.87 KCAL/MOL
REMARK 924 INTRA-LIGAND FREE ENERGY PREDICTED BY IDOCK:    5.93 KCAL/MOL
REMARK 927      BINDING AFFINITY PREDICTED BY RF-SCORE:    0.00 PKD
ROOT
HETATM    1  C   UNL     1     -10.963   7.346  66.654  1.00  0.00     0.345 C  
HETATM    2  C   UNL     1     -11.316   6.500  67.860  1.00  0.00    -0.096 C  
ENDROOT
BRANCH   2   3
HETATM    3  C   UNL     1     -10.485   5.221  67.903  1.00  0.00    -0.154 C  
BRANCH   3   4
HETATM    4  C   UNL     1      -9.258   5.371  68.796  1.00  0.00    -0.148 C  
BRANCH   4   5
HETATM    5  C   UNL     1      -9.664   5.367  70.243  1.00  0.00    -0.192 C  
HETATM    6  N   UNL     1      -9.573   4.266  70.927  1.00  0.00    -0.169 NA 
HETATM    7  C   UNL     1      -9.977   4.643  72.303  1.00  0.00    -0.177 C  
HETATM    8  C   UNL     1     -10.553   6.037  72.123  1.00  0.00    -0.214 C  
HETATM    9  C   UNL     1      -8.735   4.693  73.200  1.00  0.00    -0.112 C  
HETATM   10  O   UNL     1     -11.249   6.655  72.915  1.00  0.00    -0.252 OA 
HETATM   11  N   UNL     1     -10.123   6.456  70.890  1.00  0.00    -0.185 N  
HETATM   12  C   UNL     1      -9.260   4.250  74.556  1.00  0.00    -0.115 C  
HETATM   13  C   UNL     1     -10.223   3.130  74.198  1.00  0.00    -0.208 C  
HETATM   14  C   UNL     1     -10.916   3.607  72.920  1.00  0.00    -0.087 C  
BRANCH  11  15
HETATM   15  C   UNL     1     -10.331   7.825  70.424  1.00  0.00    -0.212 C  
BRANCH  15  16
HETATM   16  C   UNL     1      -9.301   8.245  69.390  1.00  0.00    -0.155 A  
HETATM   17  C   UNL     1      -9.094   9.588  69.084  1.00  0.00    -0.152 A  
HETATM   18  C   UNL     1      -8.345   9.961  67.958  1.00  0.00    -0.113 A  
HETATM   19  C   UNL     1      -7.713   9.011  67.131  1.00  0.00    -0.099 A  
HETATM   20  C   UNL     1      -7.750   7.686  67.588  1.00  0.00    -0.122 A  
HETATM   21  C   UNL     1      -8.573   7.297  68.660  1.00  0.00    -0.128 A  
BRANCH  19  22
HETATM   22  C   UNL     1      -7.106   9.423  65.819  1.00  0.00    -0.091 A  
HETATM   23  C   UNL     1      -5.839   8.892  65.463  1.00  0.00    -0.051 A  
HETATM   24  C   UNL     1      -5.134   9.300  64.324  1.00  0.00    -0.053 A  
HETATM   25  C   UNL     1      -5.691  10.229  63.464  1.00  0.00    -0.143 A  
HETATM   26  C   UNL     1      -6.950  10.746  63.749  1.00  0.00     0.375 A  
HETATM   27  C   UNL     1      -7.665  10.376  64.919  1.00  0.00    -0.084 A  
BRANCH  27  28
HETATM   28  C   UNL     1      -8.936  11.070  65.114  1.00  0.00    -0.145 A  
HETATM   29  N   UNL     1     -10.089  10.694  64.520  1.00  0.00    -0.342 NA 
HETATM   30  N   UNL     1     -10.917  11.641  64.982  1.00  0.00    -0.293 NA 
HETATM   31  H   UNL     1     -11.904  11.663  64.730  1.00  0.00     0.000 HD 
HETATM   32  N   UNL     1     -10.372  12.552  65.791  1.00  0.00    -0.260 NA 
HETATM   33  N   UNL     1      -9.091  12.217  65.856  1.00  0.00    -0.036 NA 
ENDBRANCH  27  28
ENDBRANCH  19  22
ENDBRANCH  15  16
ENDBRANCH  11  15
ENDBRANCH   4   5
ENDBRANCH   3   4
ENDBRANCH   2   3
TORSDOF 7
ENDMDL
MODEL      278
REMARK 921   NORMALIZED FREE ENERGY PREDICTED BY IDOCK:    5.50 KCAL/MOL
REMARK 922        TOTAL FREE ENERGY PREDICTED BY IDOCK:    5.81 KCAL/MOL
REMARK 923 INTER-LIGAND FREE ENERGY PREDICTED BY IDOCK:   -0.99 KCAL/MOL
REMARK 924 INTRA-LIGAND FREE ENERGY PREDICTED BY IDOCK:    6.80 KCAL/MOL
REMARK 927      BINDING AFFINITY PREDICTED BY RF-SCORE:    0.00 PKD
ROOT
HETATM    1  C   UNL     1      -9.719  20.043  65.549  1.00  0.00     0.065 C  
HETATM    2  C   UNL     1      -8.644  19.781  66.585  1.00  0.00    -0.380 C  
ENDROOT
BRANCH   2   3
HETATM    3  C   UNL     1      -7.374  20.569  66.277  1.00  0.00    -0.188 C  
BRANCH   3   4
HETATM    4  C   UNL     1      -6.121  19.821  66.719  1.00  0.00    -0.180 C  
BRANCH   4   5
HETATM    5  C   UNL     1      -6.416  18.979  67.928  1.00  0.00    -0.223 C  
HETATM    6  N   UNL     1      -5.523  18.877  68.866  1.00  0.00    -0.196 NA 
HETATM    7  C   UNL     1      -6.169  18.049  69.914  1.00  0.00    -0.105 C  
HETATM    8  C   UNL     1      -7.413  17.524  69.218  1.00  0.00     0.003 C  
HETATM    9  C   UNL     1      -6.559  18.942  71.097  1.00  0.00     1.452 C  
HETATM   10  O   UNL     1      -8.124  16.597  69.578  1.00  0.00    -0.014 OA 
HETATM   11  N   UNL     1      -7.572  18.311  68.105  1.00  0.00    -0.261 N  
HETATM   12  C   UNL     1      -6.396  18.027  72.299  1.00  0.00     3.298 C  
HETATM   13  C   UNL     1      -5.129  17.256  71.970  1.00  0.00     0.922 C  
HETATM   14  C   UNL     1      -5.215  16.991  70.465  1.00  0.00    -0.236 C  
BRANCH  11  15
HETATM   15  C   UNL     1      -8.763  18.225  67.263  1.00  0.00    -0.255 C  
BRANCH  15  16
HETATM   16  C   UNL     1      -9.263  16.799  67.117  1.00  0.00    -0.233 A  
HETATM   17  C   UNL     1     -10.451  16.386  67.718  1.00  0.00    -0.300 A  
HETATM   18  C   UNL     1     -10.777  15.025  67.806  1.00  0.00    -0.278 A  
HETATM   19  C   UNL     1      -9.966  14.023  67.237  1.00  0.00    -0.242 A  
HETATM   20  C   UNL     1      -8.900  14.478  66.448  1.00  0.00    -0.068 A  
HETATM   21  C   UNL     1      -8.517  15.832  66.432  1.00  0.00    -0.313 A  
BRANCH  19  22
HETATM   22  C   UNL     1     -10.222  12.572  67.533  1.00  0.00    -0.219 A  
HETATM   23  C   UNL     1     -10.022  12.106  68.859  1.00  0.00     0.025 A  
HETATM   24  C   UNL     1     -10.116  10.755  69.215  1.00  0.00    -0.200 A  
HETATM   25  C   UNL     1     -10.460   9.814  68.263  1.00  0.00    -0.255 A  
HETATM   26  C   UNL     1     -10.707  10.228  66.958  1.00  0.00    -0.281 A  
HETATM   27  C   UNL     1     -10.578  11.587  66.567  1.00  0.00    -0.301 A  
BRANCH  27  28
HETATM   28  C   UNL     1     -10.792  11.845  65.144  1.00  0.00    -0.300 A  
HETATM   29  N   UNL     1      -9.997  11.353  64.170  1.00  0.00    -0.267 NA 
HETATM   30  N   UNL     1     -10.581  11.890  63.090  1.00  0.00    -0.670 NA 
HETATM   31  H   UNL     1     -10.232  11.720  62.147  1.00  0.00     0.000 HD 
HETATM   32  N   UNL     1     -11.646  12.661  63.322  1.00  0.00    -0.456 NA 
HETATM   33  N   UNL     1     -11.771  12.669  64.642  1.00  0.00    -0.339 NA 
ENDBRANCH  27  28
ENDBRANCH  19  22
ENDBRANCH  15  16
ENDBRANCH  11  15
ENDBRANCH   4   5
ENDBRANCH   3   4
ENDBRANCH   2   3
TORSDOF 7
ENDMDL
MODEL      279
REMARK 921   NORMALIZED FREE ENERGY PREDICTED BY IDOCK:    6.38 KCAL/MOL
REMARK 922        TOTAL FREE ENERGY PREDICTED BY IDOCK:    7.04 KCAL/MOL
REMARK 923 INTER-LIGAND FREE ENERGY PREDICTED BY IDOCK:    8.28 KCAL/MOL
REMARK 924 INTRA-LIGAND FREE ENERGY PREDICTED BY IDOCK:   -1.24 KCAL/MOL
REMARK 927      BINDING AFFINITY PREDICTED BY RF-SCORE:    0.00 PKD
ROOT
HETATM    1  C   UNL     1     -12.263  20.246  65.412  1.00  0.00     4.589 C  
HETATM    2  C   UNL     1     -10.861  19.725  65.170  1.00  0.00     0.334 C  
ENDROOT
BRANCH   2   3
HETATM    3  C   UNL     1     -10.269  19.117  66.438  1.00  0.00    -0.515 C  
BRANCH   3   4
HETATM    4  C   UNL     1      -8.887  18.523  66.192  1.00  0.00    -0.128 C  
BRANCH   4   5
HETATM    5  C   UNL     1      -8.020  18.696  67.408  1.00  0.00    -0.236 C  
HETATM    6  N   UNL     1      -8.286  19.652  68.246  1.00  0.00    -0.330 NA 
HETATM    7  C   UNL     1      -7.296  19.482  69.338  1.00  0.00    -0.209 C  
HETATM    8  C   UNL     1      -6.322  18.467  68.763  1.00  0.00    -0.220 C  
HETATM    9  C   UNL     1      -7.997  18.905  70.572  1.00  0.00     2.558 C  
HETATM   10  O   UNL     1      -5.202  18.203  69.176  1.00  0.00    -0.180 OA 
HETATM   11  N   UNL     1      -6.967  17.907  67.689  1.00  0.00    -0.195 N  
HETATM   12  C   UNL     1      -7.238  19.527  71.733  1.00  0.00     2.247 C  
HETATM   13  C   UNL     1      -7.001  20.951  71.260  1.00  0.00     2.142 C  
HETATM   14  C   UNL     1      -6.692  20.818  69.767  1.00  0.00     0.772 C  
BRANCH  11  15
HETATM   15  C   UNL     1      -6.417  16.759  66.972  1.00  0.00    -0.194 C  
BRANCH  15  16
HETATM   16  C   UNL     1      -6.573  15.465  67.751  1.00  0.00    -0.178 A  
HETATM   17  C   UNL     1      -5.502  14.589  67.917  1.00  0.00    -0.093 A  
HETATM   18  C   UNL     1      -5.706  13.288  68.400  1.00  0.00    -0.084 A  
HETATM   19  C   UNL     1      -6.975  12.829  68.804  1.00  0.00    -0.096 A  
HETATM   20  C   UNL     1      -7.989  13.797  68.838  1.00  0.00     0.036 A  
HETATM   21  C   UNL     1      -7.813  15.073  68.271  1.00  0.00    -0.119 A  
BRANCH  19  22
HETATM   22  C   UNL     1      -7.203  11.375  69.107  1.00  0.00    -0.102 A  
HETATM   23  C   UNL     1      -6.304  10.719  69.989  1.00  0.00    -0.137 A  
HETATM   24  C   UNL     1      -6.355   9.343  70.244  1.00  0.00    -0.060 A  
HETATM   25  C   UNL     1      -7.340   8.569  69.660  1.00  0.00    -0.060 A  
HETATM   26  C   UNL     1      -8.269   9.176  68.821  1.00  0.00    -0.109 A  
HETATM   27  C   UNL     1      -8.212  10.561  68.517  1.00  0.00    -0.123 A  
BRANCH  27  28
HETATM   28  C   UNL     1      -9.210  11.027  67.556  1.00  0.00    -0.145 A  
HETATM   29  N   UNL     1      -8.995  11.077  66.224  1.00  0.00    -0.178 NA 
HETATM   30  N   UNL     1     -10.164  11.588  65.812  1.00  0.00    -0.239 NA 
HETATM   31  H   UNL     1     -10.359  11.763  64.827  1.00  0.00     0.000 HD 
HETATM   32  N   UNL     1     -11.057  11.855  66.768  1.00  0.00    -0.292 NA 
HETATM   33  N   UNL     1     -10.443  11.531  67.897  1.00  0.00    -0.179 NA 
ENDBRANCH  27  28
ENDBRANCH  19  22
ENDBRANCH  15  16
ENDBRANCH  11  15
ENDBRANCH   4   5
ENDBRANCH   3   4
ENDBRANCH   2   3
TORSDOF 7
ENDMDL
MODEL      280
REMARK 921   NORMALIZED FREE ENERGY PREDICTED BY IDOCK:    8.51 KCAL/MOL
REMARK 922        TOTAL FREE ENERGY PREDICTED BY IDOCK:   10.04 KCAL/MOL
REMARK 923 INTER-LIGAND FREE ENERGY PREDICTED BY IDOCK:    1.26 KCAL/MOL
REMARK 924 INTRA-LIGAND FREE ENERGY PREDICTED BY IDOCK:    8.78 KCAL/MOL
REMARK 927      BINDING AFFINITY PREDICTED BY RF-SCORE:    0.00 PKD
ROOT
HETATM    1  C   UNL     1      -9.547  20.596  65.816  1.00  0.00     0.316 C  
HETATM    2  C   UNL     1      -8.575  20.417  66.965  1.00  0.00    -0.370 C  
ENDROOT
BRANCH   2   3
HETATM    3  C   UNL     1      -7.301  21.227  66.744  1.00  0.00     0.125 C  
BRANCH   3   4
HETATM    4  C   UNL     1      -6.051  20.423  67.086  1.00  0.00    -0.230 C  
BRANCH   4   5
HETATM    5  C   UNL     1      -6.362  19.400  68.141  1.00  0.00    -0.227 C  
HETATM    6  N   UNL     1      -5.483  19.153  69.066  1.00  0.00    -0.198 NA 
HETATM    7  C   UNL     1      -6.141  18.168  69.958  1.00  0.00    -0.109 C  
HETATM    8  C   UNL     1      -7.372  17.757  69.168  1.00  0.00    -0.114 C  
HETATM    9  C   UNL     1      -6.554  18.862  71.261  1.00  0.00     1.626 C  
HETATM   10  O   UNL     1      -8.084  16.784  69.366  1.00  0.00    -0.087 OA 
HETATM   11  N   UNL     1      -7.517  18.710  68.192  1.00  0.00    -0.261 N  
HETATM   12  C   UNL     1      -6.406  17.769  72.307  1.00  0.00     3.610 C  
HETATM   13  C   UNL     1      -5.130  17.062  71.880  1.00  0.00     0.636 C  
HETATM   14  C   UNL     1      -5.191  17.038  70.351  1.00  0.00    -0.227 C  
BRANCH  11  15
HETATM   15  C   UNL     1      -8.694  18.757  67.328  1.00  0.00    -0.274 C  
BRANCH  15  16
HETATM   16  C   UNL     1      -9.305  17.383  67.112  1.00  0.00    -0.246 A  
HETATM   17  C   UNL     1     -10.170  16.823  68.050  1.00  0.00    -0.300 A  
HETATM   18  C   UNL     1     -10.522  15.467  67.984  1.00  0.00    -0.259 A  
HETATM   19  C   UNL     1     -10.081  14.630  66.940  1.00  0.00    -0.255 A  
HETATM   20  C   UNL     1      -9.401  15.268  65.894  1.00  0.00    -0.308 A  
HETATM   21  C   UNL     1      -8.968  16.603  65.999  1.00  0.00    -0.248 A  
BRANCH  19  22
HETATM   22  C   UNL     1     -10.291  13.143  67.012  1.00  0.00    -0.249 A  
HETATM   23  C   UNL     1     -11.604  12.635  66.837  1.00  0.00    -0.438 A  
HETATM   24  C   UNL     1     -11.927  11.282  67.002  1.00  0.00     0.610 A  
HETATM   25  C   UNL     1     -10.935  10.369  67.308  1.00  0.00    -0.306 A  
HETATM   26  C   UNL     1      -9.625  10.814  67.448  1.00  0.00    -0.179 A  
HETATM   27  C   UNL     1      -9.282  12.187  67.324  1.00  0.00    -0.185 A  
BRANCH  27  28
HETATM   28  C   UNL     1      -7.877  12.500  67.581  1.00  0.00    -0.162 A  
HETATM   29  N   UNL     1      -7.435  13.737  67.892  1.00  0.00    -0.134 NA 
HETATM   30  N   UNL     1      -6.120  13.503  67.990  1.00  0.00    -0.118 NA 
HETATM   31  H   UNL     1      -5.456  14.241  68.225  1.00  0.00     0.000 HD 
HETATM   32  N   UNL     1      -5.728  12.247  67.764  1.00  0.00    -0.084 NA 
HETATM   33  N   UNL     1      -6.845  11.599  67.465  1.00  0.00    -0.094 NA 
ENDBRANCH  27  28
ENDBRANCH  19  22
ENDBRANCH  15  16
ENDBRANCH  11  15
ENDBRANCH   4   5
ENDBRANCH   3   4
ENDBRANCH   2   3
TORSDOF 7
ENDMDL
MODEL      281
REMARK 921   NORMALIZED FREE ENERGY PREDICTED BY IDOCK:    8.71 KCAL/MOL
REMARK 922        TOTAL FREE ENERGY PREDICTED BY IDOCK:   10.33 KCAL/MOL
REMARK 923 INTER-LIGAND FREE ENERGY PREDICTED BY IDOCK:    3.13 KCAL/MOL
REMARK 924 INTRA-LIGAND FREE ENERGY PREDICTED BY IDOCK:    7.21 KCAL/MOL
REMARK 927      BINDING AFFINITY PREDICTED BY RF-SCORE:    0.00 PKD
ROOT
HETATM    1  C   UNL     1      -8.542   7.523  66.279  1.00  0.00    -0.153 C  
HETATM    2  C   UNL     1      -7.735   6.268  66.014  1.00  0.00    -0.092 C  
ENDROOT
BRANCH   2   3
HETATM    3  C   UNL     1      -7.671   5.378  67.252  1.00  0.00    -0.096 C  
BRANCH   3   4
HETATM    4  C   UNL     1      -8.494   5.947  68.403  1.00  0.00    -0.111 C  
BRANCH   4   5
HETATM    5  C   UNL     1      -8.564   4.958  69.533  1.00  0.00    -0.086 C  
HETATM    6  N   UNL     1      -7.544   4.188  69.767  1.00  0.00    -0.053 NA 
HETATM    7  C   UNL     1      -7.928   3.412  70.971  1.00  0.00    -0.057 C  
HETATM    8  C   UNL     1      -9.408   3.718  71.121  1.00  0.00    -0.149 C  
HETATM    9  C   UNL     1      -7.151   3.939  72.183  1.00  0.00    -0.050 C  
HETATM   10  O   UNL     1     -10.221   3.113  71.803  1.00  0.00    -0.106 OA 
HETATM   11  N   UNL     1      -9.637   4.819  70.334  1.00  0.00    -0.178 N  
HETATM   12  C   UNL     1      -6.944   2.699  73.037  1.00  0.00    -0.028 C  
HETATM   13  C   UNL     1      -6.634   1.625  72.008  1.00  0.00    -0.015 C  
HETATM   14  C   UNL     1      -7.562   1.935  70.831  1.00  0.00    -0.032 C  
BRANCH  11  15
HETATM   15  C   UNL     1     -10.917   5.523  70.346  1.00  0.00    -0.129 C  
BRANCH  15  16
HETATM   16  C   UNL     1     -11.042   6.509  69.198  1.00  0.00    -0.387 A  
HETATM   17  C   UNL     1     -11.482   6.099  67.941  1.00  0.00     0.428 A  
HETATM   18  C   UNL     1     -11.349   6.938  66.825  1.00  0.00     0.413 A  
HETATM   19  C   UNL     1     -10.836   8.247  66.928  1.00  0.00     0.010 A  
HETATM   20  C   UNL     1     -10.613   8.711  68.232  1.00  0.00    -0.181 A  
HETATM   21  C   UNL     1     -10.657   7.847  69.342  1.00  0.00    -0.209 A  
BRANCH  19  22
HETATM   22  C   UNL     1     -10.503   9.038  65.695  1.00  0.00     1.127 A  
HETATM   23  C   UNL     1     -10.105   8.336  64.527  1.00  0.00     4.010 A  
HETATM   24  C   UNL     1      -9.660   8.978  63.365  1.00  0.00     1.552 A  
HETATM   25  C   UNL     1      -9.636  10.359  63.307  1.00  0.00    -0.353 A  
HETATM   26  C   UNL     1     -10.056  11.091  64.413  1.00  0.00    -0.393 A  
HETATM   27  C   UNL     1     -10.473  10.460  65.615  1.00  0.00    -0.185 A  
BRANCH  27  28
HETATM   28  C   UNL     1     -10.805  11.370  66.709  1.00  0.00    -0.286 A  
HETATM   29  N   UNL     1     -10.600  11.076  68.011  1.00  0.00    -0.192 NA 
HETATM   30  N   UNL     1     -11.086  12.184  68.586  1.00  0.00    -0.235 NA 
HETATM   31  H   UNL     1     -11.088  12.310  69.598  1.00  0.00     0.000 HD 
HETATM   32  N   UNL     1     -11.569  13.112  67.757  1.00  0.00    -0.316 NA 
HETATM   33  N   UNL     1     -11.426  12.586  66.549  1.00  0.00    -0.341 NA 
ENDBRANCH  27  28
ENDBRANCH  19  22
ENDBRANCH  15  16
ENDBRANCH  11  15
ENDBRANCH   4   5
ENDBRANCH   3   4
ENDBRANCH   2   3
TORSDOF 7
ENDMDL
MODEL      282
REMARK 921   NORMALIZED FREE ENERGY PREDICTED BY IDOCK:    9.53 KCAL/MOL
REMARK 922        TOTAL FREE ENERGY PREDICTED BY IDOCK:   11.49 KCAL/MOL
REMARK 923 INTER-LIGAND FREE ENERGY PREDICTED BY IDOCK:    8.48 KCAL/MOL
REMARK 924 INTRA-LIGAND FREE ENERGY PREDICTED BY IDOCK:    3.01 KCAL/MOL
REMARK 927      BINDING AFFINITY PREDICTED BY RF-SCORE:    0.00 PKD
ROOT
HETATM    1  C   UNL     1     -10.020  10.870  64.467  1.00  0.00    -0.376 C  
HETATM    2  C   UNL     1      -9.394  11.113  65.825  1.00  0.00    -0.238 C  
ENDROOT
BRANCH   2   3
HETATM    3  C   UNL     1     -10.460  11.302  66.901  1.00  0.00    -0.286 C  
BRANCH   3   4
HETATM    4  C   UNL     1      -9.854  11.349  68.299  1.00  0.00    -0.202 C  
BRANCH   4   5
HETATM    5  C   UNL     1     -10.723  12.162  69.217  1.00  0.00     0.020 C  
HETATM    6  N   UNL     1     -11.320  13.220  68.755  1.00  0.00    -0.271 NA 
HETATM    7  C   UNL     1     -12.133  13.719  69.892  1.00  0.00    -0.348 C  
HETATM    8  C   UNL     1     -11.619  12.904  71.066  1.00  0.00     1.184 C  
HETATM    9  C   UNL     1     -13.611  13.405  69.634  1.00  0.00     2.991 C  
HETATM   10  O   UNL     1     -11.791  13.133  72.254  1.00  0.00     1.463 OA 
HETATM   11  N   UNL     1     -10.927  11.856  70.512  1.00  0.00     1.170 N  
HETATM   12  C   UNL     1     -14.338  14.571  70.284  1.00  0.00     2.084 C  
HETATM   13  C   UNL     1     -13.464  15.760  69.925  1.00  0.00     1.333 C  
HETATM   14  C   UNL     1     -12.030  15.236  70.035  1.00  0.00    -0.375 C  
BRANCH  11  15
HETATM   15  C   UNL     1     -10.423  10.751  71.322  1.00  0.00     2.784 C  
BRANCH  15  16
HETATM   16  C   UNL     1     -10.378   9.444  70.550  1.00  0.00    -0.341 A  
HETATM   17  C   UNL     1     -11.162   8.356  70.929  1.00  0.00    -0.294 A  
HETATM   18  C   UNL     1     -10.932   7.082  70.389  1.00  0.00    -0.301 A  
HETATM   19  C   UNL     1      -9.957   6.854  69.398  1.00  0.00    -0.166 A  
HETATM   20  C   UNL     1      -9.340   8.000  68.876  1.00  0.00    -0.150 A  
HETATM   21  C   UNL     1      -9.500   9.263  69.475  1.00  0.00    -0.178 A  
BRANCH  19  22
HETATM   22  C   UNL     1      -9.584   5.453  69.000  1.00  0.00    -0.191 A  
HETATM   23  C   UNL     1     -10.109   4.372  69.754  1.00  0.00    -0.101 A  
HETATM   24  C   UNL     1      -9.731   3.040  69.543  1.00  0.00     0.052 A  
HETATM   25  C   UNL     1      -8.842   2.728  68.532  1.00  0.00    -0.161 A  
HETATM   26  C   UNL     1      -8.332   3.750  67.739  1.00  0.00    -0.099 A  
HETATM   27  C   UNL     1      -8.670   5.111  67.961  1.00  0.00    -0.102 A  
BRANCH  27  28
HETATM   28  C   UNL     1      -7.987   6.069  67.094  1.00  0.00    -0.102 A  
HETATM   29  N   UNL     1      -7.800   5.875  65.771  1.00  0.00    -0.099 NA 
HETATM   30  N   UNL     1      -7.120   6.987  65.459  1.00  0.00    -0.066 NA 
HETATM   31  H   UNL     1      -6.808   7.179  64.508  1.00  0.00     0.000 HD 
HETATM   32  N   UNL     1      -6.876   7.827  66.467  1.00  0.00    -0.065 NA 
HETATM   33  N   UNL     1      -7.398   7.232  67.531  1.00  0.00    -0.090 NA 
ENDBRANCH  27  28
ENDBRANCH  19  22
ENDBRANCH  15  16
ENDBRANCH  11  15
ENDBRANCH   4   5
ENDBRANCH   3   4
ENDBRANCH   2   3
TORSDOF 7
ENDMDL
MODEL      283
REMARK 921   NORMALIZED FREE ENERGY PREDICTED BY IDOCK:    9.84 KCAL/MOL
REMARK 922        TOTAL FREE ENERGY PREDICTED BY IDOCK:   11.91 KCAL/MOL
REMARK 923 INTER-LIGAND FREE ENERGY PREDICTED BY IDOCK:   12.26 KCAL/MOL
REMARK 924 INTRA-LIGAND FREE ENERGY PREDICTED BY IDOCK:   -0.35 KCAL/MOL
REMARK 927      BINDING AFFINITY PREDICTED BY RF-SCORE:    0.00 PKD
ROOT
HETATM    1  C   UNL     1     -11.044   4.513  63.911  1.00  0.00     0.695 C  
HETATM    2  C   UNL     1     -11.189   5.337  65.174  1.00  0.00     1.288 C  
ENDROOT
BRANCH   2   3
HETATM    3  C   UNL     1     -11.397   6.814  64.852  1.00  0.00     8.714 C  
BRANCH   3   4
HETATM    4  C   UNL     1     -11.294   7.687  66.098  1.00  0.00     3.384 C  
BRANCH   4   5
HETATM    5  C   UNL     1      -9.887   8.185  66.272  1.00  0.00    -0.123 C  
HETATM    6  N   UNL     1      -8.985   7.386  66.758  1.00  0.00    -0.134 NA 
HETATM    7  C   UNL     1      -7.727   8.170  66.719  1.00  0.00    -0.095 C  
HETATM    8  C   UNL     1      -8.207   9.576  66.402  1.00  0.00    -0.115 C  
HETATM    9  C   UNL     1      -6.838   7.645  65.586  1.00  0.00    -0.049 C  
HETATM   10  O   UNL     1      -7.577  10.616  66.524  1.00  0.00    -0.121 OA 
HETATM   11  N   UNL     1      -9.493   9.431  65.946  1.00  0.00    -0.232 N  
HETATM   12  C   UNL     1      -5.429   7.848  66.119  1.00  0.00    -0.028 C  
HETATM   13  C   UNL     1      -5.560   7.464  67.583  1.00  0.00    -0.033 C  
HETATM   14  C   UNL     1      -6.923   8.013  68.009  1.00  0.00    -0.074 C  
BRANCH  11  15
HETATM   15  C   UNL     1     -10.241  10.549  65.377  1.00  0.00    -0.270 C  
BRANCH  15  16
HETATM   16  C   UNL     1     -10.787  11.480  66.445  1.00  0.00    -0.334 A  
HETATM   17  C   UNL     1      -9.946  12.063  67.392  1.00  0.00    -0.200 A  
HETATM   18  C   UNL     1     -10.473  12.702  68.524  1.00  0.00    -0.249 A  
HETATM   19  C   UNL     1     -11.860  12.847  68.725  1.00  0.00    -0.353 A  
HETATM   20  C   UNL     1     -12.674  12.452  67.653  1.00  0.00     1.990 A  
HETATM   21  C   UNL     1     -12.160  11.731  66.561  1.00  0.00     0.467 A  
BRANCH  19  22
HETATM   22  C   UNL     1     -12.396  13.336  70.041  1.00  0.00    -0.269 A  
HETATM   23  C   UNL     1     -12.243  14.709  70.366  1.00  0.00    -0.391 A  
HETATM   24  C   UNL     1     -12.598  15.242  71.612  1.00  0.00    -0.446 A  
HETATM   25  C   UNL     1     -13.166  14.427  72.573  1.00  0.00    -0.558 A  
HETATM   26  C   UNL     1     -13.374  13.083  72.285  1.00  0.00    -0.606 A  
HETATM   27  C   UNL     1     -12.985  12.513  71.044  1.00  0.00    -0.154 A  
BRANCH  27  28
HETATM   28  C   UNL     1     -13.198  11.072  70.929  1.00  0.00     0.048 A  
HETATM   29  N   UNL     1     -12.378  10.250  70.240  1.00  0.00    -0.232 NA 
HETATM   30  N   UNL     1     -13.012   9.081  70.411  1.00  0.00     0.013 NA 
HETATM   31  H   UNL     1     -12.657   8.212  70.015  1.00  0.00     0.000 HD 
HETATM   32  N   UNL     1     -14.135   9.123  71.131  1.00  0.00    -0.103 NA 
HETATM   33  N   UNL     1     -14.286  10.403  71.441  1.00  0.00     0.831 NA 
ENDBRANCH  27  28
ENDBRANCH  19  22
ENDBRANCH  15  16
ENDBRANCH  11  15
ENDBRANCH   4   5
ENDBRANCH   3   4
ENDBRANCH   2   3
TORSDOF 7
ENDMDL
MODEL      284
REMARK 921   NORMALIZED FREE ENERGY PREDICTED BY IDOCK:    9.88 KCAL/MOL
REMARK 922        TOTAL FREE ENERGY PREDICTED BY IDOCK:   11.97 KCAL/MOL
REMARK 923 INTER-LIGAND FREE ENERGY PREDICTED BY IDOCK:   12.55 KCAL/MOL
REMARK 924 INTRA-LIGAND FREE ENERGY PREDICTED BY IDOCK:   -0.58 KCAL/MOL
REMARK 927      BINDING AFFINITY PREDICTED BY RF-SCORE:    0.00 PKD
ROOT
HETATM    1  C   UNL     1     -12.266  20.247  65.413  1.00  0.00     4.589 C  
HETATM    2  C   UNL     1     -10.856  19.732  65.208  1.00  0.00     0.077 C  
ENDROOT
BRANCH   2   3
HETATM    3  C   UNL     1     -10.287  19.144  66.496  1.00  0.00    -0.526 C  
BRANCH   3   4
HETATM    4  C   UNL     1      -8.894  18.561  66.288  1.00  0.00    -0.221 C  
BRANCH   4   5
HETATM    5  C   UNL     1      -8.055  18.764  67.518  1.00  0.00    -0.256 C  
HETATM    6  N   UNL     1      -8.347  19.731  68.335  1.00  0.00    -0.295 NA 
HETATM    7  C   UNL     1      -7.378  19.588  69.450  1.00  0.00    -0.209 C  
HETATM    8  C   UNL     1      -6.384  18.573  68.913  1.00  0.00    -0.234 C  
HETATM    9  C   UNL     1      -8.101  19.026  70.679  1.00  0.00     2.836 C  
HETATM   10  O   UNL     1      -5.271  18.327  69.354  1.00  0.00    -0.185 OA 
HETATM   11  N   UNL     1      -7.000  17.988  67.835  1.00  0.00    -0.207 N  
HETATM   12  C   UNL     1      -7.372  19.675  71.845  1.00  0.00     2.239 C  
HETATM   13  C   UNL     1      -7.138  21.093  71.352  1.00  0.00     3.479 C  
HETATM   14  C   UNL     1      -6.796  20.937  69.868  1.00  0.00     1.493 C  
BRANCH  11  15
HETATM   15  C   UNL     1      -6.425  16.834  67.151  1.00  0.00    -0.190 C  
BRANCH  15  16
HETATM   16  C   UNL     1      -7.251  15.575  67.351  1.00  0.00    -0.241 A  
HETATM   17  C   UNL     1      -6.743  14.320  67.019  1.00  0.00     0.827 A  
HETATM   18  C   UNL     1      -7.584  13.199  66.954  1.00  0.00     0.296 A  
HETATM   19  C   UNL     1      -8.952  13.270  67.284  1.00  0.00    -0.217 A  
HETATM   20  C   UNL     1      -9.385  14.488  67.827  1.00  0.00    -0.198 A  
HETATM   21  C   UNL     1      -8.572  15.636  67.809  1.00  0.00    -0.168 A  
BRANCH  19  22
HETATM   22  C   UNL     1      -9.869  12.114  66.997  1.00  0.00    -0.212 A  
HETATM   23  C   UNL     1      -9.478  10.818  67.423  1.00  0.00    -0.171 A  
HETATM   24  C   UNL     1     -10.199   9.660  67.102  1.00  0.00    -0.305 A  
HETATM   25  C   UNL     1     -11.371   9.757  66.376  1.00  0.00     1.280 A  
HETATM   26  C   UNL     1     -11.816  11.011  65.972  1.00  0.00     1.257 A  
HETATM   27  C   UNL     1     -11.081  12.193  66.252  1.00  0.00    -0.353 A  
BRANCH  27  28
HETATM   28  C   UNL     1     -11.642  13.420  65.688  1.00  0.00    -0.327 A  
HETATM   29  N   UNL     1     -12.949  13.747  65.770  1.00  0.00    -0.495 NA 
HETATM   30  N   UNL     1     -12.949  14.904  65.094  1.00  0.00    -0.067 NA 
HETATM   31  H   UNL     1     -13.799  15.450  64.957  1.00  0.00     0.000 HD 
HETATM   32  N   UNL     1     -11.769  15.300  64.609  1.00  0.00    -0.364 NA 
HETATM   33  N   UNL     1     -10.927  14.337  64.954  1.00  0.00    -0.383 NA 
ENDBRANCH  27  28
ENDBRANCH  19  22
ENDBRANCH  15  16
ENDBRANCH  11  15
ENDBRANCH   4   5
ENDBRANCH   3   4
ENDBRANCH   2   3
TORSDOF 7
ENDMDL
MODEL      285
REMARK 921   NORMALIZED FREE ENERGY PREDICTED BY IDOCK:   13.37 KCAL/MOL
REMARK 922        TOTAL FREE ENERGY PREDICTED BY IDOCK:   16.90 KCAL/MOL
REMARK 923 INTER-LIGAND FREE ENERGY PREDICTED BY IDOCK:   15.44 KCAL/MOL
REMARK 924 INTRA-LIGAND FREE ENERGY PREDICTED BY IDOCK:    1.45 KCAL/MOL
REMARK 927      BINDING AFFINITY PREDICTED BY RF-SCORE:    0.00 PKD
ROOT
HETATM    1  C   UNL     1     -11.064   4.545  63.870  1.00  0.00     0.695 C  
HETATM    2  C   UNL     1     -11.134   5.532  65.018  1.00  0.00     2.113 C  
ENDROOT
BRANCH   2   3
HETATM    3  C   UNL     1     -11.272   6.964  64.510  1.00  0.00    11.307 C  
BRANCH   3   4
HETATM    4  C   UNL     1     -10.987   7.985  65.606  1.00  0.00     4.316 C  
BRANCH   4   5
HETATM    5  C   UNL     1      -9.530   8.355  65.608  1.00  0.00     0.085 C  
HETATM    6  N   UNL     1      -8.667   7.535  66.128  1.00  0.00    -0.151 NA 
HETATM    7  C   UNL     1      -7.350   8.176  65.892  1.00  0.00    -0.076 C  
HETATM    8  C   UNL     1      -7.726   9.573  65.429  1.00  0.00    -0.109 C  
HETATM    9  C   UNL     1      -6.614   7.426  64.776  1.00  0.00    -0.043 C  
HETATM   10  O   UNL     1      -6.994  10.550  65.365  1.00  0.00    -0.133 OA 
HETATM   11  N   UNL     1      -9.054   9.504  65.092  1.00  0.00    -0.215 N  
HETATM   12  C   UNL     1      -5.151   7.550  65.172  1.00  0.00    -0.028 C  
HETATM   13  C   UNL     1      -5.191   7.365  66.680  1.00  0.00    -0.023 C  
HETATM   14  C   UNL     1      -6.456   8.100  67.129  1.00  0.00    -0.057 C  
BRANCH  11  15
HETATM   15  C   UNL     1      -9.742  10.613  64.437  1.00  0.00    -0.311 C  
BRANCH  15  16
HETATM   16  C   UNL     1     -10.003  11.770  65.386  1.00  0.00    -0.284 A  
HETATM   17  C   UNL     1      -8.962  12.376  66.086  1.00  0.00     0.030 A  
HETATM   18  C   UNL     1      -9.226  13.256  67.147  1.00  0.00    -0.235 A  
HETATM   19  C   UNL     1     -10.538  13.621  67.508  1.00  0.00    -0.243 A  
HETATM   20  C   UNL     1     -11.552  13.174  66.649  1.00  0.00    -0.403 A  
HETATM   21  C   UNL     1     -11.303  12.222  65.643  1.00  0.00    -0.394 A  
BRANCH  19  22
HETATM   22  C   UNL     1     -10.798  14.384  68.776  1.00  0.00    -0.261 A  
HETATM   23  C   UNL     1     -12.140  14.700  69.113  1.00  0.00    -0.283 A  
HETATM   24  C   UNL     1     -12.482  15.507  70.205  1.00  0.00    -0.403 A  
HETATM   25  C   UNL     1     -11.493  15.998  71.037  1.00  0.00    -0.460 A  
HETATM   26  C   UNL     1     -10.165  15.680  70.771  1.00  0.00     0.428 A  
HETATM   27  C   UNL     1      -9.793  14.897  69.647  1.00  0.00    -0.010 A  
BRANCH  27  28
HETATM   28  C   UNL     1      -8.354  14.721  69.463  1.00  0.00     0.081 A  
HETATM   29  N   UNL     1      -7.708  15.017  68.315  1.00  0.00    -0.107 NA 
HETATM   30  N   UNL     1      -6.459  14.657  68.643  1.00  0.00    -0.082 NA 
HETATM   31  H   UNL     1      -5.682  14.751  67.990  1.00  0.00     0.000 HD 
HETATM   32  N   UNL     1      -6.294  14.169  69.874  1.00  0.00    -0.142 NA 
HETATM   33  N   UNL     1      -7.511  14.172  70.400  1.00  0.00     0.845 NA 
ENDBRANCH  27  28
ENDBRANCH  19  22
ENDBRANCH  15  16
ENDBRANCH  11  15
ENDBRANCH   4   5
ENDBRANCH   3   4
ENDBRANCH   2   3
TORSDOF 7
ENDMDL
MODEL      286
REMARK 921   NORMALIZED FREE ENERGY PREDICTED BY IDOCK:   13.53 KCAL/MOL
REMARK 922        TOTAL FREE ENERGY PREDICTED BY IDOCK:   17.12 KCAL/MOL
REMARK 923 INTER-LIGAND FREE ENERGY PREDICTED BY IDOCK:   17.48 KCAL/MOL
REMARK 924 INTRA-LIGAND FREE ENERGY PREDICTED BY IDOCK:   -0.36 KCAL/MOL
REMARK 927      BINDING AFFINITY PREDICTED BY RF-SCORE:    0.00 PKD
ROOT
HETATM    1  C   UNL     1      -6.376  13.309  65.667  1.00  0.00     7.547 C  
HETATM    2  C   UNL     1      -7.651  12.845  66.342  1.00  0.00     1.181 C  
ENDROOT
BRANCH   2   3
HETATM    3  C   UNL     1      -8.618  14.005  66.557  1.00  0.00     0.156 C  
BRANCH   3   4
HETATM    4  C   UNL     1      -8.955  14.714  65.250  1.00  0.00     1.628 C  
BRANCH   4   5
HETATM    5  C   UNL     1      -9.539  16.070  65.528  1.00  0.00    -0.075 C  
HETATM    6  N   UNL     1      -8.765  17.114  65.498  1.00  0.00    -0.026 NA 
HETATM    7  C   UNL     1      -9.672  18.262  65.740  1.00  0.00     0.245 C  
HETATM    8  C   UNL     1     -10.965  17.594  66.175  1.00  0.00     0.263 C  
HETATM    9  C   UNL     1      -9.884  19.025  64.427  1.00  0.00     6.263 C  
HETATM   10  O   UNL     1     -11.917  18.122  66.730  1.00  0.00     2.274 OA 
HETATM   11  N   UNL     1     -10.839  16.277  65.810  1.00  0.00    -0.226 N  
HETATM   12  C   UNL     1     -10.045  20.467  64.877  1.00  0.00     1.301 C  
HETATM   13  C   UNL     1      -9.010  20.595  65.983  1.00  0.00     0.288 C  
HETATM   14  C   UNL     1      -9.069  19.260  66.728  1.00  0.00    -0.362 C  
BRANCH  11  15
HETATM   15  C   UNL     1     -11.955  15.340  65.909  1.00  0.00     0.307 C  
BRANCH  15  16
HETATM   16  C   UNL     1     -11.656  14.186  66.849  1.00  0.00    -0.410 A  
HETATM   17  C   UNL     1     -11.170  14.412  68.136  1.00  0.00    -0.300 A  
HETATM   18  C   UNL     1     -10.649  13.359  68.903  1.00  0.00    -0.181 A  
HETATM   19  C   UNL     1     -10.655  12.026  68.446  1.00  0.00    -0.236 A  
HETATM   20  C   UNL     1     -11.349  11.796  67.250  1.00  0.00    -0.379 A  
HETATM   21  C   UNL     1     -11.791  12.855  66.435  1.00  0.00    -0.478 A  
BRANCH  19  22
HETATM   22  C   UNL     1      -9.898  10.960  69.187  1.00  0.00    -0.164 A  
HETATM   23  C   UNL     1      -8.587  10.634  68.753  1.00  0.00    -0.150 A  
HETATM   24  C   UNL     1      -7.844   9.579  69.297  1.00  0.00    -0.088 A  
HETATM   25  C   UNL     1      -8.367   8.829  70.333  1.00  0.00    -0.146 A  
HETATM   26  C   UNL     1      -9.633   9.138  70.820  1.00  0.00    -0.338 A  
HETATM   27  C   UNL     1     -10.419  10.177  70.258  1.00  0.00    -0.284 A  
BRANCH  27  28
HETATM   28  C   UNL     1     -11.757  10.321  70.829  1.00  0.00    -0.360 A  
HETATM   29  N   UNL     1     -12.016  11.024  71.952  1.00  0.00     0.655 NA 
HETATM   30  N   UNL     1     -13.336  10.821  72.062  1.00  0.00    -0.524 NA 
HETATM   31  H   UNL     1     -13.883  11.225  72.822  1.00  0.00     0.000 HD 
HETATM   32  N   UNL     1     -13.894  10.060  71.117  1.00  0.00    -0.028 NA 
HETATM   33  N   UNL     1     -12.883   9.703  70.338  1.00  0.00     0.130 NA 
ENDBRANCH  27  28
ENDBRANCH  19  22
ENDBRANCH  15  16
ENDBRANCH  11  15
ENDBRANCH   4   5
ENDBRANCH   3   4
ENDBRANCH   2   3
TORSDOF 7
ENDMDL
MODEL      287
REMARK 921   NORMALIZED FREE ENERGY PREDICTED BY IDOCK:   17.23 KCAL/MOL
REMARK 922        TOTAL FREE ENERGY PREDICTED BY IDOCK:   22.33 KCAL/MOL
REMARK 923 INTER-LIGAND FREE ENERGY PREDICTED BY IDOCK:    0.42 KCAL/MOL
REMARK 924 INTRA-LIGAND FREE ENERGY PREDICTED BY IDOCK:   21.91 KCAL/MOL
REMARK 927      BINDING AFFINITY PREDICTED BY RF-SCORE:    0.00 PKD
ROOT
HETATM    1  C   UNL     1     -11.926  14.602  68.343  1.00  0.00    -0.289 C  
HETATM    2  C   UNL     1     -11.968  13.294  67.579  1.00  0.00    -0.371 C  
ENDROOT
BRANCH   2   3
HETATM    3  C   UNL     1     -10.652  13.033  66.854  1.00  0.00    -0.260 C  
BRANCH   3   4
HETATM    4  C   UNL     1      -9.604  12.423  67.780  1.00  0.00    -0.202 C  
BRANCH   4   5
HETATM    5  C   UNL     1     -10.233  11.384  68.665  1.00  0.00    -0.208 C  
HETATM    6  N   UNL     1     -10.203  10.136  68.302  1.00  0.00    -0.159 NA 
HETATM    7  C   UNL     1     -10.835   9.402  69.425  1.00  0.00    -0.189 C  
HETATM    8  C   UNL     1     -11.437  10.514  70.267  1.00  0.00    -0.333 C  
HETATM    9  C   UNL     1      -9.754   8.660  70.218  1.00  0.00    -0.191 C  
HETATM   10  O   UNL     1     -12.276  10.399  71.148  1.00  0.00    -0.336 OA 
HETATM   11  N   UNL     1     -10.836  11.669  69.834  1.00  0.00     0.156 N  
HETATM   12  C   UNL     1     -10.465   7.406  70.700  1.00  0.00    -0.224 C  
HETATM   13  C   UNL     1     -11.310   7.013  69.499  1.00  0.00    -0.138 C  
HETATM   14  C   UNL     1     -11.812   8.339  68.925  1.00  0.00     1.836 C  
BRANCH  11  15
HETATM   15  C   UNL     1     -11.029  12.943  70.523  1.00  0.00     1.811 C  
BRANCH  15  16
HETATM   16  C   UNL     1     -10.342  14.093  69.808  1.00  0.00     0.370 A  
HETATM   17  C   UNL     1     -10.460  14.258  68.429  1.00  0.00    -0.249 A  
HETATM   18  C   UNL     1      -9.626  15.149  67.738  1.00  0.00    -0.203 A  
HETATM   19  C   UNL     1      -8.687  15.964  68.402  1.00  0.00    -0.183 A  
HETATM   20  C   UNL     1      -8.746  15.942  69.803  1.00  0.00     0.198 A  
HETATM   21  C   UNL     1      -9.513  14.987  70.496  1.00  0.00     1.007 A  
BRANCH  19  22
HETATM   22  C   UNL     1      -7.663  16.742  67.624  1.00  0.00    -0.183 A  
HETATM   23  C   UNL     1      -6.388  16.956  68.209  1.00  0.00    -0.138 A  
HETATM   24  C   UNL     1      -5.406  17.765  67.623  1.00  0.00    -0.140 A  
HETATM   25  C   UNL     1      -5.645  18.361  66.398  1.00  0.00    -0.182 A  
HETATM   26  C   UNL     1      -6.865  18.145  65.767  1.00  0.00    -0.305 A  
HETATM   27  C   UNL     1      -7.889  17.362  66.361  1.00  0.00    -0.337 A  
BRANCH  27  28
HETATM   28  C   UNL     1      -9.140  17.301  65.607  1.00  0.00     0.449 A  
HETATM   29  N   UNL     1      -9.625  16.165  65.060  1.00  0.00     0.083 NA 
HETATM   30  N   UNL     1     -10.733  16.638  64.472  1.00  0.00    -0.772 NA 
HETATM   31  H   UNL     1     -11.367  16.033  63.952  1.00  0.00     0.000 HD 
HETATM   32  N   UNL     1     -10.957  17.947  64.608  1.00  0.00    -0.222 NA 
HETATM   33  N   UNL     1      -9.921  18.391  65.306  1.00  0.00     0.319 NA 
ENDBRANCH  27  28
ENDBRANCH  19  22
ENDBRANCH  15  16
ENDBRANCH  11  15
ENDBRANCH   4   5
ENDBRANCH   3   4
ENDBRANCH   2   3
TORSDOF 7
ENDMDL
MODEL      288
REMARK 921   NORMALIZED FREE ENERGY PREDICTED BY IDOCK:   19.03 KCAL/MOL
REMARK 922        TOTAL FREE ENERGY PREDICTED BY IDOCK:   24.87 KCAL/MOL
REMARK 923 INTER-LIGAND FREE ENERGY PREDICTED BY IDOCK:   17.89 KCAL/MOL
REMARK 924 INTRA-LIGAND FREE ENERGY PREDICTED BY IDOCK:    6.99 KCAL/MOL
REMARK 927      BINDING AFFINITY PREDICTED BY RF-SCORE:    0.00 PKD
ROOT
HETATM    1  C   UNL     1     -11.581   8.306  69.215  1.00  0.00     0.829 C  
HETATM    2  C   UNL     1     -11.880   7.133  68.304  1.00  0.00     1.450 C  
ENDROOT
BRANCH   2   3
HETATM    3  C   UNL     1     -12.049   5.842  69.100  1.00  0.00     3.154 C  
BRANCH   3   4
HETATM    4  C   UNL     1     -11.715   4.611  68.264  1.00  0.00     6.842 C  
BRANCH   4   5
HETATM    5  C   UNL     1     -10.371   4.774  67.610  1.00  0.00     0.035 C  
HETATM    6  N   UNL     1     -10.078   4.051  66.571  1.00  0.00    -0.081 NA 
HETATM    7  C   UNL     1      -8.733   4.520  66.154  1.00  0.00    -0.114 C  
HETATM    8  C   UNL     1      -8.294   5.387  67.321  1.00  0.00    -0.107 C  
HETATM    9  C   UNL     1      -8.864   5.366  64.883  1.00  0.00    -0.054 C  
HETATM   10  O   UNL     1      -7.162   5.779  67.563  1.00  0.00    -0.073 OA 
HETATM   11  N   UNL     1      -9.435   5.641  68.041  1.00  0.00    -0.108 N  
HETATM   12  C   UNL     1      -7.574   5.078  64.132  1.00  0.00    -0.067 C  
HETATM   13  C   UNL     1      -7.376   3.589  64.357  1.00  0.00    -0.067 C  
HETATM   14  C   UNL     1      -7.812   3.352  65.804  1.00  0.00    -0.085 C  
BRANCH  11  15
HETATM   15  C   UNL     1      -9.451   6.589  69.152  1.00  0.00    -0.135 C  
BRANCH  15  16
HETATM   16  C   UNL     1      -9.043   7.987  68.722  1.00  0.00    -0.144 A  
HETATM   17  C   UNL     1      -9.306   9.093  69.528  1.00  0.00    -0.165 A  
HETATM   18  C   UNL     1      -9.172  10.396  69.025  1.00  0.00    -0.194 A  
HETATM   19  C   UNL     1      -8.704  10.651  67.720  1.00  0.00    -0.129 A  
HETATM   20  C   UNL     1      -8.237   9.534  67.013  1.00  0.00    -0.113 A  
HETATM   21  C   UNL     1      -8.453   8.223  67.475  1.00  0.00    -0.130 A  
BRANCH  19  22
HETATM   22  C   UNL     1      -8.779  12.034  67.137  1.00  0.00    -0.183 A  
HETATM   23  C   UNL     1      -7.614  12.580  66.538  1.00  0.00     0.558 A  
HETATM   24  C   UNL     1      -7.543  13.899  66.073  1.00  0.00     3.481 A  
HETATM   25  C   UNL     1      -8.654  14.718  66.148  1.00  0.00     0.386 A  
HETATM   26  C   UNL     1      -9.832  14.213  66.690  1.00  0.00    -0.289 A  
HETATM   27  C   UNL     1      -9.914  12.892  67.204  1.00  0.00    -0.240 A  
BRANCH  27  28
HETATM   28  C   UNL     1     -11.197  12.543  67.812  1.00  0.00    -0.269 A  
HETATM   29  N   UNL     1     -11.493  12.773  69.109  1.00  0.00    -0.291 NA 
HETATM   30  N   UNL     1     -12.729  12.257  69.167  1.00  0.00     0.598 NA 
HETATM   31  H   UNL     1     -13.276  12.263  70.027  1.00  0.00     0.000 HD 
HETATM   32  N   UNL     1     -13.201  11.736  68.032  1.00  0.00     3.869 NA 
HETATM   33  N   UNL     1     -12.212  11.882  67.162  1.00  0.00    -0.279 NA 
ENDBRANCH  27  28
ENDBRANCH  19  22
ENDBRANCH  15  16
ENDBRANCH  11  15
ENDBRANCH   4   5
ENDBRANCH   3   4
ENDBRANCH   2   3
TORSDOF 7
ENDMDL
MODEL      289
REMARK 921   NORMALIZED FREE ENERGY PREDICTED BY IDOCK:   25.15 KCAL/MOL
REMARK 922        TOTAL FREE ENERGY PREDICTED BY IDOCK:   33.49 KCAL/MOL
REMARK 923 INTER-LIGAND FREE ENERGY PREDICTED BY IDOCK:   32.61 KCAL/MOL
REMARK 924 INTRA-LIGAND FREE ENERGY PREDICTED BY IDOCK:    0.88 KCAL/MOL
REMARK 927      BINDING AFFINITY PREDICTED BY RF-SCORE:    0.00 PKD
ROOT
HETATM    1  C   UNL     1     -10.369  10.778  65.323  1.00  0.00    -0.327 C  
HETATM    2  C   UNL     1      -9.731  11.168  66.641  1.00  0.00    -0.224 C  
ENDROOT
BRANCH   2   3
HETATM    3  C   UNL     1     -10.784  11.579  67.666  1.00  0.00    -0.255 C  
BRANCH   3   4
HETATM    4  C   UNL     1     -10.181  11.769  69.054  1.00  0.00    -0.044 C  
BRANCH   4   5
HETATM    5  C   UNL     1     -10.891  12.876  69.783  1.00  0.00     0.487 C  
HETATM    6  N   UNL     1     -11.504  13.795  69.100  1.00  0.00    -0.279 NA 
HETATM    7  C   UNL     1     -12.140  14.662  70.123  1.00  0.00    -0.327 C  
HETATM    8  C   UNL     1     -11.505  14.187  71.419  1.00  0.00     0.640 C  
HETATM    9  C   UNL     1     -13.650  14.398  70.143  1.00  0.00     0.942 C  
HETATM   10  O   UNL     1     -11.510  14.763  72.496  1.00  0.00    -0.152 OA 
HETATM   11  N   UNL     1     -10.933  12.975  71.125  1.00  0.00     3.093 N  
HETATM   12  C   UNL     1     -14.241  15.753  70.497  1.00  0.00     1.426 C  
HETATM   13  C   UNL     1     -13.378  16.718  69.702  1.00  0.00     5.762 C  
HETATM   14  C   UNL     1     -11.963  16.144  69.796  1.00  0.00    -0.064 C  
BRANCH  11  15
HETATM   15  C   UNL     1     -10.366  12.118  72.163  1.00  0.00    13.609 C  
BRANCH  15  16
HETATM   16  C   UNL     1     -10.512  10.642  71.835  1.00  0.00     4.884 A  
HETATM   17  C   UNL     1     -11.330   9.812  72.599  1.00  0.00     2.309 A  
HETATM   18  C   UNL     1     -11.263   8.417  72.464  1.00  0.00    -0.406 A  
HETATM   19  C   UNL     1     -10.428   7.795  71.515  1.00  0.00    -0.239 A  
HETATM   20  C   UNL     1      -9.788   8.656  70.612  1.00  0.00    -0.220 A  
HETATM   21  C   UNL     1      -9.779  10.051  70.799  1.00  0.00     0.343 A  
BRANCH  19  22
HETATM   22  C   UNL     1     -10.213   6.308  71.542  1.00  0.00    -0.233 A  
HETATM   23  C   UNL     1     -11.206   5.470  70.971  1.00  0.00    -0.011 A  
HETATM   24  C   UNL     1     -11.161   4.073  71.049  1.00  0.00     2.732 A  
HETATM   25  C   UNL     1     -10.092   3.451  71.666  1.00  0.00    -0.104 A  
HETATM   26  C   UNL     1      -9.073   4.230  72.203  1.00  0.00    -0.150 A  
HETATM   27  C   UNL     1      -9.118   5.649  72.171  1.00  0.00    -0.147 A  
BRANCH  27  28
HETATM   28  C   UNL     1      -8.011   6.320  72.850  1.00  0.00    -0.104 A  
HETATM   29  N   UNL     1      -8.182   7.291  73.772  1.00  0.00    -0.125 NA 
HETATM   30  N   UNL     1      -6.905   7.585  74.050  1.00  0.00    -0.084 NA 
HETATM   31  H   UNL     1      -6.651   8.298  74.732  1.00  0.00     0.000 HD 
HETATM   32  N   UNL     1      -5.983   6.888  73.380  1.00  0.00    -0.057 NA 
HETATM   33  N   UNL     1      -6.682   6.095  72.580  1.00  0.00    -0.068 NA 
ENDBRANCH  27  28
ENDBRANCH  19  22
ENDBRANCH  15  16
ENDBRANCH  11  15
ENDBRANCH   4   5
ENDBRANCH   3   4
ENDBRANCH   2   3
TORSDOF 7
ENDMDL
MODEL      290
REMARK 921   NORMALIZED FREE ENERGY PREDICTED BY IDOCK:   27.48 KCAL/MOL
REMARK 922        TOTAL FREE ENERGY PREDICTED BY IDOCK:   36.78 KCAL/MOL
REMARK 923 INTER-LIGAND FREE ENERGY PREDICTED BY IDOCK:   13.58 KCAL/MOL
REMARK 924 INTRA-LIGAND FREE ENERGY PREDICTED BY IDOCK:   23.21 KCAL/MOL
REMARK 927      BINDING AFFINITY PREDICTED BY RF-SCORE:    0.00 PKD
ROOT
HETATM    1  C   UNL     1      -6.355  13.499  65.464  1.00  0.00     9.458 C  
HETATM    2  C   UNL     1      -7.435  12.642  66.092  1.00  0.00     1.702 C  
ENDROOT
BRANCH   2   3
HETATM    3  C   UNL     1      -8.234  13.428  67.127  1.00  0.00    -0.121 C  
BRANCH   3   4
HETATM    4  C   UNL     1      -8.648  14.799  66.604  1.00  0.00    -0.170 C  
BRANCH   4   5
HETATM    5  C   UNL     1      -9.367  15.570  67.675  1.00  0.00    -0.203 C  
HETATM    6  N   UNL     1      -8.835  16.661  68.139  1.00  0.00    -0.201 NA 
HETATM    7  C   UNL     1      -9.832  17.185  69.105  1.00  0.00    -0.187 C  
HETATM    8  C   UNL     1     -10.808  16.029  69.252  1.00  0.00    -0.300 C  
HETATM    9  C   UNL     1     -10.537  18.402  68.496  1.00  0.00    -0.080 C  
HETATM   10  O   UNL     1     -11.647  15.880  70.128  1.00  0.00    -0.324 OA 
HETATM   11  N   UNL     1     -10.552  15.195  68.193  1.00  0.00    -0.241 N  
HETATM   12  C   UNL     1     -10.826  19.283  69.700  1.00  0.00     1.610 C  
HETATM   13  C   UNL     1      -9.564  19.139  70.535  1.00  0.00     1.724 C  
HETATM   14  C   UNL     1      -9.169  17.668  70.394  1.00  0.00     3.223 C  
BRANCH  11  15
HETATM   15  C   UNL     1     -11.406  14.049  67.890  1.00  0.00    -0.291 C  
BRANCH  15  16
HETATM   16  C   UNL     1     -10.611  12.852  67.399  1.00  0.00    -0.242 A  
HETATM   17  C   UNL     1      -9.330  13.005  66.870  1.00  0.00    -0.241 A  
HETATM   18  C   UNL     1      -8.707  11.954  66.182  1.00  0.00    -0.009 A  
HETATM   19  C   UNL     1      -9.305  10.685  66.053  1.00  0.00    -0.219 A  
HETATM   20  C   UNL     1     -10.486  10.492  66.784  1.00  0.00    -0.302 A  
HETATM   21  C   UNL     1     -11.160  11.564  67.397  1.00  0.00    -0.339 A  
BRANCH  19  22
HETATM   22  C   UNL     1      -8.718   9.653  65.131  1.00  0.00    -0.192 A  
HETATM   23  C   UNL     1      -9.235   9.551  63.814  1.00  0.00    -0.076 A  
HETATM   24  C   UNL     1      -8.843   8.549  62.917  1.00  0.00     0.229 A  
HETATM   25  C   UNL     1      -7.881   7.629  63.288  1.00  0.00    -0.134 A  
HETATM   26  C   UNL     1      -7.315   7.715  64.555  1.00  0.00    -0.086 A  
HETATM   27  C   UNL     1      -7.726   8.697  65.494  1.00  0.00    -0.092 A  
BRANCH  27  28
HETATM   28  C   UNL     1      -7.093   8.602  66.809  1.00  0.00    -0.078 A  
HETATM   29  N   UNL     1      -5.864   9.091  67.081  1.00  0.00    -0.046 NA 
HETATM   30  N   UNL     1      -5.742   8.728  68.365  1.00  0.00    -0.038 NA 
HETATM   31  H   UNL     1      -4.908   8.947  68.910  1.00  0.00     0.000 HD 
HETATM   32  N   UNL     1      -6.775   8.065  68.889  1.00  0.00    -0.052 NA 
HETATM   33  N   UNL     1      -7.636   7.946  67.888  1.00  0.00    -0.107 NA 
ENDBRANCH  27  28
ENDBRANCH  19  22
ENDBRANCH  15  16
ENDBRANCH  11  15
ENDBRANCH   4   5
ENDBRANCH   3   4
ENDBRANCH   2   3
TORSDOF 7
ENDMDL
MODEL      291
REMARK 921   NORMALIZED FREE ENERGY PREDICTED BY IDOCK:   30.57 KCAL/MOL
REMARK 922        TOTAL FREE ENERGY PREDICTED BY IDOCK:   41.14 KCAL/MOL
REMARK 923 INTER-LIGAND FREE ENERGY PREDICTED BY IDOCK:   15.99 KCAL/MOL
REMARK 924 INTRA-LIGAND FREE ENERGY PREDICTED BY IDOCK:   25.15 KCAL/MOL
REMARK 927      BINDING AFFINITY PREDICTED BY RF-SCORE:    0.00 PKD
ROOT
HETATM    1  C   UNL     1     -11.872  14.620  69.314  1.00  0.00    -0.357 C  
HETATM    2  C   UNL     1     -11.993  13.311  68.561  1.00  0.00    -0.340 C  
ENDROOT
BRANCH   2   3
HETATM    3  C   UNL     1     -10.653  12.885  67.970  1.00  0.00    -0.238 C  
BRANCH   3   4
HETATM    4  C   UNL     1      -9.860  12.009  68.934  1.00  0.00     0.039 C  
BRANCH   4   5
HETATM    5  C   UNL     1     -10.773  11.039  69.629  1.00  0.00    -0.139 C  
HETATM    6  N   UNL     1     -10.989   9.874  69.096  1.00  0.00    -0.220 NA 
HETATM    7  C   UNL     1     -11.859   9.170  70.069  1.00  0.00     0.258 C  
HETATM    8  C   UNL     1     -12.268  10.275  71.028  1.00  0.00    -0.384 C  
HETATM    9  C   UNL     1     -11.037   8.105  70.805  1.00  0.00    -0.275 C  
HETATM   10  O   UNL     1     -13.181  10.246  71.839  1.00  0.00    -0.437 OA 
HETATM   11  N   UNL     1     -11.393  11.306  70.794  1.00  0.00     0.300 N  
HETATM   12  C   UNL     1     -12.045   6.998  71.067  1.00  0.00    -0.413 C  
HETATM   13  C   UNL     1     -12.853   6.964  69.780  1.00  0.00     2.107 C  
HETATM   14  C   UNL     1     -13.001   8.431  69.374  1.00  0.00     4.367 C  
BRANCH  11  15
HETATM   15  C   UNL     1     -11.356  12.493  71.645  1.00  0.00     3.950 C  
BRANCH  15  16
HETATM   16  C   UNL     1     -10.661  13.663  70.971  1.00  0.00     2.986 A  
HETATM   17  C   UNL     1     -10.814  13.903  69.607  1.00  0.00     0.032 A  
HETATM   18  C   UNL     1      -9.977  14.810  68.939  1.00  0.00    -0.233 A  
HETATM   19  C   UNL     1      -8.999  15.565  69.616  1.00  0.00    -0.158 A  
HETATM   20  C   UNL     1      -9.018  15.470  71.014  1.00  0.00     2.757 A  
HETATM   21  C   UNL     1      -9.789  14.499  71.679  1.00  0.00     4.053 A  
BRANCH  19  22
HETATM   22  C   UNL     1      -7.978  16.358  68.849  1.00  0.00    -0.236 A  
HETATM   23  C   UNL     1      -8.352  17.629  68.339  1.00  0.00    -0.290 A  
HETATM   24  C   UNL     1      -7.519  18.393  67.513  1.00  0.00    -0.221 A  
HETATM   25  C   UNL     1      -6.253  17.937  67.198  1.00  0.00    -0.176 A  
HETATM   26  C   UNL     1      -5.827  16.716  67.710  1.00  0.00    -0.152 A  
HETATM   27  C   UNL     1      -6.669  15.906  68.516  1.00  0.00    -0.123 A  
BRANCH  27  28
HETATM   28  C   UNL     1      -6.102  14.616  68.905  1.00  0.00    -0.086 A  
HETATM   29  N   UNL     1      -5.720  14.321  70.166  1.00  0.00    -0.118 NA 
HETATM   30  N   UNL     1      -5.254  13.077  69.990  1.00  0.00    -0.088 NA 
HETATM   31  H   UNL     1      -4.876  12.528  70.761  1.00  0.00     0.000 HD 
HETATM   32  N   UNL     1      -5.314  12.599  68.745  1.00  0.00    -0.058 NA 
HETATM   33  N   UNL     1      -5.824  13.592  68.031  1.00  0.00    -0.120 NA 
ENDBRANCH  27  28
ENDBRANCH  19  22
ENDBRANCH  15  16
ENDBRANCH  11  15
ENDBRANCH   4   5
ENDBRANCH   3   4
ENDBRANCH   2   3
TORSDOF 7
ENDMDL
MODEL      292
REMARK 921   NORMALIZED FREE ENERGY PREDICTED BY IDOCK:   36.83 KCAL/MOL
REMARK 922        TOTAL FREE ENERGY PREDICTED BY IDOCK:   49.95 KCAL/MOL
REMARK 923 INTER-LIGAND FREE ENERGY PREDICTED BY IDOCK:   49.70 KCAL/MOL
REMARK 924 INTRA-LIGAND FREE ENERGY PREDICTED BY IDOCK:    0.25 KCAL/MOL
REMARK 927      BINDING AFFINITY PREDICTED BY RF-SCORE:    0.00 PKD
ROOT
HETATM    1  C   UNL     1     -11.189   4.645  63.730  1.00  0.00     1.164 C  
HETATM    2  C   UNL     1     -11.399   5.732  64.765  1.00  0.00     4.191 C  
ENDROOT
BRANCH   2   3
HETATM    3  C   UNL     1     -11.547   7.101  64.109  1.00  0.00    17.433 C  
BRANCH   3   4
HETATM    4  C   UNL     1     -11.312   8.235  65.101  1.00  0.00     9.162 C  
BRANCH   4   5
HETATM    5  C   UNL     1      -9.845   8.551  65.194  1.00  0.00     1.177 C  
HETATM    6  N   UNL     1      -9.023   7.636  65.611  1.00  0.00    -0.060 NA 
HETATM    7  C   UNL     1      -7.681   8.259  65.505  1.00  0.00    -0.101 C  
HETATM    8  C   UNL     1      -8.000   9.720  65.239  1.00  0.00    -0.123 C  
HETATM    9  C   UNL     1      -6.934   7.653  64.311  1.00  0.00    -0.060 C  
HETATM   10  O   UNL     1      -7.239  10.671  65.337  1.00  0.00    -0.110 OA 
HETATM   11  N   UNL     1      -9.319   9.745  64.863  1.00  0.00    -0.257 N  
HETATM   12  C   UNL     1      -5.481   7.668  64.758  1.00  0.00    -0.033 C  
HETATM   13  C   UNL     1      -5.572   7.270  66.221  1.00  0.00    -0.027 C  
HETATM   14  C   UNL     1      -6.827   7.975  66.740  1.00  0.00    -0.072 C  
BRANCH  11  15
HETATM   15  C   UNL     1      -9.954  10.960  64.358  1.00  0.00    -0.322 C  
BRANCH  15  16
HETATM   16  C   UNL     1     -10.066  12.037  65.423  1.00  0.00    -0.285 A  
HETATM   17  C   UNL     1      -8.952  12.446  66.153  1.00  0.00     0.030 A  
HETATM   18  C   UNL     1      -9.097  13.238  67.302  1.00  0.00    -0.221 A  
HETATM   19  C   UNL     1     -10.353  13.711  67.732  1.00  0.00    -0.241 A  
HETATM   20  C   UNL     1     -11.423  13.473  66.858  1.00  0.00    -0.374 A  
HETATM   21  C   UNL     1     -11.301  12.606  65.757  1.00  0.00    -0.370 A  
BRANCH  19  22
HETATM   22  C   UNL     1     -10.505  14.367  69.076  1.00  0.00    -0.227 A  
HETATM   23  C   UNL     1     -10.730  15.767  69.124  1.00  0.00    -0.246 A  
HETATM   24  C   UNL     1     -10.767  16.492  70.321  1.00  0.00    -0.088 A  
HETATM   25  C   UNL     1     -10.623  15.836  71.530  1.00  0.00     0.688 A  
HETATM   26  C   UNL     1     -10.442  14.457  71.534  1.00  0.00     2.549 A  
HETATM   27  C   UNL     1     -10.361  13.708  70.331  1.00  0.00     2.165 A  
BRANCH  27  28
HETATM   28  C   UNL     1     -10.087  12.283  70.505  1.00  0.00     4.473 A  
HETATM   29  N   UNL     1      -8.968  11.806  71.091  1.00  0.00     8.687 NA 
HETATM   30  N   UNL     1      -9.180  10.488  70.975  1.00  0.00     1.356 NA 
HETATM   31  H   UNL     1      -8.514   9.801  71.327  1.00  0.00     0.000 HD 
HETATM   32  N   UNL     1     -10.316  10.127  70.372  1.00  0.00    -0.204 NA 
HETATM   33  N   UNL     1     -10.891  11.272  70.033  1.00  0.00     0.045 NA 
ENDBRANCH  27  28
ENDBRANCH  19  22
ENDBRANCH  15  16
ENDBRANCH  11  15
ENDBRANCH   4   5
ENDBRANCH   3   4
ENDBRANCH   2   3
TORSDOF 7
ENDMDL
