MODEL        1
REMARK 921   NORMALIZED FREE ENERGY PREDICTED BY IDOCK:   -8.20 KCAL/MOL
REMARK 922        TOTAL FREE ENERGY PREDICTED BY IDOCK:  -11.62 KCAL/MOL
REMARK 923 INTER-LIGAND FREE ENERGY PREDICTED BY IDOCK:  -10.59 KCAL/MOL
REMARK 924 INTRA-LIGAND FREE ENERGY PREDICTED BY IDOCK:   -1.03 KCAL/MOL
REMARK 927      BINDING AFFINITY PREDICTED BY RF-SCORE:    0.00 PKD
ROOT
HETATM    1  C   UNL     1     -12.983  10.463  71.069  1.00  0.00    -0.490 C  
HETATM    2  C   UNL     1     -11.542  10.702  70.657  1.00  0.00    -0.432 C  
ENDROOT
BRANCH   2   3
HETATM    3  C   UNL     1     -11.258  10.244  69.245  1.00  0.00    -0.281 A  
HETATM    4  C   UNL     1     -10.901   8.929  69.011  1.00  0.00    -0.071 A  
HETATM    5  C   UNL     1     -10.841   7.802  69.984  1.00  0.00    -0.241 A  
HETATM    6  N   UNL     1     -10.355   6.706  69.167  1.00  0.00    -0.182 N  
HETATM    7  C   UNL     1     -10.138   7.086  67.854  1.00  0.00    -0.169 A  
HETATM    8  C   UNL     1      -9.673   6.179  66.983  1.00  0.00    -0.167 C  
HETATM    9  C   UNL     1     -10.509   8.518  67.741  1.00  0.00    -0.223 A  
HETATM   10  N   UNL     1     -10.441   9.330  66.667  1.00  0.00    -0.210 NA 
HETATM   11  C   UNL     1      -9.332   4.819  67.456  1.00  0.00    -0.156 C  
HETATM   12  C   UNL     1      -9.589   4.470  68.729  1.00  0.00    -0.227 C  
HETATM   13  C   UNL     1     -10.826  10.629  66.871  1.00  0.00    -0.205 A  
HETATM   14  C   UNL     1     -10.776  11.574  65.835  1.00  0.00    -0.325 A  
HETATM   15  C   UNL     1     -10.170   5.454  69.679  1.00  0.00    -0.274 C  
HETATM   16  C   UNL     1      -9.308   3.139  69.320  1.00  0.00    -0.153 C  
HETATM   17  C   UNL     1     -11.136  12.934  66.010  1.00  0.00    -0.308 A  
HETATM   18  O   UNL     1     -10.428   5.141  70.837  1.00  0.00    -0.237 OA 
HETATM   19  O   UNL     1      -8.542   2.255  68.488  1.00  0.00    -0.064 OA 
HETATM   20  C   UNL     1      -8.241   2.477  67.194  1.00  0.00    -0.081 C  
HETATM   21  C   UNL     1     -11.593  13.367  67.247  1.00  0.00    -0.360 A  
HETATM   22  C   UNL     1      -8.689   3.816  66.524  1.00  0.00    -0.118 C  
HETATM   23  H   UNL     1      -9.268   2.881  64.933  1.00  0.00     0.000 HD 
HETATM   24  O   UNL     1      -7.670   1.593  66.557  1.00  0.00    -0.064 OA 
HETATM   25  C   UNL     1     -11.726  12.437  68.269  1.00  0.00    -0.398 A  
HETATM   26  O   UNL     1      -9.672   3.512  65.518  1.00  0.00    -0.155 OA 
HETATM   27  C   UNL     1     -11.282  11.106  68.132  1.00  0.00    -0.356 A  
BRANCH  21  28
HETATM   28  O   UNL     1     -11.945  14.732  67.429  1.00  0.00    -0.357 OA 
BRANCH  28  29
HETATM   29  C   UNL     1     -11.338  15.481  68.464  1.00  0.00    -0.351 C  
HETATM   30  C   UNL     1      -9.740  18.678  68.577  1.00  0.00    -0.409 C  
HETATM   31  N   UNL     1     -10.351  16.366  68.045  1.00  0.00    -0.277 N  
HETATM   32  C   UNL     1      -9.698  17.222  69.034  1.00  0.00    -0.201 C  
HETATM   33  O   UNL     1     -11.658  15.392  69.648  1.00  0.00    -0.285 OA 
HETATM   34  C   UNL     1      -9.814  16.457  66.694  1.00  0.00    -0.261 C  
HETATM   35  C   UNL     1      -9.790  17.913  66.220  1.00  0.00    -0.307 C  
HETATM   36  C   UNL     1      -9.045  18.857  67.207  1.00  0.00    -0.280 C  
BRANCH  36  37
HETATM   37  N   UNL     1      -7.576  18.617  67.252  1.00  0.00    -0.225 NA 
HETATM   38  C   UNL     1      -6.931  18.615  65.922  1.00  0.00    -0.270 C  
HETATM   39  C   UNL     1      -6.880  19.992  65.255  1.00  0.00    -0.328 C  
HETATM   40  C   UNL     1      -6.212  21.026  66.159  1.00  0.00    -0.302 C  
HETATM   41  C   UNL     1      -6.797  20.993  67.568  1.00  0.00    -0.409 C  
HETATM   42  C   UNL     1      -6.829  19.562  68.112  1.00  0.00    -0.271 C  
ENDBRANCH  36  37
ENDBRANCH  28  29
ENDBRANCH  21  28
BRANCH  22  43
HETATM   43  C   UNL     1      -7.460   4.388  65.774  1.00  0.00    -0.081 C  
HETATM   44  C   UNL     1      -6.275   4.765  66.656  1.00  0.00    -0.032 C  
ENDBRANCH  22  43
ENDBRANCH   2   3
TORSDOF 5
ENDMDL
MODEL        2
REMARK 921   NORMALIZED FREE ENERGY PREDICTED BY IDOCK:   -7.95 KCAL/MOL
REMARK 922        TOTAL FREE ENERGY PREDICTED BY IDOCK:  -11.30 KCAL/MOL
REMARK 923 INTER-LIGAND FREE ENERGY PREDICTED BY IDOCK:  -10.41 KCAL/MOL
REMARK 924 INTRA-LIGAND FREE ENERGY PREDICTED BY IDOCK:   -0.89 KCAL/MOL
REMARK 927      BINDING AFFINITY PREDICTED BY RF-SCORE:    0.00 PKD
ROOT
HETATM    1  C   UNL     1     -14.266   9.009  71.826  1.00  0.00    -0.326 C  
HETATM    2  C   UNL     1     -13.047   9.892  72.020  1.00  0.00    -0.545 C  
ENDROOT
BRANCH   2   3
HETATM    3  C   UNL     1     -11.897   9.498  71.122  1.00  0.00    -0.436 A  
HETATM    4  C   UNL     1     -11.291   8.267  71.286  1.00  0.00    -0.308 A  
HETATM    5  C   UNL     1     -11.683   7.161  72.205  1.00  0.00    -0.284 A  
HETATM    6  N   UNL     1     -10.650   6.171  71.964  1.00  0.00    -0.211 N  
HETATM    7  C   UNL     1      -9.730   6.590  71.020  1.00  0.00    -0.175 A  
HETATM    8  C   UNL     1      -8.707   5.783  70.704  1.00  0.00    -0.137 C  
HETATM    9  C   UNL     1     -10.150   7.937  70.562  1.00  0.00    -0.192 A  
HETATM   10  N   UNL     1      -9.553   8.755  69.672  1.00  0.00    -0.169 NA 
HETATM   11  C   UNL     1      -8.541   4.499  71.421  1.00  0.00    -0.127 C  
HETATM   12  C   UNL     1      -9.473   4.103  72.307  1.00  0.00    -0.186 C  
HETATM   13  C   UNL     1     -10.159   9.967  69.469  1.00  0.00    -0.227 A  
HETATM   14  C   UNL     1      -9.618  10.914  68.585  1.00  0.00    -0.192 A  
HETATM   15  C   UNL     1     -10.645   4.966  72.607  1.00  0.00    -0.215 C  
HETATM   16  C   UNL     1      -9.430   2.837  73.078  1.00  0.00    -0.091 C  
HETATM   17  C   UNL     1     -10.196  12.189  68.368  1.00  0.00    -0.212 A  
HETATM   18  O   UNL     1     -11.512   4.606  73.397  1.00  0.00    -0.328 OA 
HETATM   19  O   UNL     1      -8.201   2.104  72.974  1.00  0.00    -0.056 OA 
HETATM   20  C   UNL     1      -7.205   2.383  72.110  1.00  0.00    -0.038 C  
HETATM   21  C   UNL     1     -11.370  12.530  69.025  1.00  0.00    -0.290 A  
HETATM   22  C   UNL     1      -7.330   3.628  71.175  1.00  0.00    -0.033 C  
HETATM   23  H   UNL     1      -6.674   2.617  69.662  1.00  0.00     0.000 HD 
HETATM   24  O   UNL     1      -6.246   1.614  72.042  1.00  0.00    -0.013 OA 
HETATM   25  C   UNL     1     -11.969  11.584  69.846  1.00  0.00    -0.426 A  
HETATM   26  O   UNL     1      -7.435   3.165  69.817  1.00  0.00    -0.044 OA 
HETATM   27  C   UNL     1     -11.354  10.351  70.141  1.00  0.00    -0.397 A  
BRANCH  21  28
HETATM   28  O   UNL     1     -11.947  13.812  68.819  1.00  0.00    -0.346 OA 
BRANCH  28  29
HETATM   29  C   UNL     1     -11.790  14.459  67.572  1.00  0.00    -0.386 C  
HETATM   30  C   UNL     1      -9.216  16.507  66.168  1.00  0.00    -0.338 C  
HETATM   31  N   UNL     1     -10.983  15.591  67.597  1.00  0.00    -0.310 N  
HETATM   32  C   UNL     1     -10.718  16.303  66.348  1.00  0.00    -0.182 C  
HETATM   33  O   UNL     1     -12.297  14.058  66.526  1.00  0.00    -0.457 OA 
HETATM   34  C   UNL     1     -10.440  16.217  68.796  1.00  0.00    -0.282 C  
HETATM   35  C   UNL     1      -8.942  16.488  68.631  1.00  0.00    -0.236 C  
HETATM   36  C   UNL     1      -8.612  17.304  67.349  1.00  0.00    -0.205 C  
BRANCH  36  37
HETATM   37  N   UNL     1      -9.083  18.715  67.414  1.00  0.00    -0.277 NA 
HETATM   38  C   UNL     1      -8.583  19.457  68.590  1.00  0.00    -0.358 C  
HETATM   39  C   UNL     1      -7.082  19.758  68.541  1.00  0.00    -0.353 C  
HETATM   40  C   UNL     1      -6.701  20.492  67.258  1.00  0.00    -0.324 C  
HETATM   41  C   UNL     1      -7.278  19.798  66.027  1.00  0.00    -0.305 C  
HETATM   42  C   UNL     1      -8.773  19.518  66.210  1.00  0.00    -0.359 C  
ENDBRANCH  36  37
ENDBRANCH  28  29
ENDBRANCH  21  28
BRANCH  22  43
HETATM   43  C   UNL     1      -5.995   4.408  71.268  1.00  0.00    -0.017 C  
HETATM   44  C   UNL     1      -5.670   4.986  72.641  1.00  0.00    -0.017 C  
ENDBRANCH  22  43
ENDBRANCH   2   3
TORSDOF 5
ENDMDL
MODEL        3
REMARK 921   NORMALIZED FREE ENERGY PREDICTED BY IDOCK:   -7.90 KCAL/MOL
REMARK 922        TOTAL FREE ENERGY PREDICTED BY IDOCK:  -11.23 KCAL/MOL
REMARK 923 INTER-LIGAND FREE ENERGY PREDICTED BY IDOCK:  -10.06 KCAL/MOL
REMARK 924 INTRA-LIGAND FREE ENERGY PREDICTED BY IDOCK:   -1.17 KCAL/MOL
REMARK 927      BINDING AFFINITY PREDICTED BY RF-SCORE:    0.00 PKD
ROOT
HETATM    1  C   UNL     1      -9.291  10.974  63.055  1.00  0.00    -0.363 C  
HETATM    2  C   UNL     1     -10.431  11.165  64.039  1.00  0.00    -0.447 C  
ENDROOT
BRANCH   2   3
HETATM    3  C   UNL     1      -9.967  11.733  65.361  1.00  0.00    -0.284 A  
HETATM    4  C   UNL     1     -10.069  13.091  65.595  1.00  0.00    -0.276 A  
HETATM    5  C   UNL     1     -10.690  14.133  64.730  1.00  0.00    -0.419 A  
HETATM    6  N   UNL     1     -10.440  15.352  65.475  1.00  0.00    -0.350 N  
HETATM    7  C   UNL     1      -9.755  15.116  66.654  1.00  0.00    -0.258 A  
HETATM    8  C   UNL     1      -9.439  16.153  67.443  1.00  0.00    -0.227 C  
HETATM    9  C   UNL     1      -9.529  13.652  66.748  1.00  0.00    -0.270 A  
HETATM   10  N   UNL     1      -8.883  12.953  67.702  1.00  0.00    -0.175 NA 
HETATM   11  C   UNL     1      -9.762  17.529  67.005  1.00  0.00    -0.284 C  
HETATM   12  C   UNL     1     -10.460  17.723  65.872  1.00  0.00    -0.251 C  
HETATM   13  C   UNL     1      -8.804  11.599  67.505  1.00  0.00    -0.158 A  
HETATM   14  C   UNL     1      -8.134  10.768  68.417  1.00  0.00    -0.127 A  
HETATM   15  C   UNL     1     -10.872  16.569  65.031  1.00  0.00    -0.229 C  
HETATM   16  C   UNL     1     -10.857  19.046  65.333  1.00  0.00     0.240 C  
HETATM   17  C   UNL     1      -8.004   9.368  68.237  1.00  0.00    -0.094 A  
HETATM   18  O   UNL     1     -11.528  16.732  64.007  1.00  0.00    -1.198 OA 
HETATM   19  O   UNL     1     -10.276  20.174  66.004  1.00  0.00    -0.456 OA 
HETATM   20  C   UNL     1      -9.579  20.115  67.156  1.00  0.00    -0.420 C  
HETATM   21  C   UNL     1      -8.584   8.764  67.130  1.00  0.00    -0.117 A  
HETATM   22  C   UNL     1      -9.307  18.723  67.813  1.00  0.00    -0.293 C  
HETATM   23  H   UNL     1      -9.739  19.414  69.567  1.00  0.00     0.000 HD 
HETATM   24  O   UNL     1      -9.224  21.165  67.690  1.00  0.00    -0.110 OA 
HETATM   25  C   UNL     1      -9.317   9.550  66.252  1.00  0.00    -0.242 A  
HETATM   26  O   UNL     1     -10.024  18.664  69.060  1.00  0.00    -0.385 OA 
HETATM   27  C   UNL     1      -9.373  10.953  66.372  1.00  0.00    -0.199 A  
BRANCH  21  28
HETATM   28  O   UNL     1      -8.445   7.362  66.940  1.00  0.00    -0.118 OA 
BRANCH  28  29
HETATM   29  C   UNL     1      -9.478   6.492  67.358  1.00  0.00    -0.124 C  
HETATM   30  C   UNL     1     -10.595   5.356  70.559  1.00  0.00    -0.312 C  
HETATM   31  N   UNL     1      -9.251   5.855  68.572  1.00  0.00    -0.117 N  
HETATM   32  C   UNL     1     -10.283   4.972  69.115  1.00  0.00    -0.157 C  
HETATM   33  O   UNL     1     -10.517   6.315  66.726  1.00  0.00    -0.228 OA 
HETATM   34  C   UNL     1      -8.009   5.899  69.333  1.00  0.00    -0.102 C  
HETATM   35  C   UNL     1      -8.288   6.229  70.802  1.00  0.00    -0.126 C  
HETATM   36  C   UNL     1      -9.331   5.273  71.448  1.00  0.00    -0.148 C  
BRANCH  36  37
HETATM   37  N   UNL     1      -8.823   3.885  71.629  1.00  0.00    -0.101 NA 
HETATM   38  C   UNL     1      -7.625   3.796  72.490  1.00  0.00    -0.060 C  
HETATM   39  C   UNL     1      -7.900   4.093  73.967  1.00  0.00    -0.084 C  
HETATM   40  C   UNL     1      -9.010   3.201  74.519  1.00  0.00    -0.094 C  
HETATM   41  C   UNL     1     -10.231   3.203  73.604  1.00  0.00    -0.205 C  
HETATM   42  C   UNL     1      -9.826   2.931  72.152  1.00  0.00    -0.169 C  
ENDBRANCH  36  37
ENDBRANCH  28  29
ENDBRANCH  21  28
BRANCH  22  43
HETATM   43  C   UNL     1      -7.801  18.672  68.174  1.00  0.00    -0.309 C  
HETATM   44  C   UNL     1      -6.844  18.713  66.987  1.00  0.00    -0.207 C  
ENDBRANCH  22  43
ENDBRANCH   2   3
TORSDOF 5
ENDMDL
MODEL        4
REMARK 921   NORMALIZED FREE ENERGY PREDICTED BY IDOCK:   -7.76 KCAL/MOL
REMARK 922        TOTAL FREE ENERGY PREDICTED BY IDOCK:  -11.05 KCAL/MOL
REMARK 923 INTER-LIGAND FREE ENERGY PREDICTED BY IDOCK:   -9.91 KCAL/MOL
REMARK 924 INTRA-LIGAND FREE ENERGY PREDICTED BY IDOCK:   -1.14 KCAL/MOL
REMARK 927      BINDING AFFINITY PREDICTED BY RF-SCORE:    0.00 PKD
ROOT
HETATM    1  C   UNL     1      -9.065   9.757  65.523  1.00  0.00    -0.242 C  
HETATM    2  C   UNL     1     -10.409   9.398  66.131  1.00  0.00    -0.162 C  
ENDROOT
BRANCH   2   3
HETATM    3  C   UNL     1     -10.443   9.605  67.628  1.00  0.00    -0.317 A  
HETATM    4  C   UNL     1     -10.024   8.590  68.467  1.00  0.00    -0.201 A  
HETATM    5  C   UNL     1      -9.418   7.279  68.101  1.00  0.00    -0.133 A  
HETATM    6  N   UNL     1      -9.248   6.638  69.391  1.00  0.00    -0.142 N  
HETATM    7  C   UNL     1      -9.685   7.435  70.435  1.00  0.00    -0.175 A  
HETATM    8  C   UNL     1      -9.603   6.967  71.689  1.00  0.00    -0.160 C  
HETATM    9  C   UNL     1     -10.169   8.708  69.846  1.00  0.00    -0.203 A  
HETATM   10  N   UNL     1     -10.712   9.776  70.464  1.00  0.00    -0.297 NA 
HETATM   11  C   UNL     1      -9.121   5.588  71.924  1.00  0.00    -0.149 C  
HETATM   12  C   UNL     1      -8.669   4.853  70.893  1.00  0.00    -0.140 C  
HETATM   13  C   UNL     1     -11.099  10.808  69.650  1.00  0.00    -0.279 A  
HETATM   14  C   UNL     1     -11.699  11.963  70.175  1.00  0.00    -0.337 A  
HETATM   15  C   UNL     1      -8.694   5.396  69.509  1.00  0.00    -0.102 C  
HETATM   16  C   UNL     1      -8.149   3.468  70.998  1.00  0.00    -0.065 C  
HETATM   17  C   UNL     1     -12.142  13.040  69.367  1.00  0.00    -0.267 A  
HETATM   18  O   UNL     1      -8.265   4.743  68.564  1.00  0.00    -0.084 OA 
HETATM   19  O   UNL     1      -8.330   2.848  72.280  1.00  0.00    -0.067 OA 
HETATM   20  C   UNL     1      -8.748   3.480  73.393  1.00  0.00    -0.085 C  
HETATM   21  C   UNL     1     -11.957  12.987  67.992  1.00  0.00    -0.290 A  
HETATM   22  C   UNL     1      -9.137   4.992  73.313  1.00  0.00    -0.125 C  
HETATM   23  H   UNL     1      -8.195   5.370  74.960  1.00  0.00     0.000 HD 
HETATM   24  O   UNL     1      -8.759   2.863  74.458  1.00  0.00    -0.074 OA 
HETATM   25  C   UNL     1     -11.297  11.890  67.454  1.00  0.00    -0.389 A  
HETATM   26  O   UNL     1      -8.185   5.745  74.087  1.00  0.00    -0.105 OA 
HETATM   27  C   UNL     1     -10.938  10.774  68.236  1.00  0.00    -0.307 A  
BRANCH  21  28
HETATM   28  O   UNL     1     -12.409  14.060  67.178  1.00  0.00    -0.373 OA 
BRANCH  28  29
HETATM   29  C   UNL     1     -11.548  14.612  66.203  1.00  0.00    -0.332 C  
HETATM   30  C   UNL     1      -8.433  16.358  66.375  1.00  0.00    -0.364 C  
HETATM   31  N   UNL     1     -10.770  15.676  66.643  1.00  0.00    -0.308 N  
HETATM   32  C   UNL     1      -9.810  16.284  65.723  1.00  0.00    -0.299 C  
HETATM   33  O   UNL     1     -11.458  14.185  65.053  1.00  0.00    -0.325 OA 
HETATM   34  C   UNL     1     -10.890  16.333  67.938  1.00  0.00    -0.330 C  
HETATM   35  C   UNL     1      -9.517  16.474  68.600  1.00  0.00    -0.243 C  
HETATM   36  C   UNL     1      -8.474  17.179  67.686  1.00  0.00    -0.200 C  
BRANCH  36  37
HETATM   37  N   UNL     1      -8.763  18.624  67.471  1.00  0.00    -0.268 NA 
HETATM   38  C   UNL     1      -8.731  19.429  68.710  1.00  0.00    -0.337 C  
HETATM   39  C   UNL     1      -7.328  19.599  69.302  1.00  0.00    -0.294 C  
HETATM   40  C   UNL     1      -6.356  20.177  68.276  1.00  0.00    -0.322 C  
HETATM   41  C   UNL     1      -6.429  19.421  66.953  1.00  0.00    -0.194 C  
HETATM   42  C   UNL     1      -7.880  19.283  66.483  1.00  0.00    -0.278 C  
ENDBRANCH  36  37
ENDBRANCH  28  29
ENDBRANCH  21  28
BRANCH  22  43
HETATM   43  C   UNL     1     -10.503   5.153  74.026  1.00  0.00    -0.323 C  
HETATM   44  C   UNL     1     -11.651   4.349  73.425  1.00  0.00    -0.225 C  
ENDBRANCH  22  43
ENDBRANCH   2   3
TORSDOF 5
ENDMDL
MODEL        5
REMARK 921   NORMALIZED FREE ENERGY PREDICTED BY IDOCK:   -7.70 KCAL/MOL
REMARK 922        TOTAL FREE ENERGY PREDICTED BY IDOCK:  -10.97 KCAL/MOL
REMARK 923 INTER-LIGAND FREE ENERGY PREDICTED BY IDOCK:  -10.08 KCAL/MOL
REMARK 924 INTRA-LIGAND FREE ENERGY PREDICTED BY IDOCK:   -0.90 KCAL/MOL
REMARK 927      BINDING AFFINITY PREDICTED BY RF-SCORE:    0.00 PKD
ROOT
HETATM    1  C   UNL     1     -11.576  12.153  63.332  1.00  0.00    -0.508 C  
HETATM    2  C   UNL     1     -10.201  12.225  63.971  1.00  0.00    -0.399 C  
ENDROOT
BRANCH   2   3
HETATM    3  C   UNL     1     -10.108  11.411  65.241  1.00  0.00    -0.315 A  
HETATM    4  C   UNL     1      -9.574  10.136  65.198  1.00  0.00    -0.354 A  
HETATM    5  C   UNL     1      -8.951   9.435  64.041  1.00  0.00    -0.132 A  
HETATM    6  N   UNL     1      -8.640   8.130  64.593  1.00  0.00    -0.018 N  
HETATM    7  C   UNL     1      -9.012   8.020  65.922  1.00  0.00    -0.137 A  
HETATM    8  C   UNL     1      -8.799   6.862  66.564  1.00  0.00    -0.148 C  
HETATM    9  C   UNL     1      -9.599   9.321  66.326  1.00  0.00    -0.248 A  
HETATM   10  N   UNL     1     -10.125   9.683  67.513  1.00  0.00    -0.184 NA 
HETATM   11  C   UNL     1      -8.242   5.709  65.824  1.00  0.00    -0.122 C  
HETATM   12  C   UNL     1      -7.855   5.858  64.544  1.00  0.00    -0.115 C  
HETATM   13  C   UNL     1     -10.627  10.956  67.585  1.00  0.00    -0.224 A  
HETATM   14  C   UNL     1     -11.223  11.439  68.760  1.00  0.00    -0.308 A  
HETATM   15  C   UNL     1      -8.027   7.162  63.851  1.00  0.00    -0.076 C  
HETATM   16  C   UNL     1      -7.272   4.788  63.700  1.00  0.00    -0.049 C  
HETATM   17  C   UNL     1     -11.780  12.737  68.869  1.00  0.00    -0.370 A  
HETATM   18  O   UNL     1      -7.659   7.317  62.691  1.00  0.00    -0.095 OA 
HETATM   19  O   UNL     1      -7.311   3.473  64.274  1.00  0.00    -0.060 OA 
HETATM   20  C   UNL     1      -7.652   3.195  65.548  1.00  0.00    -0.077 C  
HETATM   21  C   UNL     1     -11.718  13.602  67.785  1.00  0.00    -0.362 A  
HETATM   22  C   UNL     1      -8.107   4.357  66.488  1.00  0.00    -0.102 C  
HETATM   23  H   UNL     1      -7.037   3.663  67.942  1.00  0.00     0.000 HD 
HETATM   24  O   UNL     1      -7.542   2.038  65.952  1.00  0.00    -0.068 OA 
HETATM   25  C   UNL     1     -11.065  13.178  66.635  1.00  0.00    -0.316 A  
HETATM   26  O   UNL     1      -7.121   4.512  67.524  1.00  0.00    -0.062 OA 
HETATM   27  C   UNL     1     -10.593  11.859  66.485  1.00  0.00    -0.278 A  
BRANCH  21  28
HETATM   28  O   UNL     1     -12.285  14.901  67.886  1.00  0.00    -0.167 OA 
BRANCH  28  29
HETATM   29  C   UNL     1     -11.754  15.828  68.811  1.00  0.00    -0.378 C  
HETATM   30  C   UNL     1     -10.120  18.990  68.464  1.00  0.00    -0.467 C  
HETATM   31  N   UNL     1     -10.722  16.619  68.320  1.00  0.00    -0.338 N  
HETATM   32  C   UNL     1     -10.139  17.644  69.185  1.00  0.00    -0.232 C  
HETATM   33  O   UNL     1     -12.173  15.961  69.959  1.00  0.00    -0.325 OA 
HETATM   34  C   UNL     1     -10.074  16.458  67.025  1.00  0.00    -0.272 C  
HETATM   35  C   UNL     1      -9.987  17.800  66.294  1.00  0.00    -0.322 C  
HETATM   36  C   UNL     1      -9.311  18.911  67.148  1.00  0.00    -0.300 C  
BRANCH  36  37
HETATM   37  N   UNL     1      -7.854  18.683  67.360  1.00  0.00    -0.231 NA 
HETATM   38  C   UNL     1      -7.082  18.553  66.106  1.00  0.00    -0.266 C  
HETATM   39  C   UNL     1      -6.959  19.859  65.316  1.00  0.00    -0.273 C  
HETATM   40  C   UNL     1      -6.378  20.979  66.176  1.00  0.00    -0.282 C  
HETATM   41  C   UNL     1      -7.098  21.082  67.517  1.00  0.00    -0.359 C  
HETATM   42  C   UNL     1      -7.190  19.710  68.193  1.00  0.00    -0.302 C  
ENDBRANCH  36  37
ENDBRANCH  28  29
ENDBRANCH  21  28
BRANCH  22  43
HETATM   43  C   UNL     1      -9.409   3.896  67.191  1.00  0.00    -0.216 C  
HETATM   44  C   UNL     1      -9.285   3.633  68.688  1.00  0.00    -0.221 C  
ENDBRANCH  22  43
ENDBRANCH   2   3
TORSDOF 5
ENDMDL
MODEL        6
REMARK 921   NORMALIZED FREE ENERGY PREDICTED BY IDOCK:   -7.61 KCAL/MOL
REMARK 922        TOTAL FREE ENERGY PREDICTED BY IDOCK:  -10.87 KCAL/MOL
REMARK 923 INTER-LIGAND FREE ENERGY PREDICTED BY IDOCK:  -10.30 KCAL/MOL
REMARK 924 INTRA-LIGAND FREE ENERGY PREDICTED BY IDOCK:   -0.56 KCAL/MOL
REMARK 927      BINDING AFFINITY PREDICTED BY RF-SCORE:    0.00 PKD
ROOT
HETATM    1  C   UNL     1     -10.983  13.312  69.450  1.00  0.00    -0.067 C  
HETATM    2  C   UNL     1     -12.016  12.258  69.095  1.00  0.00    -0.303 C  
ENDROOT
BRANCH   2   3
HETATM    3  C   UNL     1     -11.399  11.026  68.472  1.00  0.00    -0.355 A  
HETATM    4  C   UNL     1     -11.209   9.894  69.242  1.00  0.00    -0.174 A  
HETATM    5  C   UNL     1     -11.631   9.653  70.650  1.00  0.00    -0.299 A  
HETATM    6  N   UNL     1     -11.108   8.326  70.913  1.00  0.00    -0.256 N  
HETATM    7  C   UNL     1     -10.446   7.796  69.820  1.00  0.00    -0.233 A  
HETATM    8  C   UNL     1      -9.896   6.577  69.920  1.00  0.00    -0.185 C  
HETATM    9  C   UNL     1     -10.526   8.797  68.728  1.00  0.00    -0.191 A  
HETATM   10  N   UNL     1     -10.005   8.740  67.485  1.00  0.00    -0.183 NA 
HETATM   11  C   UNL     1      -9.942   5.859  71.213  1.00  0.00    -0.232 C  
HETATM   12  C   UNL     1     -10.624   6.384  72.245  1.00  0.00    -0.242 C  
HETATM   13  C   UNL     1     -10.215   9.839  66.695  1.00  0.00    -0.226 A  
HETATM   14  C   UNL     1      -9.700   9.909  65.391  1.00  0.00    -0.375 A  
HETATM   15  C   UNL     1     -11.295   7.705  72.115  1.00  0.00    -0.293 C  
HETATM   16  C   UNL     1     -10.757   5.760  73.584  1.00  0.00    -0.251 C  
HETATM   17  C   UNL     1      -9.868  11.038  64.552  1.00  0.00    -0.343 A  
HETATM   18  O   UNL     1     -11.938   8.184  73.043  1.00  0.00    -0.269 OA 
HETATM   19  O   UNL     1      -9.932   4.605  73.799  1.00  0.00    -0.142 OA 
HETATM   20  C   UNL     1      -9.223   3.971  72.845  1.00  0.00    -0.111 C  
HETATM   21  C   UNL     1     -10.599  12.127  65.007  1.00  0.00    -0.291 A  
HETATM   22  C   UNL     1      -9.222   4.541  71.390  1.00  0.00    -0.136 C  
HETATM   23  H   UNL     1      -9.439   2.769  70.646  1.00  0.00     0.000 HD 
HETATM   24  O   UNL     1      -8.640   2.927  73.133  1.00  0.00    -0.078 OA 
HETATM   25  C   UNL     1     -11.184  12.055  66.263  1.00  0.00    -0.394 A  
HETATM   26  O   UNL     1      -9.892   3.597  70.534  1.00  0.00    -0.176 OA 
HETATM   27  C   UNL     1     -10.944  10.978  67.141  1.00  0.00    -0.344 A  
BRANCH  21  28
HETATM   28  O   UNL     1     -10.760  13.266  64.172  1.00  0.00    -0.405 OA 
BRANCH  28  29
HETATM   29  C   UNL     1     -11.472  14.390  64.649  1.00  0.00    -0.387 C  
HETATM   30  C   UNL     1     -10.475  17.611  65.841  1.00  0.00    -0.247 C  
HETATM   31  N   UNL     1     -10.766  15.198  65.534  1.00  0.00    -0.340 N  
HETATM   32  C   UNL     1     -11.398  16.413  66.045  1.00  0.00     0.504 C  
HETATM   33  O   UNL     1     -12.619  14.667  64.304  1.00  0.00    -0.688 OA 
HETATM   34  C   UNL     1      -9.458  14.893  66.099  1.00  0.00    -0.295 C  
HETATM   35  C   UNL     1      -8.518  16.094  65.960  1.00  0.00    -0.155 C  
HETATM   36  C   UNL     1      -9.117  17.402  66.553  1.00  0.00    -0.266 C  
BRANCH  36  37
HETATM   37  N   UNL     1      -9.225  17.378  68.038  1.00  0.00    -0.259 NA 
HETATM   38  C   UNL     1      -7.979  16.967  68.719  1.00  0.00    -0.254 C  
HETATM   39  C   UNL     1      -6.851  17.999  68.625  1.00  0.00    -0.249 C  
HETATM   40  C   UNL     1      -7.300  19.366  69.135  1.00  0.00    -0.364 C  
HETATM   41  C   UNL     1      -8.631  19.781  68.515  1.00  0.00    -0.269 C  
HETATM   42  C   UNL     1      -9.665  18.657  68.639  1.00  0.00    -0.377 C  
ENDBRANCH  36  37
ENDBRANCH  28  29
ENDBRANCH  21  28
BRANCH  22  43
HETATM   43  C   UNL     1      -7.747   4.588  70.916  1.00  0.00    -0.064 C  
HETATM   44  C   UNL     1      -7.362   3.540  69.878  1.00  0.00    -0.041 C  
ENDBRANCH  22  43
ENDBRANCH   2   3
TORSDOF 5
ENDMDL
MODEL        7
REMARK 921   NORMALIZED FREE ENERGY PREDICTED BY IDOCK:   -7.55 KCAL/MOL
REMARK 922        TOTAL FREE ENERGY PREDICTED BY IDOCK:  -10.78 KCAL/MOL
REMARK 923 INTER-LIGAND FREE ENERGY PREDICTED BY IDOCK:   -9.70 KCAL/MOL
REMARK 924 INTRA-LIGAND FREE ENERGY PREDICTED BY IDOCK:   -1.07 KCAL/MOL
REMARK 927      BINDING AFFINITY PREDICTED BY RF-SCORE:    0.00 PKD
ROOT
HETATM    1  C   UNL     1     -10.235  10.412  69.600  1.00  0.00    -0.245 C  
HETATM    2  C   UNL     1     -11.252  10.133  68.509  1.00  0.00    -0.226 C  
ENDROOT
BRANCH   2   3
HETATM    3  C   UNL     1     -10.607   9.715  67.207  1.00  0.00    -0.315 A  
HETATM    4  C   UNL     1     -10.040   8.459  67.098  1.00  0.00    -0.335 A  
HETATM    5  C   UNL     1     -10.051   7.351  68.094  1.00  0.00    -0.179 A  
HETATM    6  N   UNL     1      -9.259   6.329  67.437  1.00  0.00    -0.116 N  
HETATM    7  C   UNL     1      -8.808   6.732  66.192  1.00  0.00    -0.148 A  
HETATM    8  C   UNL     1      -8.049   5.894  65.472  1.00  0.00    -0.131 C  
HETATM    9  C   UNL     1      -9.327   8.102  65.958  1.00  0.00    -0.117 A  
HETATM   10  N   UNL     1      -9.129   8.914  64.900  1.00  0.00    -0.086 NA 
HETATM   11  C   UNL     1      -7.649   4.592  66.049  1.00  0.00    -0.090 C  
HETATM   12  C   UNL     1      -8.133   4.213  67.245  1.00  0.00    -0.099 C  
HETATM   13  C   UNL     1      -9.715  10.151  64.975  1.00  0.00    -0.318 A  
HETATM   14  C   UNL     1      -9.559  11.094  63.947  1.00  0.00    -0.286 A  
HETATM   15  C   UNL     1      -9.032   5.113  68.015  1.00  0.00    -0.110 C  
HETATM   16  C   UNL     1      -7.820   2.933  67.924  1.00  0.00    -0.059 C  
HETATM   17  C   UNL     1     -10.122  12.394  63.997  1.00  0.00    -0.342 A  
HETATM   18  O   UNL     1      -9.497   4.770  69.097  1.00  0.00    -0.124 OA 
HETATM   19  O   UNL     1      -6.782   2.157  67.307  1.00  0.00    -0.038 OA 
HETATM   20  C   UNL     1      -6.234   2.415  66.104  1.00  0.00    -0.024 C  
HETATM   21  C   UNL     1     -10.893  12.764  65.090  1.00  0.00    -0.291 A  
HETATM   22  C   UNL     1      -6.692   3.682  65.312  1.00  0.00    -0.045 C  
HETATM   23  H   UNL     1      -6.780   2.677  63.662  1.00  0.00     0.000 HD 
HETATM   24  O   UNL     1      -5.427   1.614  65.635  1.00  0.00    -0.008 OA 
HETATM   25  C   UNL     1     -11.127  11.826  66.086  1.00  0.00    -0.358 A  
HETATM   26  O   UNL     1      -7.381   3.249  64.125  1.00  0.00    -0.060 OA 
HETATM   27  C   UNL     1     -10.495  10.566  66.091  1.00  0.00    -0.237 A  
BRANCH  21  28
HETATM   28  O   UNL     1     -11.450  14.071  65.149  1.00  0.00    -0.309 OA 
BRANCH  28  29
HETATM   29  C   UNL     1     -10.831  15.061  65.945  1.00  0.00    -0.337 C  
HETATM   30  C   UNL     1     -10.231  15.377  69.456  1.00  0.00    -0.273 C  
HETATM   31  N   UNL     1     -11.283  15.124  67.258  1.00  0.00    -0.334 N  
HETATM   32  C   UNL     1     -10.670  16.083  68.177  1.00  0.00    -0.311 C  
HETATM   33  O   UNL     1      -9.941  15.806  65.538  1.00  0.00    -0.333 OA 
HETATM   34  C   UNL     1     -12.410  14.377  67.802  1.00  0.00     0.013 C  
HETATM   35  C   UNL     1     -12.023  13.698  69.119  1.00  0.00    -0.394 C  
HETATM   36  C   UNL     1     -11.427  14.690  70.158  1.00  0.00    -0.259 C  
BRANCH  36  37
HETATM   37  N   UNL     1     -12.430  15.650  70.695  1.00  0.00    -0.429 NA 
HETATM   38  C   UNL     1     -13.702  15.018  71.103  1.00  0.00    -0.414 C  
HETATM   39  C   UNL     1     -13.585  14.142  72.355  1.00  0.00    -0.632 C  
HETATM   40  C   UNL     1     -12.987  14.918  73.525  1.00  0.00    -0.518 C  
HETATM   41  C   UNL     1     -11.717  15.656  73.112  1.00  0.00    -0.441 C  
HETATM   42  C   UNL     1     -11.948  16.465  71.833  1.00  0.00    -0.324 C  
ENDBRANCH  36  37
ENDBRANCH  28  29
ENDBRANCH  21  28
BRANCH  22  43
HETATM   43  C   UNL     1      -5.412   4.411  64.832  1.00  0.00    -0.013 C  
HETATM   44  C   UNL     1      -5.377   4.758  63.347  1.00  0.00    -0.009 C  
ENDBRANCH  22  43
ENDBRANCH   2   3
TORSDOF 5
ENDMDL
MODEL        8
REMARK 921   NORMALIZED FREE ENERGY PREDICTED BY IDOCK:   -7.51 KCAL/MOL
REMARK 922        TOTAL FREE ENERGY PREDICTED BY IDOCK:  -10.73 KCAL/MOL
REMARK 923 INTER-LIGAND FREE ENERGY PREDICTED BY IDOCK:   -9.94 KCAL/MOL
REMARK 924 INTRA-LIGAND FREE ENERGY PREDICTED BY IDOCK:   -0.78 KCAL/MOL
REMARK 927      BINDING AFFINITY PREDICTED BY RF-SCORE:    0.00 PKD
ROOT
HETATM    1  C   UNL     1     -13.509  11.234  71.813  1.00  0.00    -0.223 C  
HETATM    2  C   UNL     1     -12.049  11.418  71.441  1.00  0.00     0.046 C  
ENDROOT
BRANCH   2   3
HETATM    3  C   UNL     1     -11.617  10.507  70.314  1.00  0.00    -0.417 A  
HETATM    4  C   UNL     1     -11.229   9.210  70.594  1.00  0.00    -0.322 A  
HETATM    5  C   UNL     1     -11.263   8.498  71.902  1.00  0.00    -0.327 A  
HETATM    6  N   UNL     1     -10.688   7.207  71.574  1.00  0.00    -0.223 N  
HETATM    7  C   UNL     1     -10.339   7.113  70.238  1.00  0.00    -0.201 A  
HETATM    8  C   UNL     1      -9.780   5.979  69.790  1.00  0.00    -0.194 C  
HETATM    9  C   UNL     1     -10.705   8.398  69.593  1.00  0.00    -0.198 A  
HETATM   10  N   UNL     1     -10.532   8.785  68.314  1.00  0.00    -0.210 NA 
HETATM   11  C   UNL     1      -9.481   4.886  70.742  1.00  0.00    -0.232 C  
HETATM   12  C   UNL     1      -9.867   4.994  72.026  1.00  0.00    -0.226 C  
HETATM   13  C   UNL     1     -10.944  10.055  68.009  1.00  0.00    -0.240 A  
HETATM   14  C   UNL     1     -10.793  10.580  66.717  1.00  0.00    -0.209 A  
HETATM   15  C   UNL     1     -10.549   6.223  72.509  1.00  0.00    -0.212 C  
HETATM   16  C   UNL     1      -9.640   3.967  73.072  1.00  0.00    -0.126 C  
HETATM   17  C   UNL     1     -11.179  11.898  66.366  1.00  0.00    -0.387 A  
HETATM   18  O   UNL     1     -10.924   6.324  73.673  1.00  0.00    -0.184 OA 
HETATM   19  O   UNL     1      -8.786   2.882  72.681  1.00  0.00    -0.081 OA 
HETATM   20  C   UNL     1      -8.355   2.649  71.426  1.00  0.00    -0.062 C  
HETATM   21  C   UNL     1     -11.764  12.717  67.322  1.00  0.00    -0.378 A  
HETATM   22  C   UNL     1      -8.739   3.649  70.289  1.00  0.00    -0.073 C  
HETATM   23  H   UNL     1      -9.144   2.193  69.081  1.00  0.00     0.000 HD 
HETATM   24  O   UNL     1      -7.715   1.623  71.199  1.00  0.00    -0.032 OA 
HETATM   25  C   UNL     1     -11.996  12.198  68.588  1.00  0.00    -0.290 A  
HETATM   26  O   UNL     1      -9.611   2.971  69.366  1.00  0.00    -0.140 OA 
HETATM   27  C   UNL     1     -11.531  10.924  68.972  1.00  0.00    -0.371 A  
BRANCH  21  28
HETATM   28  O   UNL     1     -12.141  14.044  66.978  1.00  0.00    -0.427 OA 
BRANCH  28  29
HETATM   29  C   UNL     1     -11.402  14.753  66.004  1.00  0.00    -0.332 C  
HETATM   30  C   UNL     1      -8.364  16.636  66.110  1.00  0.00    -0.305 C  
HETATM   31  N   UNL     1     -10.633  15.800  66.501  1.00  0.00    -0.309 N  
HETATM   32  C   UNL     1      -9.793  16.564  65.579  1.00  0.00    -0.024 C  
HETATM   33  O   UNL     1     -11.402  14.470  64.808  1.00  0.00    -0.372 OA 
HETATM   34  C   UNL     1     -10.659  16.293  67.871  1.00  0.00    -0.318 C  
HETATM   35  C   UNL     1      -9.236  16.431  68.421  1.00  0.00    -0.217 C  
HETATM   36  C   UNL     1      -8.317  17.294  67.510  1.00  0.00    -0.196 C  
BRANCH  36  37
HETATM   37  N   UNL     1      -8.688  18.736  67.500  1.00  0.00    -0.273 NA 
HETATM   38  C   UNL     1      -8.577  19.390  68.821  1.00  0.00    -0.335 C  
HETATM   39  C   UNL     1      -7.135  19.566  69.305  1.00  0.00    -0.372 C  
HETATM   40  C   UNL     1      -6.288  20.314  68.278  1.00  0.00    -0.333 C  
HETATM   41  C   UNL     1      -6.450  19.716  66.884  1.00  0.00    -0.202 C  
HETATM   42  C   UNL     1      -7.931  19.555  66.528  1.00  0.00    -0.301 C  
ENDBRANCH  36  37
ENDBRANCH  28  29
ENDBRANCH  21  28
BRANCH  22  43
HETATM   43  C   UNL     1      -7.443   3.974  69.505  1.00  0.00    -0.053 C  
HETATM   44  C   UNL     1      -7.439   3.542  68.042  1.00  0.00    -0.061 C  
ENDBRANCH  22  43
ENDBRANCH   2   3
TORSDOF 5
ENDMDL
MODEL        9
REMARK 921   NORMALIZED FREE ENERGY PREDICTED BY IDOCK:   -7.40 KCAL/MOL
REMARK 922        TOTAL FREE ENERGY PREDICTED BY IDOCK:  -10.59 KCAL/MOL
REMARK 923 INTER-LIGAND FREE ENERGY PREDICTED BY IDOCK:   -9.75 KCAL/MOL
REMARK 924 INTRA-LIGAND FREE ENERGY PREDICTED BY IDOCK:   -0.83 KCAL/MOL
REMARK 927      BINDING AFFINITY PREDICTED BY RF-SCORE:    0.00 PKD
ROOT
HETATM    1  C   UNL     1      -9.171  10.690  65.404  1.00  0.00    -0.226 C  
HETATM    2  C   UNL     1     -10.461  10.041  65.872  1.00  0.00    -0.115 C  
ENDROOT
BRANCH   2   3
HETATM    3  C   UNL     1     -10.517   9.877  67.373  1.00  0.00    -0.325 A  
HETATM    4  C   UNL     1     -10.185   8.660  67.940  1.00  0.00    -0.273 A  
HETATM    5  C   UNL     1      -9.658   7.441  67.267  1.00  0.00    -0.150 A  
HETATM    6  N   UNL     1      -9.561   6.493  68.361  1.00  0.00    -0.123 N  
HETATM    7  C   UNL     1      -9.969   7.038  69.565  1.00  0.00    -0.162 A  
HETATM    8  C   UNL     1      -9.948   6.273  70.667  1.00  0.00    -0.221 C  
HETATM    9  C   UNL     1     -10.355   8.447  69.305  1.00  0.00    -0.214 A  
HETATM   10  N   UNL     1     -10.841   9.366  70.163  1.00  0.00    -0.237 NA 
HETATM   11  C   UNL     1      -9.563   4.849  70.559  1.00  0.00    -0.253 C  
HETATM   12  C   UNL     1      -9.136   4.359  69.382  1.00  0.00    -0.171 C  
HETATM   13  C   UNL     1     -11.141  10.590  69.625  1.00  0.00    -0.283 A  
HETATM   14  C   UNL     1     -11.676  11.621  70.413  1.00  0.00    -0.292 A  
HETATM   15  C   UNL     1      -9.092   5.225  68.174  1.00  0.00    -0.110 C  
HETATM   16  C   UNL     1      -8.710   2.958  69.147  1.00  0.00    -0.083 C  
HETATM   17  C   UNL     1     -12.028  12.891  69.892  1.00  0.00    -0.377 A  
HETATM   18  O   UNL     1      -8.685   4.795  67.100  1.00  0.00    -0.105 OA 
HETATM   19  O   UNL     1      -8.961   2.057  70.235  1.00  0.00    -0.069 OA 
HETATM   20  C   UNL     1      -9.364   2.424  71.467  1.00  0.00    -0.123 C  
HETATM   21  C   UNL     1     -11.814  13.163  68.548  1.00  0.00    -0.342 A  
HETATM   22  C   UNL     1      -9.650   3.933  71.759  1.00  0.00    -0.158 C  
HETATM   23  H   UNL     1      -8.725   3.830  73.454  1.00  0.00     0.000 HD 
HETATM   24  O   UNL     1      -9.440   1.568  72.347  1.00  0.00    -0.073 OA 
HETATM   25  C   UNL     1     -11.215  12.189  67.761  1.00  0.00    -0.333 A  
HETATM   26  O   UNL     1      -8.670   4.405  72.701  1.00  0.00    -0.108 OA 
HETATM   27  C   UNL     1     -10.949  10.892  68.247  1.00  0.00    -0.293 A  
BRANCH  21  28
HETATM   28  O   UNL     1     -12.176  14.431  68.019  1.00  0.00    -0.281 OA 
BRANCH  28  29
HETATM   29  C   UNL     1     -11.848  15.607  68.731  1.00  0.00    -0.321 C  
HETATM   30  C   UNL     1     -10.287  18.689  67.807  1.00  0.00    -0.454 C  
HETATM   31  N   UNL     1     -10.773  16.323  68.216  1.00  0.00    -0.307 N  
HETATM   32  C   UNL     1     -10.386  17.581  68.852  1.00  0.00    -0.338 C  
HETATM   33  O   UNL     1     -12.466  16.002  69.718  1.00  0.00    -0.170 OA 
HETATM   34  C   UNL     1      -9.902  15.881  67.134  1.00  0.00    -0.231 C  
HETATM   35  C   UNL     1      -9.734  16.988  66.090  1.00  0.00    -0.283 C  
HETATM   36  C   UNL     1      -9.257  18.334  66.708  1.00  0.00    -0.288 C  
BRANCH  36  37
HETATM   37  N   UNL     1      -7.853  18.287  67.204  1.00  0.00    -0.216 NA 
HETATM   38  C   UNL     1      -6.853  18.053  66.142  1.00  0.00    -0.277 C  
HETATM   39  C   UNL     1      -6.678  19.236  65.185  1.00  0.00    -0.182 C  
HETATM   40  C   UNL     1      -6.350  20.522  65.940  1.00  0.00    -0.265 C  
HETATM   41  C   UNL     1      -7.315  20.746  67.101  1.00  0.00    -0.385 C  
HETATM   42  C   UNL     1      -7.433  19.486  67.962  1.00  0.00    -0.285 C  
ENDBRANCH  36  37
ENDBRANCH  28  29
ENDBRANCH  21  28
BRANCH  22  43
HETATM   43  C   UNL     1     -11.020   4.009  72.480  1.00  0.00     0.083 C  
HETATM   44  C   UNL     1     -10.990   4.629  73.873  1.00  0.00    -0.333 C  
ENDBRANCH  22  43
ENDBRANCH   2   3
TORSDOF 5
ENDMDL
MODEL       10
REMARK 921   NORMALIZED FREE ENERGY PREDICTED BY IDOCK:   -7.21 KCAL/MOL
REMARK 922        TOTAL FREE ENERGY PREDICTED BY IDOCK:  -10.35 KCAL/MOL
REMARK 923 INTER-LIGAND FREE ENERGY PREDICTED BY IDOCK:   -9.39 KCAL/MOL
REMARK 924 INTRA-LIGAND FREE ENERGY PREDICTED BY IDOCK:   -0.95 KCAL/MOL
REMARK 927      BINDING AFFINITY PREDICTED BY RF-SCORE:    0.00 PKD
ROOT
HETATM    1  C   UNL     1      -8.407  10.189  64.824  1.00  0.00    -0.167 C  
HETATM    2  C   UNL     1      -9.748   9.603  65.227  1.00  0.00    -0.330 C  
ENDROOT
BRANCH   2   3
HETATM    3  C   UNL     1      -9.931   9.550  66.727  1.00  0.00    -0.297 A  
HETATM    4  C   UNL     1      -9.468   8.455  67.434  1.00  0.00    -0.185 A  
HETATM    5  C   UNL     1      -8.685   7.294  66.927  1.00  0.00    -0.126 A  
HETATM    6  N   UNL     1      -8.550   6.465  68.110  1.00  0.00    -0.118 N  
HETATM    7  C   UNL     1      -9.162   7.026  69.217  1.00  0.00    -0.139 A  
HETATM    8  C   UNL     1      -9.132   6.364  70.383  1.00  0.00    -0.155 C  
HETATM    9  C   UNL     1      -9.741   8.324  68.791  1.00  0.00    -0.157 A  
HETATM   10  N   UNL     1     -10.454   9.212  69.512  1.00  0.00    -0.215 NA 
HETATM   11  C   UNL     1      -8.513   5.022  70.445  1.00  0.00    -0.105 C  
HETATM   12  C   UNL     1      -7.894   4.520  69.362  1.00  0.00    -0.062 C  
HETATM   13  C   UNL     1     -10.890  10.322  68.837  1.00  0.00    -0.228 A  
HETATM   14  C   UNL     1     -11.662  11.305  69.474  1.00  0.00    -0.415 A  
HETATM   15  C   UNL     1      -7.866   5.283  68.087  1.00  0.00    -0.088 C  
HETATM   16  C   UNL     1      -7.226   3.197  69.299  1.00  0.00    -0.045 C  
HETATM   17  C   UNL     1     -12.159  12.453  68.806  1.00  0.00    -0.158 A  
HETATM   18  O   UNL     1      -7.286   4.846  67.098  1.00  0.00    -0.079 OA 
HETATM   19  O   UNL     1      -7.440   2.355  70.441  1.00  0.00    -0.039 OA 
HETATM   20  C   UNL     1      -8.021   2.745  71.593  1.00  0.00    -0.056 C  
HETATM   21  C   UNL     1     -11.854  12.651  67.466  1.00  0.00    -0.334 A  
HETATM   22  C   UNL     1      -8.575   4.201  71.714  1.00  0.00    -0.104 C  
HETATM   23  H   UNL     1      -7.825   4.389  73.487  1.00  0.00     0.000 HD 
HETATM   24  O   UNL     1      -8.049   1.960  72.539  1.00  0.00    -0.051 OA 
HETATM   25  C   UNL     1     -11.028  11.733  66.831  1.00  0.00    -0.333 A  
HETATM   26  O   UNL     1      -7.786   4.905  72.690  1.00  0.00    -0.091 OA 
HETATM   27  C   UNL     1     -10.608  10.543  67.459  1.00  0.00    -0.306 A  
BRANCH  21  28
HETATM   28  O   UNL     1     -12.359  13.794  66.790  1.00  0.00    -0.403 OA 
BRANCH  28  29
HETATM   29  C   UNL     1     -11.536  14.488  65.874  1.00  0.00    -0.349 C  
HETATM   30  C   UNL     1      -8.544  16.414  66.223  1.00  0.00    -0.375 C  
HETATM   31  N   UNL     1     -10.831  15.557  66.414  1.00  0.00    -0.302 N  
HETATM   32  C   UNL     1      -9.913  16.308  65.558  1.00  0.00    -0.182 C  
HETATM   33  O   UNL     1     -11.416  14.173  64.691  1.00  0.00    -0.363 OA 
HETATM   34  C   UNL     1     -10.995  16.086  67.762  1.00  0.00    -0.307 C  
HETATM   35  C   UNL     1      -9.635  16.258  68.443  1.00  0.00    -0.216 C  
HETATM   36  C   UNL     1      -8.641  17.109  67.602  1.00  0.00    -0.212 C  
BRANCH  36  37
HETATM   37  N   UNL     1      -9.026  18.545  67.517  1.00  0.00    -0.274 NA 
HETATM   38  C   UNL     1      -8.867  19.282  68.788  1.00  0.00    -0.346 C  
HETATM   39  C   UNL     1      -7.407  19.498  69.200  1.00  0.00    -0.364 C  
HETATM   40  C   UNL     1      -6.610  20.185  68.094  1.00  0.00    -0.327 C  
HETATM   41  C   UNL     1      -6.823  19.499  66.747  1.00  0.00    -0.207 C  
HETATM   42  C   UNL     1      -8.316  19.306  66.464  1.00  0.00    -0.319 C  
ENDBRANCH  36  37
ENDBRANCH  28  29
ENDBRANCH  21  28
BRANCH  22  43
HETATM   43  C   UNL     1     -10.006   4.100  72.300  1.00  0.00    -0.240 C  
HETATM   44  C   UNL     1     -10.247   4.905  73.573  1.00  0.00    -0.222 C  
ENDBRANCH  22  43
ENDBRANCH   2   3
TORSDOF 5
ENDMDL
MODEL       11
REMARK 921   NORMALIZED FREE ENERGY PREDICTED BY IDOCK:   -7.14 KCAL/MOL
REMARK 922        TOTAL FREE ENERGY PREDICTED BY IDOCK:  -10.25 KCAL/MOL
REMARK 923 INTER-LIGAND FREE ENERGY PREDICTED BY IDOCK:   -8.98 KCAL/MOL
REMARK 924 INTRA-LIGAND FREE ENERGY PREDICTED BY IDOCK:   -1.27 KCAL/MOL
REMARK 927      BINDING AFFINITY PREDICTED BY RF-SCORE:    0.00 PKD
ROOT
HETATM    1  C   UNL     1      -9.012   7.945  66.113  1.00  0.00    -0.214 C  
HETATM    2  C   UNL     1     -10.391   7.848  66.740  1.00  0.00    -0.357 C  
ENDROOT
BRANCH   2   3
HETATM    3  C   UNL     1     -10.589   8.841  67.862  1.00  0.00    -0.236 A  
HETATM    4  C   UNL     1     -10.662  10.191  67.574  1.00  0.00    -0.347 A  
HETATM    5  C   UNL     1     -10.671  10.851  66.239  1.00  0.00    -0.176 A  
HETATM    6  N   UNL     1     -10.707  12.260  66.583  1.00  0.00    -0.239 N  
HETATM    7  C   UNL     1     -10.720  12.466  67.952  1.00  0.00    -0.220 A  
HETATM    8  C   UNL     1     -10.738  13.722  68.421  1.00  0.00    -0.266 C  
HETATM    9  C   UNL     1     -10.712  11.131  68.599  1.00  0.00    -0.198 A  
HETATM   10  N   UNL     1     -10.692  10.825  69.912  1.00  0.00    -0.202 NA 
HETATM   11  C   UNL     1     -10.668  14.856  67.474  1.00  0.00    -0.276 C  
HETATM   12  C   UNL     1     -10.694  14.625  66.150  1.00  0.00    -0.314 C  
HETATM   13  C   UNL     1     -10.657   9.489  70.217  1.00  0.00    -0.266 A  
HETATM   14  C   UNL     1     -10.608   9.047  71.548  1.00  0.00    -0.415 A  
HETATM   15  C   UNL     1     -10.744  13.234  65.627  1.00  0.00    -0.282 C  
HETATM   16  C   UNL     1     -10.643  15.671  65.100  1.00  0.00    -0.424 C  
HETATM   17  C   UNL     1     -10.541   7.678  71.907  1.00  0.00    -0.257 A  
HETATM   18  O   UNL     1     -10.789  13.010  64.421  1.00  0.00    -0.344 OA 
HETATM   19  O   UNL     1     -10.364  16.996  65.579  1.00  0.00    -0.585 OA 
HETATM   20  C   UNL     1     -10.337  17.361  66.875  1.00  0.00    -0.317 C  
HETATM   21  C   UNL     1     -10.553   6.708  70.913  1.00  0.00    -0.224 A  
HETATM   22  C   UNL     1     -10.561  16.278  67.979  1.00  0.00    -0.308 C  
HETATM   23  H   UNL     1     -11.734  17.457  68.966  1.00  0.00     0.000 HD 
HETATM   24  O   UNL     1     -10.194  18.551  67.154  1.00  0.00    -0.340 OA 
HETATM   25  C   UNL     1     -10.678   7.114  69.592  1.00  0.00    -0.256 A  
HETATM   26  O   UNL     1     -11.802  16.564  68.649  1.00  0.00    -0.089 OA 
HETATM   27  C   UNL     1     -10.650   8.473  69.220  1.00  0.00    -0.193 A  
BRANCH  21  28
HETATM   28  O   UNL     1     -10.473   5.334  71.269  1.00  0.00    -0.226 OA 
BRANCH  28  29
HETATM   29  C   UNL     1      -9.209   4.727  71.442  1.00  0.00    -0.142 C  
HETATM   30  C   UNL     1      -6.517   3.965  69.215  1.00  0.00    -0.033 C  
HETATM   31  N   UNL     1      -8.704   4.093  70.313  1.00  0.00    -0.072 N  
HETATM   32  C   UNL     1      -7.379   3.477  70.376  1.00  0.00    -0.041 C  
HETATM   33  O   UNL     1      -8.574   4.763  72.494  1.00  0.00    -0.114 OA 
HETATM   34  C   UNL     1      -9.425   3.887  69.064  1.00  0.00    -0.170 C  
HETATM   35  C   UNL     1      -8.568   4.316  67.869  1.00  0.00    -0.109 C  
HETATM   36  C   UNL     1      -7.170   3.634  67.852  1.00  0.00    -0.055 C  
BRANCH  36  37
HETATM   37  N   UNL     1      -7.232   2.174  67.564  1.00  0.00    -0.051 NA 
HETATM   38  C   UNL     1      -8.060   1.833  66.388  1.00  0.00    -0.080 C  
HETATM   39  C   UNL     1      -7.449   2.267  65.053  1.00  0.00    -0.067 C  
HETATM   40  C   UNL     1      -6.038   1.711  64.878  1.00  0.00    -0.017 C  
HETATM   41  C   UNL     1      -5.181   1.970  66.114  1.00  0.00    -0.005 C  
HETATM   42  C   UNL     1      -5.912   1.530  67.386  1.00  0.00    -0.020 C  
ENDBRANCH  36  37
ENDBRANCH  28  29
ENDBRANCH  21  28
BRANCH  22  43
HETATM   43  C   UNL     1      -9.442  16.462  69.036  1.00  0.00    -0.258 C  
HETATM   44  C   UNL     1      -8.028  16.169  68.547  1.00  0.00    -0.175 C  
ENDBRANCH  22  43
ENDBRANCH   2   3
TORSDOF 5
ENDMDL
MODEL       12
REMARK 921   NORMALIZED FREE ENERGY PREDICTED BY IDOCK:   -6.89 KCAL/MOL
REMARK 922        TOTAL FREE ENERGY PREDICTED BY IDOCK:   -9.93 KCAL/MOL
REMARK 923 INTER-LIGAND FREE ENERGY PREDICTED BY IDOCK:   -8.75 KCAL/MOL
REMARK 924 INTRA-LIGAND FREE ENERGY PREDICTED BY IDOCK:   -1.18 KCAL/MOL
REMARK 927      BINDING AFFINITY PREDICTED BY RF-SCORE:    0.00 PKD
ROOT
HETATM    1  C   UNL     1      -7.737   9.149  68.685  1.00  0.00    -0.092 C  
HETATM    2  C   UNL     1      -8.047  10.163  69.771  1.00  0.00    -0.167 C  
ENDROOT
BRANCH   2   3
HETATM    3  C   UNL     1      -9.259  11.007  69.449  1.00  0.00     0.183 A  
HETATM    4  C   UNL     1      -9.095  12.221  68.808  1.00  0.00     0.129 A  
HETATM    5  C   UNL     1      -7.842  12.818  68.267  1.00  0.00    -0.141 A  
HETATM    6  N   UNL     1      -8.294  14.103  67.770  1.00  0.00    -0.160 N  
HETATM    7  C   UNL     1      -9.650  14.295  67.967  1.00  0.00    -0.223 A  
HETATM    8  C   UNL     1     -10.209  15.448  67.570  1.00  0.00    -0.244 C  
HETATM    9  C   UNL     1     -10.179  13.072  68.620  1.00  0.00    -0.164 A  
HETATM   10  N   UNL     1     -11.435  12.806  69.030  1.00  0.00    -0.290 NA 
HETATM   11  C   UNL     1      -9.357  16.515  67.001  1.00  0.00    -0.242 C  
HETATM   12  C   UNL     1      -8.049  16.284  66.788  1.00  0.00    -0.299 C  
HETATM   13  C   UNL     1     -11.624  11.591  69.636  1.00  0.00    -0.333 A  
HETATM   14  C   UNL     1     -12.882  11.210  70.128  1.00  0.00    -0.067 A  
HETATM   15  C   UNL     1      -7.441  14.980  67.164  1.00  0.00    -0.110 C  
HETATM   16  C   UNL     1      -7.094  17.263  66.214  1.00  0.00    -0.276 C  
HETATM   17  C   UNL     1     -13.114   9.977  70.787  1.00  0.00    -0.316 A  
HETATM   18  O   UNL     1      -6.255  14.750  66.955  1.00  0.00    -0.109 OA 
HETATM   19  O   UNL     1      -7.609  18.594  66.060  1.00  0.00    -0.350 OA 
HETATM   20  C   UNL     1      -8.899  18.948  66.217  1.00  0.00    -0.252 C  
HETATM   21  C   UNL     1     -12.071   9.074  70.937  1.00  0.00    -0.198 A  
HETATM   22  C   UNL     1      -9.938  17.869  66.662  1.00  0.00    -0.355 C  
HETATM   23  H   UNL     1     -11.224  18.504  65.363  1.00  0.00     0.000 HD 
HETATM   24  O   UNL     1      -9.235  20.101  65.951  1.00  0.00    -0.293 OA 
HETATM   25  C   UNL     1     -10.834   9.391  70.392  1.00  0.00    -0.321 A  
HETATM   26  O   UNL     1     -10.858  17.653  65.577  1.00  0.00    -0.462 OA 
HETATM   27  C   UNL     1     -10.570  10.652  69.820  1.00  0.00    -0.233 A  
BRANCH  21  28
HETATM   28  O   UNL     1     -12.297   7.841  71.608  1.00  0.00    -0.300 OA 
BRANCH  28  29
HETATM   29  C   UNL     1     -11.221   7.181  72.245  1.00  0.00    -0.261 C  
HETATM   30  C   UNL     1      -8.222   5.643  71.051  1.00  0.00    -0.121 C  
HETATM   31  N   UNL     1     -10.562   6.242  71.460  1.00  0.00    -0.230 N  
HETATM   32  C   UNL     1      -9.404   5.541  72.011  1.00  0.00    -0.147 C  
HETATM   33  O   UNL     1     -10.861   7.420  73.396  1.00  0.00    -0.388 OA 
HETATM   34  C   UNL     1     -10.984   5.799  70.137  1.00  0.00    -0.298 C  
HETATM   35  C   UNL     1      -9.809   5.836  69.156  1.00  0.00    -0.211 C  
HETATM   36  C   UNL     1      -8.570   5.045  69.667  1.00  0.00    -0.088 C  
BRANCH  36  37
HETATM   37  N   UNL     1      -8.786   3.571  69.695  1.00  0.00    -0.068 NA 
HETATM   38  C   UNL     1      -9.236   3.010  68.405  1.00  0.00    -0.185 C  
HETATM   39  C   UNL     1      -8.161   3.026  67.313  1.00  0.00    -0.084 C  
HETATM   40  C   UNL     1      -6.887   2.323  67.774  1.00  0.00    -0.039 C  
HETATM   41  C   UNL     1      -6.444   2.819  69.147  1.00  0.00    -0.029 C  
HETATM   42  C   UNL     1      -7.610   2.791  70.140  1.00  0.00    -0.043 C  
ENDBRANCH  36  37
ENDBRANCH  28  29
ENDBRANCH  21  28
BRANCH  22  43
HETATM   43  C   UNL     1     -10.767  18.479  67.820  1.00  0.00    -0.378 C  
HETATM   44  C   UNL     1      -9.965  19.266  68.852  1.00  0.00    -0.495 C  
ENDBRANCH  22  43
ENDBRANCH   2   3
TORSDOF 5
ENDMDL
MODEL       13
REMARK 921   NORMALIZED FREE ENERGY PREDICTED BY IDOCK:   -6.88 KCAL/MOL
REMARK 922        TOTAL FREE ENERGY PREDICTED BY IDOCK:   -9.92 KCAL/MOL
REMARK 923 INTER-LIGAND FREE ENERGY PREDICTED BY IDOCK:   -9.22 KCAL/MOL
REMARK 924 INTRA-LIGAND FREE ENERGY PREDICTED BY IDOCK:   -0.70 KCAL/MOL
REMARK 927      BINDING AFFINITY PREDICTED BY RF-SCORE:    0.00 PKD
ROOT
HETATM    1  C   UNL     1     -11.860  10.682  70.167  1.00  0.00    -0.421 C  
HETATM    2  C   UNL     1     -12.031  11.149  68.733  1.00  0.00    -0.337 C  
ENDROOT
BRANCH   2   3
HETATM    3  C   UNL     1     -10.727  11.583  68.105  1.00  0.00    -0.242 A  
HETATM    4  C   UNL     1     -10.323  12.901  68.211  1.00  0.00    -0.248 A  
HETATM    5  C   UNL     1     -10.966  14.005  68.977  1.00  0.00    -0.259 A  
HETATM    6  N   UNL     1     -10.123  15.142  68.660  1.00  0.00    -0.216 N  
HETATM    7  C   UNL     1      -9.085  14.805  67.809  1.00  0.00    -0.186 A  
HETATM    8  C   UNL     1      -8.229  15.760  67.416  1.00  0.00    -0.196 C  
HETATM    9  C   UNL     1      -9.196  13.352  67.531  1.00  0.00    -0.219 A  
HETATM   10  N   UNL     1      -8.428  12.579  66.737  1.00  0.00    -0.125 NA 
HETATM   11  C   UNL     1      -8.455  17.160  67.836  1.00  0.00    -0.212 C  
HETATM   12  C   UNL     1      -9.450  17.450  68.692  1.00  0.00    -0.280 C  
HETATM   13  C   UNL     1      -8.792  11.261  66.648  1.00  0.00    -0.175 A  
HETATM   14  C   UNL     1      -8.085  10.363  65.833  1.00  0.00    -0.149 A  
HETATM   15  C   UNL     1     -10.358  16.380  69.185  1.00  0.00    -0.289 C  
HETATM   16  C   UNL     1      -9.771  18.806  69.198  1.00  0.00    -0.195 C  
HETATM   17  C   UNL     1      -8.445   9.000  65.689  1.00  0.00    -0.163 A  
HETATM   18  O   UNL     1     -11.256  16.628  69.982  1.00  0.00    -0.247 OA 
HETATM   19  O   UNL     1      -9.057  19.876  68.561  1.00  0.00    -0.277 OA 
HETATM   20  C   UNL     1      -8.026  19.718  67.708  1.00  0.00    -0.299 C  
HETATM   21  C   UNL     1      -9.526   8.499  66.401  1.00  0.00    -0.232 A  
HETATM   22  C   UNL     1      -7.581  18.275  67.306  1.00  0.00    -0.217 C  
HETATM   23  H   UNL     1      -5.715  18.744  67.506  1.00  0.00     0.000 HD 
HETATM   24  O   UNL     1      -7.426  20.716  67.311  1.00  0.00    -0.325 OA 
HETATM   25  C   UNL     1     -10.196   9.345  67.274  1.00  0.00    -0.308 A  
HETATM   26  O   UNL     1      -6.264  18.044  67.839  1.00  0.00    -0.165 OA 
HETATM   27  C   UNL     1      -9.906  10.722  67.352  1.00  0.00    -0.204 A  
BRANCH  21  28
HETATM   28  O   UNL     1      -9.897   7.135  66.251  1.00  0.00    -0.094 OA 
BRANCH  28  29
HETATM   29  C   UNL     1      -9.063   6.120  66.771  1.00  0.00    -0.133 C  
HETATM   30  C   UNL     1      -9.366   3.854  69.521  1.00  0.00    -0.246 C  
HETATM   31  N   UNL     1      -9.228   5.864  68.128  1.00  0.00    -0.116 N  
HETATM   32  C   UNL     1      -8.446   4.797  68.751  1.00  0.00    -0.081 C  
HETATM   33  O   UNL     1      -8.262   5.480  66.092  1.00  0.00    -0.108 OA 
HETATM   34  C   UNL     1     -10.053   6.644  69.042  1.00  0.00    -0.162 C  
HETATM   35  C   UNL     1     -10.953   5.725  69.873  1.00  0.00    -0.389 C  
HETATM   36  C   UNL     1     -10.159   4.610  70.613  1.00  0.00    -0.191 C  
BRANCH  36  37
HETATM   37  N   UNL     1      -9.303   5.132  71.714  1.00  0.00    -0.144 NA 
HETATM   38  C   UNL     1     -10.056   5.837  72.772  1.00  0.00    -0.179 C  
HETATM   39  C   UNL     1     -10.930   4.916  73.629  1.00  0.00    -0.387 C  
HETATM   40  C   UNL     1     -10.115   3.778  74.237  1.00  0.00    -0.205 C  
HETATM   41  C   UNL     1      -9.257   3.084  73.182  1.00  0.00    -0.109 C  
HETATM   42  C   UNL     1      -8.459   4.107  72.369  1.00  0.00    -0.103 C  
ENDBRANCH  36  37
ENDBRANCH  28  29
ENDBRANCH  21  28
BRANCH  22  43
HETATM   43  C   UNL     1      -7.437  18.251  65.764  1.00  0.00    -0.126 C  
HETATM   44  C   UNL     1      -6.013  18.393  65.239  1.00  0.00    -0.256 C  
ENDBRANCH  22  43
ENDBRANCH   2   3
TORSDOF 5
ENDMDL
MODEL       14
REMARK 921   NORMALIZED FREE ENERGY PREDICTED BY IDOCK:   -6.71 KCAL/MOL
REMARK 922        TOTAL FREE ENERGY PREDICTED BY IDOCK:   -9.70 KCAL/MOL
REMARK 923 INTER-LIGAND FREE ENERGY PREDICTED BY IDOCK:   -8.59 KCAL/MOL
REMARK 924 INTRA-LIGAND FREE ENERGY PREDICTED BY IDOCK:   -1.11 KCAL/MOL
REMARK 927      BINDING AFFINITY PREDICTED BY RF-SCORE:    0.00 PKD
ROOT
HETATM    1  C   UNL     1     -11.108  10.801  68.473  1.00  0.00    -0.317 C  
HETATM    2  C   UNL     1     -10.543  11.307  67.158  1.00  0.00    -0.274 C  
ENDROOT
BRANCH   2   3
HETATM    3  C   UNL     1      -9.162  11.902  67.310  1.00  0.00    -0.179 A  
HETATM    4  C   UNL     1      -9.020  13.268  67.468  1.00  0.00    -0.208 A  
HETATM    5  C   UNL     1     -10.087  14.296  67.617  1.00  0.00    -0.229 A  
HETATM    6  N   UNL     1      -9.329  15.530  67.689  1.00  0.00    -0.202 N  
HETATM    7  C   UNL     1      -7.965  15.314  67.600  1.00  0.00    -0.160 A  
HETATM    8  C   UNL     1      -7.135  16.367  67.637  1.00  0.00    -0.157 C  
HETATM    9  C   UNL     1      -7.756  13.850  67.478  1.00  0.00    -0.179 A  
HETATM   10  N   UNL     1      -6.603  13.166  67.336  1.00  0.00    -0.197 NA 
HETATM   11  C   UNL     1      -7.694  17.735  67.697  1.00  0.00    -0.212 C  
HETATM   12  C   UNL     1      -9.022  17.911  67.820  1.00  0.00    -0.254 C  
HETATM   13  C   UNL     1      -6.722  11.807  67.214  1.00  0.00    -0.133 A  
HETATM   14  C   UNL     1      -5.595  10.990  67.037  1.00  0.00    -0.066 A  
HETATM   15  C   UNL     1      -9.939  16.741  67.849  1.00  0.00    -0.268 C  
HETATM   16  C   UNL     1      -9.703  19.225  67.904  1.00  0.00    -0.338 C  
HETATM   17  C   UNL     1      -5.675   9.584  66.877  1.00  0.00    -0.051 A  
HETATM   18  O   UNL     1     -11.149  16.887  67.982  1.00  0.00    -0.336 OA 
HETATM   19  O   UNL     1      -8.863  20.361  67.648  1.00  0.00    -0.306 OA 
HETATM   20  C   UNL     1      -7.522  20.321  67.532  1.00  0.00    -0.312 C  
HETATM   21  C   UNL     1      -6.914   8.959  66.925  1.00  0.00    -0.078 A  
HETATM   22  C   UNL     1      -6.788  18.944  67.614  1.00  0.00    -0.212 C  
HETATM   23  H   UNL     1      -5.416  19.688  68.756  1.00  0.00     0.000 HD 
HETATM   24  O   UNL     1      -6.903  21.379  67.421  1.00  0.00    -0.573 OA 
HETATM   25  C   UNL     1      -8.038   9.733  67.177  1.00  0.00    -0.116 A  
HETATM   26  O   UNL     1      -5.985  18.929  68.808  1.00  0.00    -0.205 OA 
HETATM   27  C   UNL     1      -7.980  11.140  67.242  1.00  0.00    -0.137 A  
BRANCH  21  28
HETATM   28  O   UNL     1      -7.000   7.551  66.754  1.00  0.00    -0.073 OA 
BRANCH  28  29
HETATM   29  C   UNL     1      -8.221   6.886  67.010  1.00  0.00    -0.120 C  
HETATM   30  C   UNL     1     -10.305   6.591  69.900  1.00  0.00    -0.231 C  
HETATM   31  N   UNL     1      -8.422   6.519  68.335  1.00  0.00    -0.120 N  
HETATM   32  C   UNL     1      -9.677   5.870  68.711  1.00  0.00    -0.131 C  
HETATM   33  O   UNL     1      -9.068   6.660  66.147  1.00  0.00    -0.157 OA 
HETATM   34  C   UNL     1      -7.436   6.627  69.402  1.00  0.00    -0.094 C  
HETATM   35  C   UNL     1      -8.047   7.299  70.635  1.00  0.00    -0.108 C  
HETATM   36  C   UNL     1      -9.352   6.603  71.118  1.00  0.00    -0.163 C  
BRANCH  36  37
HETATM   37  N   UNL     1      -9.116   5.252  71.699  1.00  0.00    -0.137 NA 
HETATM   38  C   UNL     1      -8.275   5.265  72.915  1.00  0.00    -0.109 C  
HETATM   39  C   UNL     1      -8.961   5.882  74.137  1.00  0.00    -0.123 C  
HETATM   40  C   UNL     1     -10.296   5.203  74.431  1.00  0.00    -0.313 C  
HETATM   41  C   UNL     1     -11.154   5.096  73.173  1.00  0.00    -0.391 C  
HETATM   42  C   UNL     1     -10.350   4.499  72.014  1.00  0.00    -0.146 C  
ENDBRANCH  36  37
ENDBRANCH  28  29
ENDBRANCH  21  28
BRANCH  22  43
HETATM   43  C   UNL     1      -5.799  18.878  66.423  1.00  0.00    -0.183 C  
HETATM   44  C   UNL     1      -6.408  19.158  65.054  1.00  0.00    -0.293 C  
ENDBRANCH  22  43
ENDBRANCH   2   3
TORSDOF 5
ENDMDL
MODEL       15
REMARK 921   NORMALIZED FREE ENERGY PREDICTED BY IDOCK:   -6.62 KCAL/MOL
REMARK 922        TOTAL FREE ENERGY PREDICTED BY IDOCK:   -9.58 KCAL/MOL
REMARK 923 INTER-LIGAND FREE ENERGY PREDICTED BY IDOCK:   -8.44 KCAL/MOL
REMARK 924 INTRA-LIGAND FREE ENERGY PREDICTED BY IDOCK:   -1.14 KCAL/MOL
REMARK 927      BINDING AFFINITY PREDICTED BY RF-SCORE:    0.00 PKD
ROOT
HETATM    1  C   UNL     1      -6.025  11.325  70.455  1.00  0.00    -0.112 C  
HETATM    2  C   UNL     1      -6.521  10.904  69.084  1.00  0.00    -0.063 C  
ENDROOT
BRANCH   2   3
HETATM    3  C   UNL     1      -7.868  11.501  68.746  1.00  0.00    -0.117 A  
HETATM    4  C   UNL     1      -7.938  12.782  68.230  1.00  0.00    -0.151 A  
HETATM    5  C   UNL     1      -6.817  13.684  67.845  1.00  0.00    -0.153 A  
HETATM    6  N   UNL     1      -7.510  14.890  67.432  1.00  0.00    -0.197 N  
HETATM    7  C   UNL     1      -8.884  14.768  67.539  1.00  0.00    -0.190 A  
HETATM    8  C   UNL     1      -9.658  15.811  67.205  1.00  0.00    -0.220 C  
HETATM    9  C   UNL     1      -9.169  13.400  68.036  1.00  0.00    -0.209 A  
HETATM   10  N   UNL     1     -10.358  12.832  68.322  1.00  0.00    -0.238 NA 
HETATM   11  C   UNL     1      -9.029  17.088  66.803  1.00  0.00    -0.267 C  
HETATM   12  C   UNL     1      -7.692  17.164  66.672  1.00  0.00    -0.300 C  
HETATM   13  C   UNL     1     -10.310  11.548  68.799  1.00  0.00    -0.196 A  
HETATM   14  C   UNL     1     -11.480  10.860  69.156  1.00  0.00    -0.373 A  
HETATM   15  C   UNL     1      -6.836  15.986  66.976  1.00  0.00    -0.145 C  
HETATM   16  C   UNL     1      -6.943  18.377  66.265  1.00  0.00    -0.243 C  
HETATM   17  C   UNL     1     -11.475   9.543  69.681  1.00  0.00     0.011 A  
HETATM   18  O   UNL     1      -5.618  16.036  66.840  1.00  0.00    -0.321 OA 
HETATM   19  O   UNL     1      -7.726  19.577  66.191  1.00  0.00    -0.288 OA 
HETATM   20  C   UNL     1      -9.070  19.631  66.279  1.00  0.00    -0.376 C  
HETATM   21  C   UNL     1     -10.269   8.871  69.830  1.00  0.00    -0.200 A  
HETATM   22  C   UNL     1      -9.872  18.316  66.542  1.00  0.00    -0.361 C  
HETATM   23  H   UNL     1     -11.189  18.797  65.210  1.00  0.00     0.000 HD 
HETATM   24  O   UNL     1      -9.634  20.709  66.092  1.00  0.00    -0.118 OA 
HETATM   25  C   UNL     1      -9.104   9.499  69.414  1.00  0.00    -0.172 A  
HETATM   26  O   UNL     1     -10.659  18.025  65.373  1.00  0.00    -0.648 OA 
HETATM   27  C   UNL     1      -9.089  10.840  68.980  1.00  0.00    -0.153 A  
BRANCH  21  28
HETATM   28  O   UNL     1     -10.258   7.555  70.367  1.00  0.00    -0.199 OA 
BRANCH  28  29
HETATM   29  C   UNL     1      -9.211   6.669  70.030  1.00  0.00    -0.158 C  
HETATM   30  C   UNL     1      -7.921   5.449  66.925  1.00  0.00    -0.101 C  
HETATM   31  N   UNL     1      -9.373   6.004  68.820  1.00  0.00    -0.122 N  
HETATM   32  C   UNL     1      -8.319   5.102  68.357  1.00  0.00    -0.089 C  
HETATM   33  O   UNL     1      -8.210   6.500  70.724  1.00  0.00    -0.121 OA 
HETATM   34  C   UNL     1     -10.569   6.039  67.988  1.00  0.00    -0.262 C  
HETATM   35  C   UNL     1     -10.204   6.331  66.530  1.00  0.00    -0.163 C  
HETATM   36  C   UNL     1      -9.133   5.354  65.967  1.00  0.00    -0.154 C  
BRANCH  36  37
HETATM   37  N   UNL     1      -9.641   3.965  65.791  1.00  0.00    -0.181 NA 
HETATM   38  C   UNL     1     -10.696   3.842  64.763  1.00  0.00    -0.074 C  
HETATM   39  C   UNL     1     -10.192   4.046  63.331  1.00  0.00    -0.138 C  
HETATM   40  C   UNL     1      -9.034   3.106  63.007  1.00  0.00    -0.092 C  
HETATM   41  C   UNL     1      -7.966   3.144  64.096  1.00  0.00    -0.082 C  
HETATM   42  C   UNL     1      -8.594   2.966  65.482  1.00  0.00    -0.115 C  
ENDBRANCH  36  37
ENDBRANCH  28  29
ENDBRANCH  21  28
BRANCH  22  43
HETATM   43  C   UNL     1     -10.878  18.613  67.683  1.00  0.00    -0.347 C  
HETATM   44  C   UNL     1     -10.260  19.105  68.987  1.00  0.00    -0.242 C  
ENDBRANCH  22  43
ENDBRANCH   2   3
TORSDOF 5
ENDMDL
MODEL       16
REMARK 921   NORMALIZED FREE ENERGY PREDICTED BY IDOCK:   -6.61 KCAL/MOL
REMARK 922        TOTAL FREE ENERGY PREDICTED BY IDOCK:   -9.56 KCAL/MOL
REMARK 923 INTER-LIGAND FREE ENERGY PREDICTED BY IDOCK:   -8.95 KCAL/MOL
REMARK 924 INTRA-LIGAND FREE ENERGY PREDICTED BY IDOCK:   -0.61 KCAL/MOL
REMARK 927      BINDING AFFINITY PREDICTED BY RF-SCORE:    0.00 PKD
ROOT
HETATM    1  C   UNL     1      -8.325   9.964  70.178  1.00  0.00    -0.156 C  
HETATM    2  C   UNL     1      -7.268  10.819  69.504  1.00  0.00    -0.132 C  
ENDROOT
BRANCH   2   3
HETATM    3  C   UNL     1      -7.817  11.610  68.339  1.00  0.00    -0.137 A  
HETATM    4  C   UNL     1      -7.587  12.972  68.268  1.00  0.00    -0.135 A  
HETATM    5  C   UNL     1      -6.751  13.815  69.168  1.00  0.00    -0.112 A  
HETATM    6  N   UNL     1      -6.946  15.146  68.624  1.00  0.00    -0.109 N  
HETATM    7  C   UNL     1      -7.789  15.146  67.526  1.00  0.00    -0.181 A  
HETATM    8  C   UNL     1      -8.074  16.310  66.925  1.00  0.00    -0.270 C  
HETATM    9  C   UNL     1      -8.192  13.740  67.278  1.00  0.00    -0.159 A  
HETATM   10  N   UNL     1      -9.024  13.249  66.338  1.00  0.00    -0.056 NA 
HETATM   11  C   UNL     1      -7.545  17.572  67.488  1.00  0.00    -0.209 C  
HETATM   12  C   UNL     1      -6.698  17.535  68.532  1.00  0.00    -0.202 C  
HETATM   13  C   UNL     1      -9.235  11.896  66.370  1.00  0.00    -0.215 A  
HETATM   14  C   UNL     1     -10.100  11.271  65.458  1.00  0.00    -0.306 A  
HETATM   15  C   UNL     1      -6.326  16.238  69.157  1.00  0.00    -0.168 C  
HETATM   16  C   UNL     1      -6.090  18.723  69.178  1.00  0.00    -0.237 C  
HETATM   17  C   UNL     1     -10.369   9.880  65.474  1.00  0.00    -0.060 A  
HETATM   18  O   UNL     1      -5.538  16.190  70.097  1.00  0.00    -0.157 OA 
HETATM   19  O   UNL     1      -6.613  19.986  68.739  1.00  0.00    -0.303 OA 
HETATM   20  C   UNL     1      -7.443  20.158  67.693  1.00  0.00    -0.306 C  
HETATM   21  C   UNL     1      -9.735   9.071  66.407  1.00  0.00    -0.268 A  
HETATM   22  C   UNL     1      -7.951  18.907  66.906  1.00  0.00    -0.256 C  
HETATM   23  H   UNL     1      -7.655  19.793  65.212  1.00  0.00     0.000 HD 
HETATM   24  O   UNL     1      -7.736  21.303  67.349  1.00  0.00    -0.361 OA 
HETATM   25  C   UNL     1      -8.816   9.649  67.272  1.00  0.00    -0.139 A  
HETATM   26  O   UNL     1      -7.399  18.954  65.578  1.00  0.00    -0.494 OA 
HETATM   27  C   UNL     1      -8.613  11.043  67.326  1.00  0.00    -0.130 A  
BRANCH  21  28
HETATM   28  O   UNL     1     -10.012   7.677  66.434  1.00  0.00    -0.182 OA 
BRANCH  28  29
HETATM   29  C   UNL     1      -9.037   6.778  66.926  1.00  0.00    -0.137 C  
HETATM   30  C   UNL     1      -9.078   4.238  69.442  1.00  0.00    -0.179 C  
HETATM   31  N   UNL     1      -9.230   6.367  68.240  1.00  0.00    -0.114 N  
HETATM   32  C   UNL     1      -8.303   5.399  68.824  1.00  0.00    -0.097 C  
HETATM   33  O   UNL     1      -8.097   6.359  66.254  1.00  0.00    -0.107 OA 
HETATM   34  C   UNL     1     -10.233   6.896  69.154  1.00  0.00    -0.187 C  
HETATM   35  C   UNL     1     -10.996   5.757  69.835  1.00  0.00    -0.389 C  
HETATM   36  C   UNL     1     -10.057   4.733  70.533  1.00  0.00    -0.220 C  
BRANCH  36  37
HETATM   37  N   UNL     1      -9.373   5.287  71.735  1.00  0.00    -0.145 NA 
HETATM   38  C   UNL     1     -10.293   5.908  72.711  1.00  0.00    -0.196 C  
HETATM   39  C   UNL     1     -11.187   4.904  73.445  1.00  0.00    -0.415 C  
HETATM   40  C   UNL     1     -10.363   3.813  74.123  1.00  0.00    -0.249 C  
HETATM   41  C   UNL     1      -9.340   3.211  73.163  1.00  0.00    -0.115 C  
HETATM   42  C   UNL     1      -8.535   4.311  72.465  1.00  0.00    -0.105 C  
ENDBRANCH  36  37
ENDBRANCH  28  29
ENDBRANCH  21  28
BRANCH  22  43
HETATM   43  C   UNL     1      -9.485  19.056  66.746  1.00  0.00    -0.365 C  
HETATM   44  C   UNL     1     -10.269  19.167  68.050  1.00  0.00    -0.489 C  
ENDBRANCH  22  43
ENDBRANCH   2   3
TORSDOF 5
ENDMDL
MODEL       17
REMARK 921   NORMALIZED FREE ENERGY PREDICTED BY IDOCK:   -6.45 KCAL/MOL
REMARK 922        TOTAL FREE ENERGY PREDICTED BY IDOCK:   -9.37 KCAL/MOL
REMARK 923 INTER-LIGAND FREE ENERGY PREDICTED BY IDOCK:   -8.36 KCAL/MOL
REMARK 924 INTRA-LIGAND FREE ENERGY PREDICTED BY IDOCK:   -1.01 KCAL/MOL
REMARK 927      BINDING AFFINITY PREDICTED BY RF-SCORE:    0.00 PKD
ROOT
HETATM    1  C   UNL     1      -9.678   8.249  66.299  1.00  0.00    -0.253 C  
HETATM    2  C   UNL     1      -8.367   8.990  66.110  1.00  0.00    -0.124 C  
ENDROOT
BRANCH   2   3
HETATM    3  C   UNL     1      -8.176  10.098  67.120  1.00  0.00    -0.121 A  
HETATM    4  C   UNL     1      -8.709  11.349  66.873  1.00  0.00    -0.165 A  
HETATM    5  C   UNL     1      -9.578  11.774  65.740  1.00  0.00    -0.233 A  
HETATM    6  N   UNL     1      -9.762  13.190  65.997  1.00  0.00    -0.261 N  
HETATM    7  C   UNL     1      -9.101  13.606  67.140  1.00  0.00    -0.239 A  
HETATM    8  C   UNL     1      -9.168  14.896  67.498  1.00  0.00    -0.194 C  
HETATM    9  C   UNL     1      -8.435  12.415  67.723  1.00  0.00    -0.169 A  
HETATM   10  N   UNL     1      -7.654  12.332  68.819  1.00  0.00    -0.085 NA 
HETATM   11  C   UNL     1      -9.881  15.859  66.629  1.00  0.00    -0.267 C  
HETATM   12  C   UNL     1     -10.544  15.418  65.545  1.00  0.00    -0.400 C  
HETATM   13  C   UNL     1      -7.146  11.091  69.101  1.00  0.00    -0.116 A  
HETATM   14  C   UNL     1      -6.300  10.883  70.201  1.00  0.00    -0.149 A  
HETATM   15  C   UNL     1     -10.528  13.975  65.185  1.00  0.00    -0.397 C  
HETATM   16  C   UNL     1     -11.305  16.275  64.604  1.00  0.00    -0.232 C  
HETATM   17  C   UNL     1      -5.729   9.624  70.512  1.00  0.00    -0.052 A  
HETATM   18  O   UNL     1     -11.146  13.558  64.211  1.00  0.00    -0.381 OA 
HETATM   19  O   UNL     1     -11.142  17.688  64.804  1.00  0.00    -0.915 OA 
HETATM   20  C   UNL     1     -10.524  18.254  65.859  1.00  0.00    -0.307 C  
HETATM   21  C   UNL     1      -6.030   8.522  69.723  1.00  0.00    -0.028 A  
HETATM   22  C   UNL     1      -9.867  17.338  66.941  1.00  0.00    -0.287 C  
HETATM   23  H   UNL     1     -10.586  18.428  68.368  1.00  0.00     0.000 HD 
HETATM   24  O   UNL     1     -10.544  19.479  65.971  1.00  0.00    -0.485 OA 
HETATM   25  C   UNL     1      -6.925   8.682  68.674  1.00  0.00    -0.064 A  
HETATM   26  O   UNL     1     -10.595  17.499  68.172  1.00  0.00    -0.370 OA 
HETATM   27  C   UNL     1      -7.423   9.947  68.300  1.00  0.00    -0.080 A  
BRANCH  21  28
HETATM   28  O   UNL     1      -5.450   7.260  70.024  1.00  0.00    -0.022 OA 
BRANCH  28  29
HETATM   29  C   UNL     1      -6.015   6.082  69.485  1.00  0.00    -0.025 C  
HETATM   30  C   UNL     1      -8.955   4.192  70.240  1.00  0.00    -0.153 C  
HETATM   31  N   UNL     1      -6.800   5.351  70.369  1.00  0.00    -0.050 N  
HETATM   32  C   UNL     1      -7.470   4.142  69.892  1.00  0.00    -0.049 C  
HETATM   33  O   UNL     1      -5.859   5.723  68.319  1.00  0.00    -0.014 OA 
HETATM   34  C   UNL     1      -6.947   5.621  71.793  1.00  0.00    -0.076 C  
HETATM   35  C   UNL     1      -8.425   5.625  72.192  1.00  0.00    -0.126 C  
HETATM   36  C   UNL     1      -9.170   4.327  71.766  1.00  0.00    -0.127 C  
BRANCH  36  37
HETATM   37  N   UNL     1      -8.739   3.125  72.534  1.00  0.00    -0.083 NA 
HETATM   38  C   UNL     1      -8.962   3.237  73.991  1.00  0.00    -0.083 C  
HETATM   39  C   UNL     1     -10.439   3.206  74.396  1.00  0.00    -0.237 C  
HETATM   40  C   UNL     1     -11.140   1.964  73.854  1.00  0.00    -0.268 C  
HETATM   41  C   UNL     1     -10.858   1.770  72.366  1.00  0.00    -0.028 C  
HETATM   42  C   UNL     1      -9.356   1.858  72.081  1.00  0.00    -0.088 C  
ENDBRANCH  36  37
ENDBRANCH  28  29
ENDBRANCH  21  28
BRANCH  22  43
HETATM   43  C   UNL     1      -8.442  17.888  67.203  1.00  0.00    -0.242 C  
HETATM   44  C   UNL     1      -8.173  18.351  68.631  1.00  0.00    -0.316 C  
ENDBRANCH  22  43
ENDBRANCH   2   3
TORSDOF 5
ENDMDL
MODEL       18
REMARK 921   NORMALIZED FREE ENERGY PREDICTED BY IDOCK:   -6.44 KCAL/MOL
REMARK 922        TOTAL FREE ENERGY PREDICTED BY IDOCK:   -9.34 KCAL/MOL
REMARK 923 INTER-LIGAND FREE ENERGY PREDICTED BY IDOCK:   -7.96 KCAL/MOL
REMARK 924 INTRA-LIGAND FREE ENERGY PREDICTED BY IDOCK:   -1.38 KCAL/MOL
REMARK 927      BINDING AFFINITY PREDICTED BY RF-SCORE:    0.00 PKD
ROOT
HETATM    1  C   UNL     1      -6.559  13.167  67.459  1.00  0.00    -0.159 C  
HETATM    2  C   UNL     1      -7.565  12.671  68.481  1.00  0.00    -0.121 C  
ENDROOT
BRANCH   2   3
HETATM    3  C   UNL     1      -8.607  11.759  67.875  1.00  0.00    -0.156 A  
HETATM    4  C   UNL     1      -8.379  10.397  67.828  1.00  0.00    -0.114 A  
HETATM    5  C   UNL     1      -7.238   9.632  68.404  1.00  0.00    -0.074 A  
HETATM    6  N   UNL     1      -7.526   8.272  67.987  1.00  0.00    -0.096 N  
HETATM    7  C   UNL     1      -8.693   8.187  67.248  1.00  0.00    -0.124 A  
HETATM    8  C   UNL     1      -9.082   6.992  66.780  1.00  0.00    -0.162 C  
HETATM    9  C   UNL     1      -9.261   9.555  67.159  1.00  0.00    -0.134 A  
HETATM   10  N   UNL     1     -10.371   9.972  66.518  1.00  0.00    -0.221 NA 
HETATM   11  C   UNL     1      -8.221   5.808  66.998  1.00  0.00    -0.101 C  
HETATM   12  C   UNL     1      -7.113   5.916  67.751  1.00  0.00    -0.071 C  
HETATM   13  C   UNL     1     -10.634  11.316  66.584  1.00  0.00    -0.262 A  
HETATM   14  C   UNL     1     -11.747  11.873  65.937  1.00  0.00    -0.208 A  
HETATM   15  C   UNL     1      -6.717   7.228  68.329  1.00  0.00    -0.054 C  
HETATM   16  C   UNL     1      -6.177   4.806  68.055  1.00  0.00    -0.035 C  
HETATM   17  C   UNL     1     -12.038  13.260  65.954  1.00  0.00    -0.493 A  
HETATM   18  O   UNL     1      -5.720   7.335  69.035  1.00  0.00    -0.018 OA 
HETATM   19  O   UNL     1      -6.415   3.595  67.322  1.00  0.00    -0.036 OA 
HETATM   20  C   UNL     1      -7.497   3.353  66.557  1.00  0.00    -0.076 C  
HETATM   21  C   UNL     1     -11.216  14.124  66.665  1.00  0.00    -0.325 A  
HETATM   22  C   UNL     1      -8.571   4.475  66.375  1.00  0.00    -0.112 C  
HETATM   23  H   UNL     1     -10.008   3.203  66.616  1.00  0.00     0.000 HD 
HETATM   24  O   UNL     1      -7.639   2.234  66.066  1.00  0.00    -0.066 OA 
HETATM   25  C   UNL     1     -10.152  13.590  67.378  1.00  0.00    -0.237 A  
HETATM   26  O   UNL     1      -9.789   4.041  67.007  1.00  0.00    -0.211 OA 
HETATM   27  C   UNL     1      -9.799  12.228  67.290  1.00  0.00    -0.208 A  
BRANCH  21  28
HETATM   28  O   UNL     1     -11.498  15.516  66.676  1.00  0.00    -0.124 OA 
BRANCH  28  29
HETATM   29  C   UNL     1     -10.701  16.400  65.913  1.00  0.00    -0.214 C  
HETATM   30  C   UNL     1      -7.537  17.969  66.475  1.00  0.00    -0.279 C  
HETATM   31  N   UNL     1      -9.864  17.224  66.657  1.00  0.00    -0.281 N  
HETATM   32  C   UNL     1      -8.963  18.139  65.957  1.00  0.00     0.036 C  
HETATM   33  O   UNL     1     -10.711  16.438  64.684  1.00  0.00    -0.693 OA 
HETATM   34  C   UNL     1      -9.867  17.344  68.109  1.00  0.00    -0.301 C  
HETATM   35  C   UNL     1      -8.443  17.232  68.661  1.00  0.00    -0.260 C  
HETATM   36  C   UNL     1      -7.457  18.235  67.997  1.00  0.00    -0.241 C  
BRANCH  36  37
HETATM   37  N   UNL     1      -7.724  19.653  68.366  1.00  0.00    -0.332 NA 
HETATM   38  C   UNL     1      -7.484  19.953  69.793  1.00  0.00     0.208 C  
HETATM   39  C   UNL     1      -6.006  19.926  70.192  1.00  0.00    -0.363 C  
HETATM   40  C   UNL     1      -5.173  20.857  69.314  1.00  0.00    -0.394 C  
HETATM   41  C   UNL     1      -5.463  20.632  67.833  1.00  0.00    -0.271 C  
HETATM   42  C   UNL     1      -6.971  20.644  67.565  1.00  0.00    -0.347 C  
ENDBRANCH  36  37
ENDBRANCH  28  29
ENDBRANCH  21  28
BRANCH  22  43
HETATM   43  C   UNL     1      -8.877   4.576  64.860  1.00  0.00    -0.148 C  
HETATM   44  C   UNL     1      -7.717   5.045  63.989  1.00  0.00    -0.079 C  
ENDBRANCH  22  43
ENDBRANCH   2   3
TORSDOF 5
ENDMDL
MODEL       19
REMARK 921   NORMALIZED FREE ENERGY PREDICTED BY IDOCK:   -6.41 KCAL/MOL
REMARK 922        TOTAL FREE ENERGY PREDICTED BY IDOCK:   -9.31 KCAL/MOL
REMARK 923 INTER-LIGAND FREE ENERGY PREDICTED BY IDOCK:   -8.50 KCAL/MOL
REMARK 924 INTRA-LIGAND FREE ENERGY PREDICTED BY IDOCK:   -0.81 KCAL/MOL
REMARK 927      BINDING AFFINITY PREDICTED BY RF-SCORE:    0.00 PKD
ROOT
HETATM    1  C   UNL     1      -8.200  10.515  63.327  1.00  0.00    -0.111 C  
HETATM    2  C   UNL     1      -9.521   9.956  63.823  1.00  0.00    -0.181 C  
ENDROOT
BRANCH   2   3
HETATM    3  C   UNL     1      -9.488   9.608  65.293  1.00  0.00    -0.342 A  
HETATM    4  C   UNL     1      -8.786   8.494  65.716  1.00  0.00    -0.210 A  
HETATM    5  C   UNL     1      -7.926   7.584  64.909  1.00  0.00    -0.132 A  
HETATM    6  N   UNL     1      -7.517   6.590  65.883  1.00  0.00    -0.079 N  
HETATM    7  C   UNL     1      -8.044   6.838  67.139  1.00  0.00    -0.117 A  
HETATM    8  C   UNL     1      -7.763   5.993  68.141  1.00  0.00    -0.102 C  
HETATM    9  C   UNL     1      -8.849   8.080  67.043  1.00  0.00    -0.133 A  
HETATM   10  N   UNL     1      -9.573   8.698  67.998  1.00  0.00    -0.147 NA 
HETATM   11  C   UNL     1      -6.962   4.779  67.870  1.00  0.00    -0.061 C  
HETATM   12  C   UNL     1      -6.433   4.585  66.649  1.00  0.00    -0.041 C  
HETATM   13  C   UNL     1     -10.247   9.825  67.606  1.00  0.00    -0.213 A  
HETATM   14  C   UNL     1     -11.053  10.541  68.504  1.00  0.00    -0.329 A  
HETATM   15  C   UNL     1      -6.686   5.559  65.553  1.00  0.00    -0.041 C  
HETATM   16  C   UNL     1      -5.603   3.421  66.254  1.00  0.00    -0.018 C  
HETATM   17  C   UNL     1     -11.790  11.693  68.133  1.00  0.00    -0.315 A  
HETATM   18  O   UNL     1      -6.192   5.404  64.441  1.00  0.00    -0.022 OA 
HETATM   19  O   UNL     1      -5.540   2.365  67.224  1.00  0.00    -0.017 OA 
HETATM   20  C   UNL     1      -6.007   2.444  68.486  1.00  0.00    -0.024 C  
HETATM   21  C   UNL     1     -11.702  12.174  66.834  1.00  0.00    -0.301 A  
HETATM   22  C   UNL     1      -6.735   3.746  68.951  1.00  0.00    -0.045 C  
HETATM   23  H   UNL     1      -5.783   3.733  70.634  1.00  0.00     0.000 HD 
HETATM   24  O   UNL     1      -5.796   1.508  69.256  1.00  0.00    -0.021 OA 
HETATM   25  C   UNL     1     -10.852  11.531  65.945  1.00  0.00    -0.316 A  
HETATM   26  O   UNL     1      -5.925   4.383  69.955  1.00  0.00    -0.017 OA 
HETATM   27  C   UNL     1     -10.190  10.331  66.276  1.00  0.00    -0.287 A  
BRANCH  21  28
HETATM   28  O   UNL     1     -12.449  13.322  66.455  1.00  0.00    -0.329 OA 
BRANCH  28  29
HETATM   29  C   UNL     1     -11.895  14.249  65.543  1.00  0.00    -0.363 C  
HETATM   30  C   UNL     1      -9.163  16.550  65.725  1.00  0.00    -0.071 C  
HETATM   31  N   UNL     1     -11.252  15.334  66.128  1.00  0.00    -0.280 N  
HETATM   32  C   UNL     1     -10.602  16.323  65.270  1.00  0.00    -0.336 C  
HETATM   33  O   UNL     1     -11.944  14.116  64.322  1.00  0.00    -0.443 OA 
HETATM   34  C   UNL     1     -11.245  15.647  67.551  1.00  0.00    -0.245 C  
HETATM   35  C   UNL     1      -9.821  15.934  68.034  1.00  0.00    -0.218 C  
HETATM   36  C   UNL     1      -9.108  17.032  67.194  1.00  0.00    -0.223 C  
BRANCH  36  37
HETATM   37  N   UNL     1      -9.684  18.391  67.393  1.00  0.00    -0.293 NA 
HETATM   38  C   UNL     1      -9.326  19.006  68.688  1.00  0.00    -0.380 C  
HETATM   39  C   UNL     1      -7.852  19.405  68.799  1.00  0.00    -0.392 C  
HETATM   40  C   UNL     1      -7.434  20.321  67.651  1.00  0.00    -0.344 C  
HETATM   41  C   UNL     1      -7.867  19.755  66.302  1.00  0.00    -0.340 C  
HETATM   42  C   UNL     1      -9.347  19.360  66.327  1.00  0.00    -0.355 C  
ENDBRANCH  36  37
ENDBRANCH  28  29
ENDBRANCH  21  28
BRANCH  22  43
HETATM   43  C   UNL     1      -8.044   3.312  69.657  1.00  0.00    -0.061 C  
HETATM   44  C   UNL     1      -9.092   2.670  68.753  1.00  0.00    -0.209 C  
ENDBRANCH  22  43
ENDBRANCH   2   3
TORSDOF 5
ENDMDL
MODEL       20
REMARK 921   NORMALIZED FREE ENERGY PREDICTED BY IDOCK:   -6.36 KCAL/MOL
REMARK 922        TOTAL FREE ENERGY PREDICTED BY IDOCK:   -9.24 KCAL/MOL
REMARK 923 INTER-LIGAND FREE ENERGY PREDICTED BY IDOCK:   -8.46 KCAL/MOL
REMARK 924 INTRA-LIGAND FREE ENERGY PREDICTED BY IDOCK:   -0.78 KCAL/MOL
REMARK 927      BINDING AFFINITY PREDICTED BY RF-SCORE:    0.00 PKD
ROOT
HETATM    1  C   UNL     1      -9.243  10.456  68.793  1.00  0.00    -0.172 C  
HETATM    2  C   UNL     1     -10.687  10.691  68.387  1.00  0.00    -0.260 C  
ENDROOT
BRANCH   2   3
HETATM    3  C   UNL     1     -11.264  11.948  68.996  1.00  0.00    -0.316 A  
HETATM    4  C   UNL     1     -10.923  13.181  68.473  1.00  0.00    -0.289 A  
HETATM    5  C   UNL     1     -10.099  13.476  67.268  1.00  0.00    -0.235 A  
HETATM    6  N   UNL     1     -10.052  14.926  67.264  1.00  0.00    -0.235 N  
HETATM    7  C   UNL     1     -10.753  15.476  68.323  1.00  0.00    -0.271 A  
HETATM    8  C   UNL     1     -10.786  16.809  68.459  1.00  0.00    -0.345 C  
HETATM    9  C   UNL     1     -11.337  14.353  69.098  1.00  0.00    -0.277 A  
HETATM   10  N   UNL     1     -12.075  14.393  70.225  1.00  0.00    -0.310 NA 
HETATM   11  C   UNL     1     -10.016  17.658  67.524  1.00  0.00    -0.322 C  
HETATM   12  C   UNL     1      -9.375  17.096  66.484  1.00  0.00    -0.286 C  
HETATM   13  C   UNL     1     -12.453  13.181  70.739  1.00  0.00    -0.308 A  
HETATM   14  C   UNL     1     -13.203  13.093  71.922  1.00  0.00    -0.526 A  
HETATM   15  C   UNL     1      -9.395  15.622  66.292  1.00  0.00    -0.323 C  
HETATM   16  C   UNL     1      -8.582  17.835  65.471  1.00  0.00     0.993 C  
HETATM   17  C   UNL     1     -13.590  11.860  72.504  1.00  0.00     0.341 A  
HETATM   18  O   UNL     1      -8.832  15.099  65.335  1.00  0.00     0.663 OA 
HETATM   19  O   UNL     1      -8.362  19.222  65.768  1.00  0.00    -0.428 OA 
HETATM   20  C   UNL     1      -8.962  19.906  66.761  1.00  0.00    -0.360 C  
HETATM   21  C   UNL     1     -13.250  10.670  71.875  1.00  0.00    -0.423 A  
HETATM   22  C   UNL     1      -9.933  19.154  67.728  1.00  0.00    -0.357 C  
HETATM   23  H   UNL     1     -11.211  20.604  67.648  1.00  0.00     0.000 HD 
HETATM   24  O   UNL     1      -8.773  21.119  66.847  1.00  0.00     0.131 OA 
HETATM   25  C   UNL     1     -12.576  10.729  70.663  1.00  0.00    -0.446 A  
HETATM   26  O   UNL     1     -11.263  19.664  67.520  1.00  0.00    -0.257 OA 
HETATM   27  C   UNL     1     -12.105  11.944  70.126  1.00  0.00    -0.382 A  
BRANCH  21  28
HETATM   28  O   UNL     1     -13.626   9.431  72.461  1.00  0.00    -0.459 OA 
BRANCH  28  29
HETATM   29  C   UNL     1     -13.376   8.223  71.770  1.00  0.00    -0.352 C  
HETATM   30  C   UNL     1     -11.224   5.435  72.384  1.00  0.00    -0.272 C  
HETATM   31  N   UNL     1     -12.113   7.681  71.976  1.00  0.00    -0.295 N  
HETATM   32  C   UNL     1     -11.775   6.406  71.344  1.00  0.00    -0.306 C  
HETATM   33  O   UNL     1     -14.205   7.663  71.054  1.00  0.00    -0.253 OA 
HETATM   34  C   UNL     1     -11.024   8.324  72.699  1.00  0.00    -0.316 C  
HETATM   35  C   UNL     1     -10.408   7.359  73.716  1.00  0.00    -0.299 C  
HETATM   36  C   UNL     1      -9.967   6.010  73.080  1.00  0.00    -0.178 C  
BRANCH  36  37
HETATM   37  N   UNL     1      -8.796   6.145  72.171  1.00  0.00    -0.138 NA 
HETATM   38  C   UNL     1      -7.721   7.006  72.707  1.00  0.00    -0.088 C  
HETATM   39  C   UNL     1      -6.972   6.396  73.895  1.00  0.00    -0.082 C  
HETATM   40  C   UNL     1      -6.416   5.015  73.555  1.00  0.00    -0.062 C  
HETATM   41  C   UNL     1      -7.481   4.128  72.917  1.00  0.00    -0.074 C  
HETATM   42  C   UNL     1      -8.183   4.859  71.769  1.00  0.00    -0.114 C  
ENDBRANCH  36  37
ENDBRANCH  28  29
ENDBRANCH  21  28
BRANCH  22  43
HETATM   43  C   UNL     1      -9.537  19.547  69.174  1.00  0.00    -0.354 C  
HETATM   44  C   UNL     1      -8.082  19.284  69.546  1.00  0.00     0.182 C  
ENDBRANCH  22  43
ENDBRANCH   2   3
TORSDOF 5
ENDMDL
MODEL       21
REMARK 921   NORMALIZED FREE ENERGY PREDICTED BY IDOCK:   -6.33 KCAL/MOL
REMARK 922        TOTAL FREE ENERGY PREDICTED BY IDOCK:   -9.20 KCAL/MOL
REMARK 923 INTER-LIGAND FREE ENERGY PREDICTED BY IDOCK:   -9.07 KCAL/MOL
REMARK 924 INTRA-LIGAND FREE ENERGY PREDICTED BY IDOCK:   -0.13 KCAL/MOL
REMARK 927      BINDING AFFINITY PREDICTED BY RF-SCORE:    0.00 PKD
ROOT
HETATM    1  C   UNL     1     -11.483  12.515  69.787  1.00  0.00    -0.211 C  
HETATM    2  C   UNL     1     -12.083  11.283  69.135  1.00  0.00    -0.348 C  
ENDROOT
BRANCH   2   3
HETATM    3  C   UNL     1     -11.391  10.916  67.842  1.00  0.00    -0.380 A  
HETATM    4  C   UNL     1     -10.895   9.637  67.672  1.00  0.00    -0.276 A  
HETATM    5  C   UNL     1     -11.029   8.466  68.583  1.00  0.00     0.203 A  
HETATM    6  N   UNL     1     -10.263   7.442  67.896  1.00  0.00    -0.184 N  
HETATM    7  C   UNL     1      -9.719   7.902  66.709  1.00  0.00    -0.234 A  
HETATM    8  C   UNL     1      -8.972   7.069  65.970  1.00  0.00    -0.135 C  
HETATM    9  C   UNL     1     -10.141   9.315  66.547  1.00  0.00    -0.273 A  
HETATM   10  N   UNL     1      -9.836  10.184  65.563  1.00  0.00    -0.279 NA 
HETATM   11  C   UNL     1      -8.683   5.707  66.471  1.00  0.00    -0.121 C  
HETATM   12  C   UNL     1      -9.256   5.278  67.610  1.00  0.00    -0.121 C  
HETATM   13  C   UNL     1     -10.350  11.447  65.697  1.00  0.00    -0.257 A  
HETATM   14  C   UNL     1     -10.081  12.447  64.749  1.00  0.00    -0.260 A  
HETATM   15  C   UNL     1     -10.142   6.178  68.395  1.00  0.00    -0.158 C  
HETATM   16  C   UNL     1      -9.059   3.936  68.209  1.00  0.00    -0.138 C  
HETATM   17  C   UNL     1     -10.567  13.774  64.864  1.00  0.00    -0.427 A  
HETATM   18  O   UNL     1     -10.687   5.791  69.424  1.00  0.00    -0.288 OA 
HETATM   19  O   UNL     1      -8.036   3.141  67.593  1.00  0.00    -0.075 OA 
HETATM   20  C   UNL     1      -7.406   3.446  66.442  1.00  0.00    -0.075 C  
HETATM   21  C   UNL     1     -11.375  14.116  65.940  1.00  0.00    -0.323 A  
HETATM   22  C   UNL     1      -7.743   4.792  65.721  1.00  0.00    -0.090 C  
HETATM   23  H   UNL     1      -7.796   3.911  64.000  1.00  0.00     0.000 HD 
HETATM   24  O   UNL     1      -6.623   2.630  65.958  1.00  0.00    -0.028 OA 
HETATM   25  C   UNL     1     -11.720  13.128  66.851  1.00  0.00    -0.441 A  
HETATM   26  O   UNL     1      -8.387   4.486  64.471  1.00  0.00    -0.105 OA 
HETATM   27  C   UNL     1     -11.166  11.833  66.798  1.00  0.00    -0.388 A  
BRANCH  21  28
HETATM   28  O   UNL     1     -11.855  15.448  66.065  1.00  0.00     0.080 OA 
BRANCH  28  29
HETATM   29  C   UNL     1     -11.148  16.508  65.454  1.00  0.00    -0.019 C  
HETATM   30  C   UNL     1      -7.986  18.051  66.094  1.00  0.00    -0.227 C  
HETATM   31  N   UNL     1     -10.270  17.186  66.291  1.00  0.00    -0.329 N  
HETATM   32  C   UNL     1      -9.455  18.268  65.741  1.00  0.00     0.362 C  
HETATM   33  O   UNL     1     -11.265  16.812  64.268  1.00  0.00    -1.163 OA 
HETATM   34  C   UNL     1     -10.150  16.989  67.730  1.00  0.00    -0.302 C  
HETATM   35  C   UNL     1      -8.681  16.820  68.130  1.00  0.00    -0.219 C  
HETATM   36  C   UNL     1      -7.780  17.984  67.626  1.00  0.00    -0.215 C  
BRANCH  36  37
HETATM   37  N   UNL     1      -8.048  19.276  68.317  1.00  0.00    -0.319 NA 
HETATM   38  C   UNL     1      -7.350  19.416  69.612  1.00  0.00    -0.017 C  
HETATM   39  C   UNL     1      -5.833  19.578  69.483  1.00  0.00    -0.285 C  
HETATM   40  C   UNL     1      -5.471  20.743  68.565  1.00  0.00    -0.352 C  
HETATM   41  C   UNL     1      -6.244  20.676  67.251  1.00  0.00    -0.294 C  
HETATM   42  C   UNL     1      -7.741  20.476  67.508  1.00  0.00    -0.297 C  
ENDBRANCH  36  37
ENDBRANCH  28  29
ENDBRANCH  21  28
BRANCH  22  43
HETATM   43  C   UNL     1      -6.396   5.469  65.362  1.00  0.00    -0.038 C  
HETATM   44  C   UNL     1      -6.132   5.646  63.871  1.00  0.00    -0.025 C  
ENDBRANCH  22  43
ENDBRANCH   2   3
TORSDOF 5
ENDMDL
MODEL       22
REMARK 921   NORMALIZED FREE ENERGY PREDICTED BY IDOCK:   -6.25 KCAL/MOL
REMARK 922        TOTAL FREE ENERGY PREDICTED BY IDOCK:   -9.10 KCAL/MOL
REMARK 923 INTER-LIGAND FREE ENERGY PREDICTED BY IDOCK:   -7.84 KCAL/MOL
REMARK 924 INTRA-LIGAND FREE ENERGY PREDICTED BY IDOCK:   -1.26 KCAL/MOL
REMARK 927      BINDING AFFINITY PREDICTED BY RF-SCORE:    0.00 PKD
ROOT
HETATM    1  C   UNL     1      -8.424   8.684  64.804  1.00  0.00    -0.168 C  
HETATM    2  C   UNL     1      -9.617   8.692  65.742  1.00  0.00    -0.134 C  
ENDROOT
BRANCH   2   3
HETATM    3  C   UNL     1      -9.458   9.681  66.874  1.00  0.00    -0.198 A  
HETATM    4  C   UNL     1      -9.774  11.011  66.670  1.00  0.00    -0.226 A  
HETATM    5  C   UNL     1     -10.373  11.642  65.461  1.00  0.00    -0.264 A  
HETATM    6  N   UNL     1     -10.412  13.046  65.824  1.00  0.00    -0.276 N  
HETATM    7  C   UNL     1      -9.908  13.274  67.092  1.00  0.00    -0.237 A  
HETATM    8  C   UNL     1      -9.867  14.530  67.560  1.00  0.00    -0.222 C  
HETATM    9  C   UNL     1      -9.512  11.959  67.654  1.00  0.00    -0.182 A  
HETATM   10  N   UNL     1      -8.947  11.681  68.846  1.00  0.00     0.001 NA 
HETATM   11  C   UNL     1     -10.289  15.648  66.688  1.00  0.00    -0.290 C  
HETATM   12  C   UNL     1     -10.808  15.391  65.475  1.00  0.00    -0.384 C  
HETATM   13  C   UNL     1      -8.661  10.362  69.081  1.00  0.00    -0.164 A  
HETATM   14  C   UNL     1      -8.049   9.951  70.276  1.00  0.00    -0.115 A  
HETATM   15  C   UNL     1     -10.919  13.993  64.982  1.00  0.00    -0.375 C  
HETATM   16  C   UNL     1     -11.279  16.418  64.515  1.00  0.00    -0.126 C  
HETATM   17  C   UNL     1      -7.709   8.603  70.548  1.00  0.00    -0.086 A  
HETATM   18  O   UNL     1     -11.411  13.744  63.886  1.00  0.00    -0.283 OA 
HETATM   19  O   UNL     1     -10.970  17.773  64.876  1.00  0.00    -0.866 OA 
HETATM   20  C   UNL     1     -10.474  18.162  66.066  1.00  0.00    -0.335 C  
HETATM   21  C   UNL     1      -8.012   7.619  69.617  1.00  0.00    -0.124 A  
HETATM   22  C   UNL     1     -10.135  17.082  67.143  1.00  0.00    -0.292 C  
HETATM   23  H   UNL     1     -10.939  18.154  68.538  1.00  0.00     0.000 HD 
HETATM   24  O   UNL     1     -10.353  19.366  66.293  1.00  0.00    -0.418 OA 
HETATM   25  C   UNL     1      -8.686   7.985  68.460  1.00  0.00    -0.131 A  
HETATM   26  O   UNL     1     -11.036  17.253  68.252  1.00  0.00    -0.336 OA 
HETATM   27  C   UNL     1      -8.944   9.333  68.138  1.00  0.00    -0.128 A  
BRANCH  21  28
HETATM   28  O   UNL     1      -7.661   6.267  69.880  1.00  0.00    -0.099 OA 
BRANCH  28  29
HETATM   29  C   UNL     1      -6.582   5.674  69.187  1.00  0.00    -0.054 C  
HETATM   30  C   UNL     1      -6.121   4.595  65.809  1.00  0.00    -0.027 C  
HETATM   31  N   UNL     1      -6.945   4.891  68.097  1.00  0.00    -0.059 N  
HETATM   32  C   UNL     1      -5.897   4.274  67.284  1.00  0.00    -0.023 C  
HETATM   33  O   UNL     1      -5.402   5.843  69.490  1.00  0.00    -0.004 OA 
HETATM   34  C   UNL     1      -8.308   4.529  67.732  1.00  0.00    -0.099 C  
HETATM   35  C   UNL     1      -8.554   4.786  66.242  1.00  0.00    -0.114 C  
HETATM   36  C   UNL     1      -7.503   4.093  65.328  1.00  0.00    -0.077 C  
BRANCH  36  37
HETATM   37  N   UNL     1      -7.623   2.609  65.316  1.00  0.00    -0.075 NA 
HETATM   38  C   UNL     1      -8.995   2.124  65.057  1.00  0.00    -0.123 C  
HETATM   39  C   UNL     1      -9.478   2.367  63.623  1.00  0.00    -0.108 C  
HETATM   40  C   UNL     1      -8.511   1.775  62.601  1.00  0.00    -0.065 C  
HETATM   41  C   UNL     1      -7.071   2.187  62.894  1.00  0.00    -0.032 C  
HETATM   42  C   UNL     1      -6.719   1.930  64.362  1.00  0.00    -0.027 C  
ENDBRANCH  36  37
ENDBRANCH  28  29
ENDBRANCH  21  28
BRANCH  22  43
HETATM   43  C   UNL     1      -8.717  17.398  67.681  1.00  0.00    -0.221 C  
HETATM   44  C   UNL     1      -7.695  17.805  66.625  1.00  0.00    -0.274 C  
ENDBRANCH  22  43
ENDBRANCH   2   3
TORSDOF 5
ENDMDL
MODEL       23
REMARK 921   NORMALIZED FREE ENERGY PREDICTED BY IDOCK:   -6.07 KCAL/MOL
REMARK 922        TOTAL FREE ENERGY PREDICTED BY IDOCK:   -8.87 KCAL/MOL
REMARK 923 INTER-LIGAND FREE ENERGY PREDICTED BY IDOCK:   -8.32 KCAL/MOL
REMARK 924 INTRA-LIGAND FREE ENERGY PREDICTED BY IDOCK:   -0.55 KCAL/MOL
REMARK 927      BINDING AFFINITY PREDICTED BY RF-SCORE:    0.00 PKD
ROOT
HETATM    1  C   UNL     1     -12.610  12.094  71.280  1.00  0.00    -0.341 C  
HETATM    2  C   UNL     1     -12.928  10.907  70.390  1.00  0.00    -0.172 C  
ENDROOT
BRANCH   2   3
HETATM    3  C   UNL     1     -11.731  10.439  69.595  1.00  0.00    -0.283 A  
HETATM    4  C   UNL     1     -11.217   9.174  69.814  1.00  0.00    -0.073 A  
HETATM    5  C   UNL     1     -11.753   8.100  70.697  1.00  0.00    -0.143 A  
HETATM    6  N   UNL     1     -10.765   7.048  70.549  1.00  0.00    -0.231 N  
HETATM    7  C   UNL     1      -9.743   7.405  69.687  1.00  0.00    -0.163 A  
HETATM    8  C   UNL     1      -8.747   6.535  69.463  1.00  0.00    -0.134 C  
HETATM    9  C   UNL     1     -10.040   8.771  69.192  1.00  0.00    -0.198 A  
HETATM   10  N   UNL     1      -9.320   9.546  68.355  1.00  0.00    -0.133 NA 
HETATM   11  C   UNL     1      -8.722   5.249  70.194  1.00  0.00    -0.133 C  
HETATM   12  C   UNL     1      -9.748   4.916  70.997  1.00  0.00    -0.252 C  
HETATM   13  C   UNL     1      -9.832  10.790  68.098  1.00  0.00    -0.158 A  
HETATM   14  C   UNL     1      -9.161  11.696  67.263  1.00  0.00    -0.167 A  
HETATM   15  C   UNL     1     -10.888   5.850  71.193  1.00  0.00    -0.269 C  
HETATM   16  C   UNL     1      -9.849   3.656  71.772  1.00  0.00    -0.165 C  
HETATM   17  C   UNL     1      -9.640  13.002  66.993  1.00  0.00    -0.236 A  
HETATM   18  O   UNL     1     -11.840   5.549  71.905  1.00  0.00     0.020 OA 
HETATM   19  O   UNL     1      -8.662   2.850  71.775  1.00  0.00    -0.071 OA 
HETATM   20  C   UNL     1      -7.580   3.061  71.001  1.00  0.00    -0.036 C  
HETATM   21  C   UNL     1     -10.844  13.417  67.546  1.00  0.00    -0.263 A  
HETATM   22  C   UNL     1      -7.549   4.305  70.056  1.00  0.00    -0.049 C  
HETATM   23  H   UNL     1      -6.827   3.246  68.607  1.00  0.00     0.000 HD 
HETATM   24  O   UNL     1      -6.667   2.236  71.017  1.00  0.00    -0.030 OA 
HETATM   25  C   UNL     1     -11.567  12.516  68.314  1.00  0.00    -0.376 A  
HETATM   26  O   UNL     1      -7.564   3.839  68.694  1.00  0.00    -0.054 OA 
HETATM   27  C   UNL     1     -11.055  11.250  68.664  1.00  0.00    -0.286 A  
BRANCH  21  28
HETATM   28  O   UNL     1     -11.322  14.731  67.288  1.00  0.00    -0.335 OA 
BRANCH  28  29
HETATM   29  C   UNL     1     -11.043  15.771  68.203  1.00  0.00    -0.341 C  
HETATM   30  C   UNL     1      -9.527  18.993  67.878  1.00  0.00    -0.360 C  
HETATM   31  N   UNL     1      -9.970  16.584  67.856  1.00  0.00    -0.240 N  
HETATM   32  C   UNL     1      -9.632  17.720  68.713  1.00  0.00    -0.290 C  
HETATM   33  O   UNL     1     -11.699  15.978  69.221  1.00  0.00    -0.350 OA 
HETATM   34  C   UNL     1      -9.057  16.352  66.744  1.00  0.00    -0.234 C  
HETATM   35  C   UNL     1      -8.883  17.627  65.914  1.00  0.00     0.088 C  
HETATM   36  C   UNL     1      -8.456  18.853  66.770  1.00  0.00    -0.298 C  
BRANCH  36  37
HETATM   37  N   UNL     1      -7.067  18.745  67.298  1.00  0.00    -0.205 NA 
HETATM   38  C   UNL     1      -6.029  18.738  66.247  1.00  0.00    -0.162 C  
HETATM   39  C   UNL     1      -5.859  20.083  65.534  1.00  0.00    -0.207 C  
HETATM   40  C   UNL     1      -5.592  21.211  66.527  1.00  0.00    -0.298 C  
HETATM   41  C   UNL     1      -6.597  21.192  67.675  1.00  0.00    -0.381 C  
HETATM   42  C   UNL     1      -6.705  19.790  68.281  1.00  0.00    -0.280 C  
ENDBRANCH  36  37
ENDBRANCH  28  29
ENDBRANCH  21  28
BRANCH  22  43
HETATM   43  C   UNL     1      -6.182   5.005  70.262  1.00  0.00    -0.022 C  
HETATM   44  C   UNL     1      -5.391   5.281  68.987  1.00  0.00    -0.004 C  
ENDBRANCH  22  43
ENDBRANCH   2   3
TORSDOF 5
ENDMDL
MODEL       24
REMARK 921   NORMALIZED FREE ENERGY PREDICTED BY IDOCK:   -6.05 KCAL/MOL
REMARK 922        TOTAL FREE ENERGY PREDICTED BY IDOCK:   -8.84 KCAL/MOL
REMARK 923 INTER-LIGAND FREE ENERGY PREDICTED BY IDOCK:  -10.55 KCAL/MOL
REMARK 924 INTRA-LIGAND FREE ENERGY PREDICTED BY IDOCK:    1.71 KCAL/MOL
REMARK 927      BINDING AFFINITY PREDICTED BY RF-SCORE:    0.00 PKD
ROOT
HETATM    1  C   UNL     1     -11.595  10.004  70.603  1.00  0.00    -0.422 C  
HETATM    2  C   UNL     1     -11.690  10.797  69.313  1.00  0.00    -0.374 C  
ENDROOT
BRANCH   2   3
HETATM    3  C   UNL     1     -11.042  10.087  68.146  1.00  0.00    -0.252 A  
HETATM    4  C   UNL     1     -10.572   8.797  68.306  1.00  0.00    -0.194 A  
HETATM    5  C   UNL     1     -10.699   7.909  69.496  1.00  0.00    -0.192 A  
HETATM    6  N   UNL     1      -9.971   6.724  69.084  1.00  0.00    -0.157 N  
HETATM    7  C   UNL     1      -9.454   6.843  67.806  1.00  0.00    -0.122 A  
HETATM    8  C   UNL     1      -8.743   5.828  67.295  1.00  0.00    -0.108 C  
HETATM    9  C   UNL     1      -9.857   8.174  67.289  1.00  0.00    -0.197 A  
HETATM   10  N   UNL     1      -9.565   8.747  66.104  1.00  0.00    -0.254 NA 
HETATM   11  C   UNL     1      -8.462   4.639  68.130  1.00  0.00    -0.104 C  
HETATM   12  C   UNL     1      -9.010   4.537  69.354  1.00  0.00    -0.142 C  
HETATM   13  C   UNL     1     -10.054  10.013  65.913  1.00  0.00    -0.249 A  
HETATM   14  C   UNL     1      -9.795  10.722  64.730  1.00  0.00    -0.358 A  
HETATM   15  C   UNL     1      -9.857   5.632  69.896  1.00  0.00    -0.189 C  
HETATM   16  C   UNL     1      -8.818   3.395  70.280  1.00  0.00    -0.080 C  
HETATM   17  C   UNL     1     -10.256  12.044  64.503  1.00  0.00    -0.318 A  
HETATM   18  O   UNL     1     -10.379   5.542  71.002  1.00  0.00    -0.217 OA 
HETATM   19  O   UNL     1      -7.826   2.442  69.871  1.00  0.00    -0.043 OA 
HETATM   20  C   UNL     1      -7.225   2.420  68.666  1.00  0.00    -0.044 C  
HETATM   21  C   UNL     1     -11.026  12.675  65.470  1.00  0.00    -0.279 A  
HETATM   22  C   UNL     1      -7.559   3.536  67.625  1.00  0.00    -0.069 C  
HETATM   23  H   UNL     1      -7.677   2.236  66.197  1.00  0.00     0.000 HD 
HETATM   24  O   UNL     1      -6.470   1.486  68.396  1.00  0.00    -0.025 OA 
HETATM   25  C   UNL     1     -11.362  11.969  66.616  1.00  0.00    -0.399 A  
HETATM   26  O   UNL     1      -8.244   2.929  66.515  1.00  0.00    -0.084 OA 
HETATM   27  C   UNL     1     -10.831  10.692  66.892  1.00  0.00    -0.267 A  
BRANCH  21  28
HETATM   28  O   UNL     1     -11.480  14.004  65.251  1.00  0.00    -0.307 OA 
BRANCH  28  29
HETATM   29  C   UNL     1     -10.862  15.077  65.932  1.00  0.00    -0.337 C  
HETATM   30  C   UNL     1     -10.015  15.658  69.357  1.00  0.00    -0.279 C  
HETATM   31  N   UNL     1     -11.215  15.203  67.270  1.00  0.00    -0.334 N  
HETATM   32  C   UNL     1     -10.591  16.253  68.075  1.00  0.00    -0.308 C  
HETATM   33  O   UNL     1     -10.051  15.840  65.409  1.00  0.00    -0.348 OA 
HETATM   34  C   UNL     1     -12.252  14.435  67.948  1.00  0.00    -0.143 C  
HETATM   35  C   UNL     1     -11.726  13.867  69.269  1.00  0.00    -0.381 C  
HETATM   36  C   UNL     1     -11.111  14.957  70.194  1.00  0.00    -0.213 C  
BRANCH  36  37
HETATM   37  N   UNL     1     -12.125  15.896  70.748  1.00  0.00    -0.390 NA 
HETATM   38  C   UNL     1     -13.481  15.315  70.853  1.00  0.00    -0.384 C  
HETATM   39  C   UNL     1     -13.610  14.235  71.931  1.00  0.00    -0.501 C  
HETATM   40  C   UNL     1     -13.153  14.747  73.294  1.00  0.00    -0.550 C  
HETATM   41  C   UNL     1     -11.792  15.432  73.203  1.00  0.00    -0.525 C  
HETATM   42  C   UNL     1     -11.775  16.462  72.070  1.00  0.00    -0.353 C  
ENDBRANCH  36  37
ENDBRANCH  28  29
ENDBRANCH  21  28
BRANCH  22  43
HETATM   43  C   UNL     1      -6.212   4.064  67.069  1.00  0.00    -0.032 C  
HETATM   44  C   UNL     1      -6.021   3.907  65.565  1.00  0.00    -0.023 C  
ENDBRANCH  22  43
ENDBRANCH   2   3
TORSDOF 5
ENDMDL
MODEL       25
REMARK 921   NORMALIZED FREE ENERGY PREDICTED BY IDOCK:   -6.02 KCAL/MOL
REMARK 922        TOTAL FREE ENERGY PREDICTED BY IDOCK:   -8.81 KCAL/MOL
REMARK 923 INTER-LIGAND FREE ENERGY PREDICTED BY IDOCK:   -8.99 KCAL/MOL
REMARK 924 INTRA-LIGAND FREE ENERGY PREDICTED BY IDOCK:    0.17 KCAL/MOL
REMARK 927      BINDING AFFINITY PREDICTED BY RF-SCORE:    0.00 PKD
ROOT
HETATM    1  C   UNL     1      -8.642  10.316  64.100  1.00  0.00    -0.198 C  
HETATM    2  C   UNL     1      -9.558  10.357  65.310  1.00  0.00    -0.316 C  
ENDROOT
BRANCH   2   3
HETATM    3  C   UNL     1      -8.996  11.194  66.436  1.00  0.00    -0.190 A  
HETATM    4  C   UNL     1      -9.238  12.554  66.463  1.00  0.00    -0.210 A  
HETATM    5  C   UNL     1     -10.100  13.357  65.550  1.00  0.00    -0.266 A  
HETATM    6  N   UNL     1      -9.910  14.708  66.043  1.00  0.00    -0.307 N  
HETATM    7  C   UNL     1      -9.046  14.755  67.124  1.00  0.00    -0.217 A  
HETATM    8  C   UNL     1      -8.762  15.943  67.679  1.00  0.00    -0.174 C  
HETATM    9  C   UNL     1      -8.624  13.363  67.414  1.00  0.00    -0.204 A  
HETATM   10  N   UNL     1      -7.769  12.914  68.355  1.00  0.00    -0.131 NA 
HETATM   11  C   UNL     1      -9.315  17.179  67.082  1.00  0.00    -0.249 C  
HETATM   12  C   UNL     1     -10.181  17.097  66.056  1.00  0.00    -0.332 C  
HETATM   13  C   UNL     1      -7.545  11.563  68.367  1.00  0.00    -0.125 A  
HETATM   14  C   UNL     1      -6.656  10.980  69.283  1.00  0.00    -0.091 A  
HETATM   15  C   UNL     1     -10.551  15.775  65.483  1.00  0.00    -0.406 C  
HETATM   16  C   UNL     1     -10.814  18.255  65.380  1.00  0.00     0.313 C  
HETATM   17  C   UNL     1      -6.372   9.591  69.311  1.00  0.00    -0.044 A  
HETATM   18  O   UNL     1     -11.355  15.686  64.562  1.00  0.00    -0.419 OA 
HETATM   19  O   UNL     1     -10.296  19.538  65.764  1.00  0.00    -0.448 OA 
HETATM   20  C   UNL     1      -9.448  19.755  66.788  1.00  0.00    -0.382 C  
HETATM   21  C   UNL     1      -7.015   8.744  68.419  1.00  0.00    -0.066 A  
HETATM   22  C   UNL     1      -8.912  18.538  67.608  1.00  0.00    -0.271 C  
HETATM   23  H   UNL     1      -9.187  19.480  69.275  1.00  0.00     0.000 HD 
HETATM   24  O   UNL     1      -9.161  20.914  67.086  1.00  0.00    -0.304 OA 
HETATM   25  C   UNL     1      -7.956   9.282  67.552  1.00  0.00    -0.099 A  
HETATM   26  O   UNL     1      -9.440  18.626  68.944  1.00  0.00    -0.320 OA 
HETATM   27  C   UNL     1      -8.175  10.671  67.453  1.00  0.00    -0.115 A  
BRANCH  21  28
HETATM   28  O   UNL     1      -6.724   7.352  68.435  1.00  0.00    -0.050 OA 
BRANCH  28  29
HETATM   29  C   UNL     1      -7.781   6.415  68.385  1.00  0.00    -0.104 C  
HETATM   30  C   UNL     1     -11.304   6.644  68.951  1.00  0.00    -0.209 C  
HETATM   31  N   UNL     1      -8.868   6.713  69.199  1.00  0.00    -0.129 N  
HETATM   32  C   UNL     1     -10.033   5.831  69.180  1.00  0.00    -0.177 C  
HETATM   33  O   UNL     1      -7.773   5.417  67.667  1.00  0.00    -0.090 OA 
HETATM   34  C   UNL     1      -8.924   7.795  70.173  1.00  0.00    -0.146 C  
HETATM   35  C   UNL     1     -10.215   8.603  70.009  1.00  0.00    -0.201 C  
HETATM   36  C   UNL     1     -11.492   7.716  70.051  1.00  0.00     0.005 C  
BRANCH  36  37
HETATM   37  N   UNL     1     -11.764   7.141  71.398  1.00  0.00    -0.279 NA 
HETATM   38  C   UNL     1     -11.768   8.143  72.484  1.00  0.00    -0.394 C  
HETATM   39  C   UNL     1     -12.962   9.101  72.439  1.00  0.00    -0.468 C  
HETATM   40  C   UNL     1     -14.286   8.341  72.423  1.00  0.00    -0.345 C  
HETATM   41  C   UNL     1     -14.282   7.238  71.368  1.00  0.00    -0.476 C  
HETATM   42  C   UNL     1     -13.024   6.372  71.491  1.00  0.00     0.265 C  
ENDBRANCH  36  37
ENDBRANCH  28  29
ENDBRANCH  21  28
BRANCH  22  43
HETATM   43  C   UNL     1      -7.377  18.708  67.734  1.00  0.00    -0.242 C  
HETATM   44  C   UNL     1      -6.887  19.236  69.077  1.00  0.00    -0.372 C  
ENDBRANCH  22  43
ENDBRANCH   2   3
TORSDOF 5
ENDMDL
MODEL       26
REMARK 921   NORMALIZED FREE ENERGY PREDICTED BY IDOCK:   -6.00 KCAL/MOL
REMARK 922        TOTAL FREE ENERGY PREDICTED BY IDOCK:   -8.78 KCAL/MOL
REMARK 923 INTER-LIGAND FREE ENERGY PREDICTED BY IDOCK:   -7.82 KCAL/MOL
REMARK 924 INTRA-LIGAND FREE ENERGY PREDICTED BY IDOCK:   -0.96 KCAL/MOL
REMARK 927      BINDING AFFINITY PREDICTED BY RF-SCORE:    0.00 PKD
ROOT
HETATM    1  C   UNL     1     -11.862  10.937  69.088  1.00  0.00    -0.389 C  
HETATM    2  C   UNL     1     -10.943  11.112  67.893  1.00  0.00    -0.307 C  
ENDROOT
BRANCH   2   3
HETATM    3  C   UNL     1      -9.628  11.759  68.262  1.00  0.00    -0.199 A  
HETATM    4  C   UNL     1      -9.507  13.136  68.221  1.00  0.00    -0.210 A  
HETATM    5  C   UNL     1     -10.566  14.147  67.945  1.00  0.00    -0.243 A  
HETATM    6  N   UNL     1      -9.828  15.395  67.986  1.00  0.00    -0.215 N  
HETATM    7  C   UNL     1      -8.484  15.202  68.255  1.00  0.00    -0.152 A  
HETATM    8  C   UNL     1      -7.672  16.268  68.310  1.00  0.00    -0.158 C  
HETATM    9  C   UNL     1      -8.274  13.744  68.428  1.00  0.00    -0.151 A  
HETATM   10  N   UNL     1      -7.129  13.076  68.674  1.00  0.00    -0.100 NA 
HETATM   11  C   UNL     1      -8.211  17.613  68.010  1.00  0.00    -0.242 C  
HETATM   12  C   UNL     1      -9.528  17.772  67.790  1.00  0.00    -0.262 C  
HETATM   13  C   UNL     1      -7.235  11.712  68.755  1.00  0.00    -0.116 A  
HETATM   14  C   UNL     1      -6.109  10.906  68.983  1.00  0.00    -0.042 A  
HETATM   15  C   UNL     1     -10.442  16.600  67.797  1.00  0.00    -0.316 C  
HETATM   16  C   UNL     1     -10.191  19.065  67.493  1.00  0.00    -0.394 C  
HETATM   17  C   UNL     1      -6.169   9.491  69.043  1.00  0.00    -0.042 A  
HETATM   18  O   UNL     1     -11.648  16.735  67.618  1.00  0.00     0.168 OA 
HETATM   19  O   UNL     1      -9.300  20.164  67.257  1.00  0.00    -0.349 OA 
HETATM   20  C   UNL     1      -7.969  20.140  67.465  1.00  0.00    -0.317 C  
HETATM   21  C   UNL     1      -7.393   8.851  68.904  1.00  0.00    -0.075 A  
HETATM   22  C   UNL     1      -7.294  18.814  67.942  1.00  0.00    -0.241 C  
HETATM   23  H   UNL     1      -6.217  19.771  69.233  1.00  0.00     0.000 HD 
HETATM   24  O   UNL     1      -7.327  21.181  67.328  1.00  0.00    -0.430 OA 
HETATM   25  C   UNL     1      -8.534   9.627  68.755  1.00  0.00    -0.123 A  
HETATM   26  O   UNL     1      -6.793  19.016  69.276  1.00  0.00    -0.305 OA 
HETATM   27  C   UNL     1      -8.473  11.027  68.599  1.00  0.00    -0.157 A  
BRANCH  21  28
HETATM   28  O   UNL     1      -7.456   7.432  68.953  1.00  0.00    -0.095 OA 
BRANCH  28  29
HETATM   29  C   UNL     1      -8.679   6.775  68.693  1.00  0.00    -0.125 C  
HETATM   30  C   UNL     1      -9.560   3.873  66.799  1.00  0.00    -0.222 C  
HETATM   31  N   UNL     1      -8.720   6.065  67.498  1.00  0.00    -0.109 N  
HETATM   32  C   UNL     1      -9.926   5.309  67.161  1.00  0.00    -0.184 C  
HETATM   33  O   UNL     1      -9.640   6.794  69.459  1.00  0.00    -0.148 OA 
HETATM   34  C   UNL     1      -7.689   6.080  66.469  1.00  0.00    -0.103 C  
HETATM   35  C   UNL     1      -7.334   4.654  66.040  1.00  0.00    -0.077 C  
HETATM   36  C   UNL     1      -8.577   3.826  65.605  1.00  0.00    -0.112 C  
BRANCH  36  37
HETATM   37  N   UNL     1      -9.177   4.297  64.325  1.00  0.00    -0.149 NA 
HETATM   38  C   UNL     1      -8.246   4.250  63.178  1.00  0.00    -0.090 C  
HETATM   39  C   UNL     1      -7.900   2.831  62.718  1.00  0.00    -0.067 C  
HETATM   40  C   UNL     1      -9.157   2.023  62.405  1.00  0.00    -0.073 C  
HETATM   41  C   UNL     1     -10.177   2.122  63.536  1.00  0.00    -0.148 C  
HETATM   42  C   UNL     1     -10.412   3.583  63.931  1.00  0.00    -0.264 C  
ENDBRANCH  36  37
ENDBRANCH  28  29
ENDBRANCH  21  28
BRANCH  22  43
HETATM   43  C   UNL     1      -6.055  18.579  67.042  1.00  0.00    -0.179 C  
HETATM   44  C   UNL     1      -6.350  18.413  65.555  1.00  0.00    -0.310 C  
ENDBRANCH  22  43
ENDBRANCH   2   3
TORSDOF 5
ENDMDL
MODEL       27
REMARK 921   NORMALIZED FREE ENERGY PREDICTED BY IDOCK:   -5.72 KCAL/MOL
REMARK 922        TOTAL FREE ENERGY PREDICTED BY IDOCK:   -8.41 KCAL/MOL
REMARK 923 INTER-LIGAND FREE ENERGY PREDICTED BY IDOCK:   -7.15 KCAL/MOL
REMARK 924 INTRA-LIGAND FREE ENERGY PREDICTED BY IDOCK:   -1.27 KCAL/MOL
REMARK 927      BINDING AFFINITY PREDICTED BY RF-SCORE:    0.00 PKD
ROOT
HETATM    1  C   UNL     1      -7.520   9.233  68.785  1.00  0.00    -0.076 C  
HETATM    2  C   UNL     1      -7.824  10.367  69.748  1.00  0.00    -0.108 C  
ENDROOT
BRANCH   2   3
HETATM    3  C   UNL     1      -9.038  11.168  69.337  1.00  0.00     0.298 A  
HETATM    4  C   UNL     1      -8.871  12.392  68.716  1.00  0.00     0.152 A  
HETATM    5  C   UNL     1      -7.603  13.039  68.278  1.00  0.00    -0.135 A  
HETATM    6  N   UNL     1      -8.063  14.312  67.754  1.00  0.00    -0.155 N  
HETATM    7  C   UNL     1      -9.437  14.451  67.846  1.00  0.00    -0.214 A  
HETATM    8  C   UNL     1     -10.007  15.585  67.413  1.00  0.00    -0.234 C  
HETATM    9  C   UNL     1      -9.969  13.204  68.449  1.00  0.00    -0.223 A  
HETATM   10  N   UNL     1     -11.242  12.888  68.759  1.00  0.00    -0.263 NA 
HETATM   11  C   UNL     1      -9.153  16.688  66.918  1.00  0.00    -0.248 C  
HETATM   12  C   UNL     1      -7.825  16.508  66.806  1.00  0.00    -0.296 C  
HETATM   13  C   UNL     1     -11.431  11.662  69.342  1.00  0.00    -0.307 A  
HETATM   14  C   UNL     1     -12.708  11.231  69.733  1.00  0.00     0.029 A  
HETATM   15  C   UNL     1      -7.200  15.224  67.221  1.00  0.00    -0.178 C  
HETATM   16  C   UNL     1      -6.866  17.526  66.313  1.00  0.00    -0.287 C  
HETATM   17  C   UNL     1     -12.944   9.984  70.365  1.00  0.00    -0.052 A  
HETATM   18  O   UNL     1      -5.992  15.040  67.104  1.00  0.00    -0.254 OA 
HETATM   19  O   UNL     1      -7.417  18.838  66.126  1.00  0.00    -0.252 OA 
HETATM   20  C   UNL     1      -8.728  19.143  66.184  1.00  0.00    -0.219 C  
HETATM   21  C   UNL     1     -11.882   9.119  70.592  1.00  0.00    -0.175 A  
HETATM   22  C   UNL     1      -9.757  18.022  66.541  1.00  0.00    -0.338 C  
HETATM   23  H   UNL     1     -10.961  18.620  65.150  1.00  0.00     0.000 HD 
HETATM   24  O   UNL     1      -9.085  20.285  65.899  1.00  0.00    -0.212 OA 
HETATM   25  C   UNL     1     -10.620   9.487  70.146  1.00  0.00    -0.298 A  
HETATM   26  O   UNL     1     -10.581  17.781  65.386  1.00  0.00    -0.659 OA 
HETATM   27  C   UNL     1     -10.360  10.762  69.603  1.00  0.00    -0.142 A  
BRANCH  21  28
HETATM   28  O   UNL     1     -12.113   7.874  71.236  1.00  0.00    -0.296 OA 
BRANCH  28  29
HETATM   29  C   UNL     1     -11.582   7.642  72.525  1.00  0.00    -0.330 C  
HETATM   30  C   UNL     1      -8.418   6.469  73.709  1.00  0.00    -0.131 C  
HETATM   31  N   UNL     1     -10.584   6.676  72.581  1.00  0.00    -0.212 N  
HETATM   32  C   UNL     1      -9.935   6.398  73.862  1.00  0.00    -0.258 C  
HETATM   33  O   UNL     1     -11.941   8.251  73.530  1.00  0.00     0.485 OA 
HETATM   34  C   UNL     1     -10.175   5.814  71.480  1.00  0.00    -0.203 C  
HETATM   35  C   UNL     1      -8.652   5.817  71.329  1.00  0.00    -0.129 C  
HETATM   36  C   UNL     1      -7.913   5.459  72.651  1.00  0.00    -0.103 C  
BRANCH  36  37
HETATM   37  N   UNL     1      -8.091   4.037  73.056  1.00  0.00    -0.088 NA 
HETATM   38  C   UNL     1      -7.725   3.067  72.003  1.00  0.00    -0.054 C  
HETATM   39  C   UNL     1      -6.222   2.999  71.717  1.00  0.00    -0.014 C  
HETATM   40  C   UNL     1      -5.424   2.717  72.988  1.00  0.00     0.000 C  
HETATM   41  C   UNL     1      -5.841   3.647  74.124  1.00  0.00    -0.004 C  
HETATM   42  C   UNL     1      -7.364   3.658  74.288  1.00  0.00    -0.054 C  
ENDBRANCH  36  37
ENDBRANCH  28  29
ENDBRANCH  21  28
BRANCH  22  43
HETATM   43  C   UNL     1     -10.696  18.592  67.635  1.00  0.00    -0.428 C  
HETATM   44  C   UNL     1      -9.997  19.118  68.884  1.00  0.00    -0.481 C  
ENDBRANCH  22  43
ENDBRANCH   2   3
TORSDOF 5
ENDMDL
MODEL       28
REMARK 921   NORMALIZED FREE ENERGY PREDICTED BY IDOCK:   -5.65 KCAL/MOL
REMARK 922        TOTAL FREE ENERGY PREDICTED BY IDOCK:   -8.32 KCAL/MOL
REMARK 923 INTER-LIGAND FREE ENERGY PREDICTED BY IDOCK:   -9.92 KCAL/MOL
REMARK 924 INTRA-LIGAND FREE ENERGY PREDICTED BY IDOCK:    1.60 KCAL/MOL
REMARK 927      BINDING AFFINITY PREDICTED BY RF-SCORE:    0.00 PKD
ROOT
HETATM    1  C   UNL     1     -10.119   8.083  66.470  1.00  0.00    -0.270 C  
HETATM    2  C   UNL     1      -8.911   8.931  66.114  1.00  0.00    -0.218 C  
ENDROOT
BRANCH   2   3
HETATM    3  C   UNL     1      -8.654  10.027  67.122  1.00  0.00    -0.128 A  
HETATM    4  C   UNL     1      -9.115  11.307  66.873  1.00  0.00    -0.172 A  
HETATM    5  C   UNL     1      -9.960  11.779  65.741  1.00  0.00    -0.238 A  
HETATM    6  N   UNL     1     -10.061  13.204  65.995  1.00  0.00    -0.282 N  
HETATM    7  C   UNL     1      -9.375  13.583  67.136  1.00  0.00    -0.240 A  
HETATM    8  C   UNL     1      -9.367  14.876  67.491  1.00  0.00    -0.193 C  
HETATM    9  C   UNL     1      -8.778  12.357  67.720  1.00  0.00    -0.176 A  
HETATM   10  N   UNL     1      -8.001  12.231  68.815  1.00  0.00    -0.039 NA 
HETATM   11  C   UNL     1     -10.024  15.876  66.621  1.00  0.00    -0.267 C  
HETATM   12  C   UNL     1     -10.714  15.472  65.540  1.00  0.00    -0.395 C  
HETATM   13  C   UNL     1      -7.564  10.963  69.099  1.00  0.00    -0.133 A  
HETATM   14  C   UNL     1      -6.729  10.709  70.198  1.00  0.00    -0.143 A  
HETATM   15  C   UNL     1     -10.782  14.030  65.183  1.00  0.00    -0.382 C  
HETATM   16  C   UNL     1     -11.426  16.370  64.599  1.00  0.00    -0.091 C  
HETATM   17  C   UNL     1      -6.231   9.419  70.510  1.00  0.00    -0.064 A  
HETATM   18  O   UNL     1     -11.425  13.647  64.211  1.00  0.00    -0.380 OA 
HETATM   19  O   UNL     1     -11.181  17.771  64.795  1.00  0.00    -0.767 OA 
HETATM   20  C   UNL     1     -10.530  18.303  65.848  1.00  0.00    -0.307 C  
HETATM   21  C   UNL     1      -6.597   8.335  69.724  1.00  0.00    -0.039 A  
HETATM   22  C   UNL     1      -9.924  17.353  66.931  1.00  0.00    -0.300 C  
HETATM   23  H   UNL     1     -10.576  18.485  68.357  1.00  0.00     0.000 HD 
HETATM   24  O   UNL     1     -10.479  19.527  65.957  1.00  0.00    -0.476 OA 
HETATM   25  C   UNL     1      -7.484   8.545  68.676  1.00  0.00    -0.093 A  
HETATM   26  O   UNL     1     -10.639  17.557  68.163  1.00  0.00    -0.370 OA 
HETATM   27  C   UNL     1      -7.909   9.835  68.301  1.00  0.00    -0.089 A  
BRANCH  21  28
HETATM   28  O   UNL     1      -6.091   7.042  70.027  1.00  0.00    -0.023 OA 
BRANCH  28  29
HETATM   29  C   UNL     1      -6.976   5.944  70.107  1.00  0.00    -0.069 C  
HETATM   30  C   UNL     1     -10.532   5.627  69.903  1.00  0.00    -0.378 C  
HETATM   31  N   UNL     1      -8.255   6.253  70.555  1.00  0.00    -0.116 N  
HETATM   32  C   UNL     1      -9.260   5.193  70.626  1.00  0.00    -0.147 C  
HETATM   33  O   UNL     1      -6.670   4.797  69.787  1.00  0.00    -0.038 OA 
HETATM   34  C   UNL     1      -8.680   7.547  71.074  1.00  0.00    -0.134 C  
HETATM   35  C   UNL     1      -9.987   7.991  70.410  1.00  0.00    -0.188 C  
HETATM   36  C   UNL     1     -11.113   6.924  70.517  1.00  0.00    -0.288 C  
BRANCH  36  37
HETATM   37  N   UNL     1     -11.623   6.745  71.905  1.00  0.00    -0.278 NA 
HETATM   38  C   UNL     1     -11.559   7.973  72.725  1.00  0.00    -0.327 C  
HETATM   39  C   UNL     1     -12.550   9.058  72.294  1.00  0.00    -0.445 C  
HETATM   40  C   UNL     1     -13.980   8.526  72.258  1.00  0.00    -0.423 C  
HETATM   41  C   UNL     1     -14.065   7.210  71.491  1.00  0.00    -0.467 C  
HETATM   42  C   UNL     1     -13.004   6.222  71.985  1.00  0.00     0.265 C  
ENDBRANCH  36  37
ENDBRANCH  28  29
ENDBRANCH  21  28
BRANCH  22  43
HETATM   43  C   UNL     1      -8.469  17.820  67.189  1.00  0.00    -0.239 C  
HETATM   44  C   UNL     1      -8.258  18.616  68.472  1.00  0.00    -0.370 C  
ENDBRANCH  22  43
ENDBRANCH   2   3
TORSDOF 5
ENDMDL
MODEL       29
REMARK 921   NORMALIZED FREE ENERGY PREDICTED BY IDOCK:   -5.63 KCAL/MOL
REMARK 922        TOTAL FREE ENERGY PREDICTED BY IDOCK:   -8.31 KCAL/MOL
REMARK 923 INTER-LIGAND FREE ENERGY PREDICTED BY IDOCK:   -7.26 KCAL/MOL
REMARK 924 INTRA-LIGAND FREE ENERGY PREDICTED BY IDOCK:   -1.05 KCAL/MOL
REMARK 927      BINDING AFFINITY PREDICTED BY RF-SCORE:    0.00 PKD
ROOT
HETATM    1  C   UNL     1      -6.937  12.492  68.977  1.00  0.00    -0.066 C  
HETATM    2  C   UNL     1      -7.420  11.169  68.412  1.00  0.00    -0.102 C  
ENDROOT
BRANCH   2   3
HETATM    3  C   UNL     1      -8.517  10.547  69.246  1.00  0.00    -0.138 A  
HETATM    4  C   UNL     1      -8.247   9.421  70.001  1.00  0.00    -0.171 A  
HETATM    5  C   UNL     1      -6.939   8.740  70.207  1.00  0.00    -0.043 A  
HETATM    6  N   UNL     1      -7.300   7.606  71.037  1.00  0.00    -0.069 N  
HETATM    7  C   UNL     1      -8.655   7.574  71.321  1.00  0.00    -0.121 A  
HETATM    8  C   UNL     1      -9.140   6.573  72.069  1.00  0.00    -0.140 C  
HETATM    9  C   UNL     1      -9.270   8.757  70.671  1.00  0.00    -0.196 A  
HETATM   10  N   UNL     1     -10.565   9.133  70.644  1.00  0.00    -0.226 NA 
HETATM   11  C   UNL     1      -8.236   5.487  72.510  1.00  0.00    -0.114 C  
HETATM   12  C   UNL     1      -6.919   5.566  72.250  1.00  0.00    -0.081 C  
HETATM   13  C   UNL     1     -10.846  10.268  69.930  1.00  0.00    -0.302 A  
HETATM   14  C   UNL     1     -12.160  10.745  69.808  1.00  0.00    -0.389 A  
HETATM   15  C   UNL     1      -6.369   6.713  71.481  1.00  0.00    -0.042 C  
HETATM   16  C   UNL     1      -5.910   4.555  72.649  1.00  0.00    -0.012 C  
HETATM   17  C   UNL     1     -12.499  11.897  69.055  1.00  0.00     0.348 A  
HETATM   18  O   UNL     1      -5.166   6.807  71.255  1.00  0.00    -0.025 OA 
HETATM   19  O   UNL     1      -6.450   3.339  73.187  1.00  0.00    -0.022 OA 
HETATM   20  C   UNL     1      -7.743   3.144  73.515  1.00  0.00    -0.057 C  
HETATM   21  C   UNL     1     -11.497  12.622  68.425  1.00  0.00    -0.310 A  
HETATM   22  C   UNL     1      -8.779   4.283  73.247  1.00  0.00    -0.096 C  
HETATM   23  H   UNL     1      -9.598   4.010  74.978  1.00  0.00     0.000 HD 
HETATM   24  O   UNL     1      -8.063   2.094  74.070  1.00  0.00    -0.052 OA 
HETATM   25  C   UNL     1     -10.180  12.218  68.592  1.00  0.00    -0.177 A  
HETATM   26  O   UNL     1      -9.257   4.767  74.515  1.00  0.00    -0.109 OA 
HETATM   27  C   UNL     1      -9.842  11.022  69.259  1.00  0.00    -0.060 A  
BRANCH  21  28
HETATM   28  O   UNL     1     -11.834  13.772  67.660  1.00  0.00    -0.344 OA 
BRANCH  28  29
HETATM   29  C   UNL     1     -10.946  14.236  66.664  1.00  0.00    -0.310 C  
HETATM   30  C   UNL     1      -7.841  16.008  66.765  1.00  0.00    -0.288 C  
HETATM   31  N   UNL     1     -10.184  15.341  67.027  1.00  0.00    -0.256 N  
HETATM   32  C   UNL     1      -9.199  15.867  66.082  1.00  0.00    -0.349 C  
HETATM   33  O   UNL     1     -10.820  13.706  65.562  1.00  0.00    -0.284 OA 
HETATM   34  C   UNL     1     -10.344  16.114  68.251  1.00  0.00    -0.266 C  
HETATM   35  C   UNL     1      -8.992  16.323  68.938  1.00  0.00    -0.248 C  
HETATM   36  C   UNL     1      -7.924  16.946  67.993  1.00  0.00    -0.185 C  
BRANCH  36  37
HETATM   37  N   UNL     1      -8.211  18.364  67.637  1.00  0.00    -0.251 NA 
HETATM   38  C   UNL     1      -8.463  19.232  68.805  1.00  0.00    -0.347 C  
HETATM   39  C   UNL     1      -7.221  19.496  69.661  1.00  0.00    -0.136 C  
HETATM   40  C   UNL     1      -6.077  20.064  68.825  1.00  0.00    -0.315 C  
HETATM   41  C   UNL     1      -5.848  19.237  67.563  1.00  0.00    -0.190 C  
HETATM   42  C   UNL     1      -7.164  19.010  66.814  1.00  0.00    -0.208 C  
ENDBRANCH  36  37
ENDBRANCH  28  29
ENDBRANCH  21  28
BRANCH  22  43
HETATM   43  C   UNL     1      -9.997   3.638  72.539  1.00  0.00    -0.227 C  
HETATM   44  C   UNL     1     -11.149   3.240  73.455  1.00  0.00    -0.282 C  
ENDBRANCH  22  43
ENDBRANCH   2   3
TORSDOF 5
ENDMDL
MODEL       30
REMARK 921   NORMALIZED FREE ENERGY PREDICTED BY IDOCK:   -5.62 KCAL/MOL
REMARK 922        TOTAL FREE ENERGY PREDICTED BY IDOCK:   -8.28 KCAL/MOL
REMARK 923 INTER-LIGAND FREE ENERGY PREDICTED BY IDOCK:   -7.11 KCAL/MOL
REMARK 924 INTRA-LIGAND FREE ENERGY PREDICTED BY IDOCK:   -1.17 KCAL/MOL
REMARK 927      BINDING AFFINITY PREDICTED BY RF-SCORE:    0.00 PKD
ROOT
HETATM    1  C   UNL     1     -10.063  10.255  67.257  1.00  0.00    -0.249 C  
HETATM    2  C   UNL     1     -11.336  11.042  67.006  1.00  0.00    -0.164 C  
ENDROOT
BRANCH   2   3
HETATM    3  C   UNL     1     -11.551  12.139  68.023  1.00  0.00    -0.411 A  
HETATM    4  C   UNL     1     -11.139  13.427  67.737  1.00  0.00    -0.292 A  
HETATM    5  C   UNL     1     -10.567  13.952  66.465  1.00  0.00    -0.279 A  
HETATM    6  N   UNL     1     -10.286  15.337  66.794  1.00  0.00    -0.273 N  
HETATM    7  C   UNL     1     -10.635  15.649  68.097  1.00  0.00    -0.274 A  
HETATM    8  C   UNL     1     -10.419  16.893  68.548  1.00  0.00    -0.361 C  
HETATM    9  C   UNL     1     -11.206  14.423  68.706  1.00  0.00    -0.260 A  
HETATM   10  N   UNL     1     -11.658  14.231  69.962  1.00  0.00    -0.271 NA 
HETATM   11  C   UNL     1      -9.749  17.881  67.675  1.00  0.00    -0.280 C  
HETATM   12  C   UNL     1      -9.456  17.559  66.402  1.00  0.00    -0.276 C  
HETATM   13  C   UNL     1     -12.105  12.969  70.254  1.00  0.00    -0.314 A  
HETATM   14  C   UNL     1     -12.576  12.641  71.534  1.00  0.00    -0.256 A  
HETATM   15  C   UNL     1      -9.758  16.201  65.878  1.00  0.00    -0.340 C  
HETATM   16  C   UNL     1      -8.799  18.460  65.425  1.00  0.00     1.514 C  
HETATM   17  C   UNL     1     -13.019  11.342  71.887  1.00  0.00    -0.471 A  
HETATM   18  O   UNL     1      -9.515  15.902  64.713  1.00  0.00     0.366 OA 
HETATM   19  O   UNL     1      -8.296  19.687  65.974  1.00  0.00    -0.348 OA 
HETATM   20  C   UNL     1      -8.540  20.134  67.222  1.00  0.00    -0.343 C  
HETATM   21  C   UNL     1     -13.026  10.338  70.928  1.00  0.00    -0.371 A  
HETATM   22  C   UNL     1      -9.380  19.251  68.199  1.00  0.00    -0.342 C  
HETATM   23  H   UNL     1     -10.390  20.789  68.796  1.00  0.00     0.000 HD 
HETATM   24  O   UNL     1      -8.141  21.254  67.540  1.00  0.00    -0.178 OA 
HETATM   25  C   UNL     1     -12.639  10.653  69.633  1.00  0.00     0.003 A  
HETATM   26  O   UNL     1     -10.622  19.928  68.467  1.00  0.00    -0.338 OA 
HETATM   27  C   UNL     1     -12.108  11.915  69.297  1.00  0.00    -0.270 A  
BRANCH  21  28
HETATM   28  O   UNL     1     -13.459   9.031  71.281  1.00  0.00    -0.301 OA 
BRANCH  28  29
HETATM   29  C   UNL     1     -12.640   8.215  72.094  1.00  0.00    -0.310 C  
HETATM   30  C   UNL     1      -9.541   6.517  71.545  1.00  0.00    -0.169 C  
HETATM   31  N   UNL     1     -11.860   7.295  71.403  1.00  0.00    -0.289 N  
HETATM   32  C   UNL     1     -10.940   6.439  72.151  1.00  0.00    -0.251 C  
HETATM   33  O   UNL     1     -12.584   8.310  73.318  1.00  0.00     0.143 OA 
HETATM   34  C   UNL     1     -11.942   7.019  69.974  1.00  0.00    -0.002 C  
HETATM   35  C   UNL     1     -10.548   7.035  69.341  1.00  0.00    -0.248 C  
HETATM   36  C   UNL     1      -9.547   6.085  70.059  1.00  0.00    -0.163 C  
BRANCH  36  37
HETATM   37  N   UNL     1      -9.861   4.643  69.862  1.00  0.00    -0.213 NA 
HETATM   38  C   UNL     1      -9.855   4.220  68.446  1.00  0.00    -0.034 C  
HETATM   39  C   UNL     1      -8.462   4.202  67.810  1.00  0.00    -0.104 C  
HETATM   40  C   UNL     1      -7.491   3.344  68.617  1.00  0.00    -0.049 C  
HETATM   41  C   UNL     1      -7.537   3.697  70.100  1.00  0.00    -0.047 C  
HETATM   42  C   UNL     1      -8.981   3.719  70.611  1.00  0.00    -0.095 C  
ENDBRANCH  36  37
ENDBRANCH  28  29
ENDBRANCH  21  28
BRANCH  22  43
HETATM   43  C   UNL     1      -8.614  19.198  69.545  1.00  0.00     0.305 C  
HETATM   44  C   UNL     1      -7.108  18.989  69.430  1.00  0.00    -0.205 C  
ENDBRANCH  22  43
ENDBRANCH   2   3
TORSDOF 5
ENDMDL
MODEL       31
REMARK 921   NORMALIZED FREE ENERGY PREDICTED BY IDOCK:   -5.56 KCAL/MOL
REMARK 922        TOTAL FREE ENERGY PREDICTED BY IDOCK:   -8.21 KCAL/MOL
REMARK 923 INTER-LIGAND FREE ENERGY PREDICTED BY IDOCK:   -7.66 KCAL/MOL
REMARK 924 INTRA-LIGAND FREE ENERGY PREDICTED BY IDOCK:   -0.55 KCAL/MOL
REMARK 927      BINDING AFFINITY PREDICTED BY RF-SCORE:    0.00 PKD
ROOT
HETATM    1  C   UNL     1      -5.444   9.587  69.118  1.00  0.00    -0.036 C  
HETATM    2  C   UNL     1      -6.489  10.559  69.634  1.00  0.00    -0.084 C  
ENDROOT
BRANCH   2   3
HETATM    3  C   UNL     1      -7.231  11.260  68.519  1.00  0.00    -0.094 A  
HETATM    4  C   UNL     1      -7.177  12.638  68.424  1.00  0.00    -0.111 A  
HETATM    5  C   UNL     1      -6.374  13.589  69.243  1.00  0.00    -0.109 A  
HETATM    6  N   UNL     1      -6.777  14.879  68.714  1.00  0.00    -0.088 N  
HETATM    7  C   UNL     1      -7.707  14.761  67.695  1.00  0.00    -0.182 A  
HETATM    8  C   UNL     1      -8.184  15.873  67.117  1.00  0.00    -0.233 C  
HETATM    9  C   UNL     1      -7.955  13.313  67.489  1.00  0.00    -0.184 A  
HETATM   10  N   UNL     1      -8.800  12.712  66.628  1.00  0.00    -0.173 NA 
HETATM   11  C   UNL     1      -7.765  17.198  67.627  1.00  0.00    -0.184 C  
HETATM   12  C   UNL     1      -6.832  17.279  68.592  1.00  0.00    -0.207 C  
HETATM   13  C   UNL     1      -8.840  11.343  66.683  1.00  0.00    -0.183 A  
HETATM   14  C   UNL     1      -9.699  10.605  65.853  1.00  0.00    -0.273 A  
HETATM   15  C   UNL     1      -6.251  16.046  69.186  1.00  0.00    -0.145 C  
HETATM   16  C   UNL     1      -6.320  18.542  69.177  1.00  0.00    -0.253 C  
HETATM   17  C   UNL     1      -9.794   9.192  65.898  1.00  0.00    -0.305 A  
HETATM   18  O   UNL     1      -5.384  16.108  70.052  1.00  0.00    -0.137 OA 
HETATM   19  O   UNL     1      -7.029  19.725  68.782  1.00  0.00    -0.315 OA 
HETATM   20  C   UNL     1      -7.963  19.780  67.813  1.00  0.00    -0.299 C  
HETATM   21  C   UNL     1      -8.987   8.479  66.775  1.00  0.00    -0.146 A  
HETATM   22  C   UNL     1      -8.381  18.466  67.079  1.00  0.00    -0.252 C  
HETATM   23  H   UNL     1      -8.345  19.356  65.362  1.00  0.00     0.000 HD 
HETATM   24  O   UNL     1      -8.422  20.876  67.492  1.00  0.00    -0.214 OA 
HETATM   25  C   UNL     1      -8.073   9.177  67.552  1.00  0.00    -0.104 A  
HETATM   26  O   UNL     1      -7.958  18.560  65.707  1.00  0.00    -0.498 OA 
HETATM   27  C   UNL     1      -8.038  10.586  67.583  1.00  0.00    -0.107 A  
BRANCH  21  28
HETATM   28  O   UNL     1      -9.087   7.063  66.831  1.00  0.00    -0.130 OA 
BRANCH  28  29
HETATM   29  C   UNL     1     -10.037   6.460  67.686  1.00  0.00    -0.151 C  
HETATM   30  C   UNL     1     -10.229   6.019  71.230  1.00  0.00    -0.253 C  
HETATM   31  N   UNL     1      -9.523   5.976  68.884  1.00  0.00    -0.125 N  
HETATM   32  C   UNL     1     -10.435   5.380  69.859  1.00  0.00    -0.308 C  
HETATM   33  O   UNL     1     -11.236   6.380  67.425  1.00  0.00    -0.352 OA 
HETATM   34  C   UNL     1      -8.111   5.910  69.233  1.00  0.00    -0.106 C  
HETATM   35  C   UNL     1      -7.872   6.494  70.629  1.00  0.00    -0.106 C  
HETATM   36  C   UNL     1      -8.772   5.843  71.718  1.00  0.00    -0.139 C  
BRANCH  36  37
HETATM   37  N   UNL     1      -8.411   4.428  72.009  1.00  0.00    -0.109 NA 
HETATM   38  C   UNL     1      -6.990   4.111  71.754  1.00  0.00    -0.037 C  
HETATM   39  C   UNL     1      -6.021   4.764  72.745  1.00  0.00    -0.017 C  
HETATM   40  C   UNL     1      -6.384   4.421  74.188  1.00  0.00    -0.047 C  
HETATM   41  C   UNL     1      -7.867   4.655  74.460  1.00  0.00    -0.095 C  
HETATM   42  C   UNL     1      -8.730   3.987  73.385  1.00  0.00    -0.091 C  
ENDBRANCH  36  37
ENDBRANCH  28  29
ENDBRANCH  21  28
BRANCH  22  43
HETATM   43  C   UNL     1      -9.930  18.425  67.055  1.00  0.00    -0.355 C  
HETATM   44  C   UNL     1     -10.572  18.793  65.722  1.00  0.00    -0.321 C  
ENDBRANCH  22  43
ENDBRANCH   2   3
TORSDOF 5
ENDMDL
MODEL       32
REMARK 921   NORMALIZED FREE ENERGY PREDICTED BY IDOCK:   -4.98 KCAL/MOL
REMARK 922        TOTAL FREE ENERGY PREDICTED BY IDOCK:   -7.46 KCAL/MOL
REMARK 923 INTER-LIGAND FREE ENERGY PREDICTED BY IDOCK:   -6.71 KCAL/MOL
REMARK 924 INTRA-LIGAND FREE ENERGY PREDICTED BY IDOCK:   -0.75 KCAL/MOL
REMARK 927      BINDING AFFINITY PREDICTED BY RF-SCORE:    0.00 PKD
ROOT
HETATM    1  C   UNL     1      -7.582  10.270  64.305  1.00  0.00    -0.089 C  
HETATM    2  C   UNL     1      -7.402  10.110  65.803  1.00  0.00    -0.128 C  
ENDROOT
BRANCH   2   3
HETATM    3  C   UNL     1      -8.712   9.899  66.526  1.00  0.00    -0.139 A  
HETATM    4  C   UNL     1      -9.290  10.949  67.215  1.00  0.00    -0.168 A  
HETATM    5  C   UNL     1      -8.841  12.369  67.280  1.00  0.00    -0.192 A  
HETATM    6  N   UNL     1      -9.805  12.963  68.187  1.00  0.00    -0.223 N  
HETATM    7  C   UNL     1     -10.739  12.045  68.636  1.00  0.00    -0.236 A  
HETATM    8  C   UNL     1     -11.686  12.448  69.495  1.00  0.00    -0.388 C  
HETATM    9  C   UNL     1     -10.424  10.745  67.995  1.00  0.00    -0.194 A  
HETATM   10  N   UNL     1     -11.037   9.554  68.147  1.00  0.00    -0.078 NA 
HETATM   11  C   UNL     1     -11.670  13.838  70.001  1.00  0.00    -0.327 C  
HETATM   12  C   UNL     1     -10.773  14.715  69.518  1.00  0.00    -0.202 C  
HETATM   13  C   UNL     1     -10.500   8.508  67.442  1.00  0.00    -0.280 A  
HETATM   14  C   UNL     1     -11.035   7.214  67.538  1.00  0.00    -0.261 A  
HETATM   15  C   UNL     1      -9.764  14.288  68.512  1.00  0.00    -0.225 C  
HETATM   16  C   UNL     1     -10.662  16.135  69.931  1.00  0.00    -0.328 C  
HETATM   17  C   UNL     1     -10.493   6.099  66.851  1.00  0.00    -0.340 A  
HETATM   18  O   UNL     1      -8.954  15.084  68.049  1.00  0.00    -0.168 OA 
HETATM   19  O   UNL     1     -11.470  16.503  71.059  1.00  0.00    -0.328 OA 
HETATM   20  C   UNL     1     -12.419  15.727  71.617  1.00  0.00    -0.463 C  
HETATM   21  C   UNL     1      -9.400   6.276  66.014  1.00  0.00    -0.036 A  
HETATM   22  C   UNL     1     -12.649  14.284  71.064  1.00  0.00    -0.358 C  
HETATM   23  H   UNL     1     -14.568  14.515  71.126  1.00  0.00     0.000 HD 
HETATM   24  O   UNL     1     -13.120  16.198  72.512  1.00  0.00    -0.419 OA 
HETATM   25  C   UNL     1      -8.898   7.559  65.840  1.00  0.00    -0.157 A  
HETATM   26  O   UNL     1     -13.954  14.234  70.458  1.00  0.00     0.362 OA 
HETATM   27  C   UNL     1      -9.369   8.655  66.590  1.00  0.00    -0.246 A  
BRANCH  21  28
HETATM   28  O   UNL     1      -8.847   5.159  65.332  1.00  0.00    -0.148 OA 
BRANCH  28  29
HETATM   29  C   UNL     1      -8.915   3.875  65.919  1.00  0.00    -0.132 C  
HETATM   30  C   UNL     1      -8.559   2.678  69.270  1.00  0.00    -0.114 C  
HETATM   31  N   UNL     1      -8.178   3.726  67.088  1.00  0.00    -0.094 N  
HETATM   32  C   UNL     1      -8.223   2.448  67.799  1.00  0.00    -0.064 C  
HETATM   33  O   UNL     1      -9.587   2.952  65.463  1.00  0.00    -0.070 OA 
HETATM   34  C   UNL     1      -7.256   4.710  67.639  1.00  0.00    -0.066 C  
HETATM   35  C   UNL     1      -7.528   4.928  69.131  1.00  0.00    -0.053 C  
HETATM   36  C   UNL     1      -7.519   3.603  69.946  1.00  0.00    -0.045 C  
BRANCH  36  37
HETATM   37  N   UNL     1      -6.166   2.991  70.057  1.00  0.00    -0.024 NA 
HETATM   38  C   UNL     1      -5.152   3.890  70.648  1.00  0.00     0.000 C  
HETATM   39  C   UNL     1      -5.362   4.165  72.140  1.00  0.00     0.000 C  
HETATM   40  C   UNL     1      -5.442   2.868  72.941  1.00  0.00     0.000 C  
HETATM   41  C   UNL     1      -6.418   1.882  72.306  1.00  0.00    -0.014 C  
HETATM   42  C   UNL     1      -6.131   1.718  70.810  1.00  0.00    -0.018 C  
ENDBRANCH  36  37
ENDBRANCH  28  29
ENDBRANCH  21  28
BRANCH  22  43
HETATM   43  C   UNL     1     -12.697  13.328  72.282  1.00  0.00    -0.125 C  
HETATM   44  C   UNL     1     -13.872  12.355  72.302  1.00  0.00    -0.126 C  
ENDBRANCH  22  43
ENDBRANCH   2   3
TORSDOF 5
ENDMDL
MODEL       33
REMARK 921   NORMALIZED FREE ENERGY PREDICTED BY IDOCK:   -4.77 KCAL/MOL
REMARK 922        TOTAL FREE ENERGY PREDICTED BY IDOCK:   -7.19 KCAL/MOL
REMARK 923 INTER-LIGAND FREE ENERGY PREDICTED BY IDOCK:   -6.13 KCAL/MOL
REMARK 924 INTRA-LIGAND FREE ENERGY PREDICTED BY IDOCK:   -1.06 KCAL/MOL
REMARK 927      BINDING AFFINITY PREDICTED BY RF-SCORE:    0.00 PKD
ROOT
HETATM    1  C   UNL     1      -9.174   8.707  67.390  1.00  0.00    -0.158 C  
HETATM    2  C   UNL     1     -10.605   8.478  67.843  1.00  0.00    -0.219 C  
ENDROOT
BRANCH   2   3
HETATM    3  C   UNL     1     -11.123   9.596  68.718  1.00  0.00    -0.093 A  
HETATM    4  C   UNL     1     -11.092  10.898  68.253  1.00  0.00    -0.324 A  
HETATM    5  C   UNL     1     -10.690  11.387  66.905  1.00  0.00    -0.265 A  
HETATM    6  N   UNL     1     -10.814  12.826  67.042  1.00  0.00    -0.253 N  
HETATM    7  C   UNL     1     -11.239  13.199  68.305  1.00  0.00    -0.274 A  
HETATM    8  C   UNL     1     -11.385  14.502  68.585  1.00  0.00    -0.300 C  
HETATM    9  C   UNL     1     -11.440  11.955  69.088  1.00  0.00    -0.296 A  
HETATM   10  N   UNL     1     -11.821  11.814  70.374  1.00  0.00    -0.325 NA 
HETATM   11  C   UNL     1     -11.020  15.512  67.568  1.00  0.00    -0.316 C  
HETATM   12  C   UNL     1     -10.646  15.118  66.338  1.00  0.00    -0.305 C  
HETATM   13  C   UNL     1     -11.893  10.528  70.841  1.00  0.00    -0.355 A  
HETATM   14  C   UNL     1     -12.254  10.254  72.170  1.00  0.00     0.286 A  
HETATM   15  C   UNL     1     -10.550  13.673  66.004  1.00  0.00    -0.290 C  
HETATM   16  C   UNL     1     -10.270  16.029  65.229  1.00  0.00    -0.211 C  
HETATM   17  C   UNL     1     -12.312   8.942  72.702  1.00  0.00    -0.218 A  
HETATM   18  O   UNL     1     -10.231  13.301  64.879  1.00  0.00    -0.325 OA 
HETATM   19  O   UNL     1     -10.136  17.410  65.598  1.00  0.00    -0.566 OA 
HETATM   20  C   UNL     1     -10.499  17.933  66.785  1.00  0.00    -0.311 C  
HETATM   21  C   UNL     1     -12.033   7.858  71.882  1.00  0.00    -0.305 A  
HETATM   22  C   UNL     1     -11.056  16.988  67.898  1.00  0.00    -0.125 C  
HETATM   23  H   UNL     1     -12.461  18.245  68.328  1.00  0.00     0.000 HD 
HETATM   24  O   UNL     1     -10.434  19.151  66.942  1.00  0.00    -0.384 OA 
HETATM   25  C   UNL     1     -11.748   8.094  70.544  1.00  0.00    -0.067 A  
HETATM   26  O   UNL     1     -12.439  17.319  68.121  1.00  0.00     1.858 OA 
HETATM   27  C   UNL     1     -11.596   9.397  70.029  1.00  0.00    -0.046 A  
BRANCH  21  28
HETATM   28  O   UNL     1     -12.078   6.541  72.415  1.00  0.00    -0.228 OA 
BRANCH  28  29
HETATM   29  C   UNL     1     -10.933   5.997  73.038  1.00  0.00    -0.257 C  
HETATM   30  C   UNL     1      -7.749   4.913  71.822  1.00  0.00    -0.102 C  
HETATM   31  N   UNL     1     -10.151   5.187  72.222  1.00  0.00    -0.186 N  
HETATM   32  C   UNL     1      -8.916   4.616  72.759  1.00  0.00    -0.119 C  
HETATM   33  O   UNL     1     -10.617   6.226  74.204  1.00  0.00    -0.267 OA 
HETATM   34  C   UNL     1     -10.500   4.755  70.875  1.00  0.00    -0.037 C  
HETATM   35  C   UNL     1      -9.330   4.987  69.914  1.00  0.00    -0.198 C  
HETATM   36  C   UNL     1      -8.005   4.339  70.407  1.00  0.00    -0.052 C  
BRANCH  36  37
HETATM   37  N   UNL     1      -8.028   2.851  70.367  1.00  0.00    -0.042 NA 
HETATM   38  C   UNL     1      -8.413   2.296  69.052  1.00  0.00    -0.059 C  
HETATM   39  C   UNL     1      -7.358   2.501  67.961  1.00  0.00    -0.048 C  
HETATM   40  C   UNL     1      -6.000   1.948  68.385  1.00  0.00    -0.024 C  
HETATM   41  C   UNL     1      -5.613   2.433  69.779  1.00  0.00    -0.017 C  
HETATM   42  C   UNL     1      -6.758   2.209  70.772  1.00  0.00    -0.032 C  
ENDBRANCH  36  37
ENDBRANCH  28  29
ENDBRANCH  21  28
BRANCH  22  43
HETATM   43  C   UNL     1     -10.308  17.333  69.210  1.00  0.00    -0.237 C  
HETATM   44  C   UNL     1      -8.805  17.076  69.191  1.00  0.00    -0.035 C  
ENDBRANCH  22  43
ENDBRANCH   2   3
TORSDOF 5
ENDMDL
MODEL       34
REMARK 921   NORMALIZED FREE ENERGY PREDICTED BY IDOCK:   -4.66 KCAL/MOL
REMARK 922        TOTAL FREE ENERGY PREDICTED BY IDOCK:   -7.05 KCAL/MOL
REMARK 923 INTER-LIGAND FREE ENERGY PREDICTED BY IDOCK:   -6.37 KCAL/MOL
REMARK 924 INTRA-LIGAND FREE ENERGY PREDICTED BY IDOCK:   -0.68 KCAL/MOL
REMARK 927      BINDING AFFINITY PREDICTED BY RF-SCORE:    0.00 PKD
ROOT
HETATM    1  C   UNL     1     -11.160   6.953  67.152  1.00  0.00    -0.362 C  
HETATM    2  C   UNL     1      -9.967   7.793  66.736  1.00  0.00    -0.331 C  
ENDROOT
BRANCH   2   3
HETATM    3  C   UNL     1      -9.535   8.762  67.812  1.00  0.00    -0.164 A  
HETATM    4  C   UNL     1      -9.555  10.121  67.557  1.00  0.00    -0.180 A  
HETATM    5  C   UNL     1     -10.057  10.824  66.344  1.00  0.00    -0.227 A  
HETATM    6  N   UNL     1      -9.763  12.214  66.641  1.00  0.00    -0.213 N  
HETATM    7  C   UNL     1      -9.158  12.370  67.876  1.00  0.00    -0.191 A  
HETATM    8  C   UNL     1      -8.814  13.601  68.281  1.00  0.00    -0.179 C  
HETATM    9  C   UNL     1      -9.039  11.022  68.483  1.00  0.00    -0.173 A  
HETATM   10  N   UNL     1      -8.493  10.668  69.664  1.00  0.00     0.014 NA 
HETATM   11  C   UNL     1      -9.018  14.752  67.374  1.00  0.00    -0.200 C  
HETATM   12  C   UNL     1      -9.641  14.573  66.196  1.00  0.00    -0.325 C  
HETATM   13  C   UNL     1      -8.497   9.328  69.951  1.00  0.00    -0.163 A  
HETATM   14  C   UNL     1      -7.935   8.836  71.138  1.00  0.00    -0.170 A  
HETATM   15  C   UNL     1     -10.087  13.218  65.775  1.00  0.00    -0.286 C  
HETATM   16  C   UNL     1      -9.917  15.643  65.207  1.00  0.00    -0.194 C  
HETATM   17  C   UNL     1      -7.891   7.456  71.460  1.00  0.00    -0.087 A  
HETATM   18  O   UNL     1     -10.675  13.046  64.713  1.00  0.00    -0.314 OA 
HETATM   19  O   UNL     1      -9.296  16.906  65.491  1.00  0.00    -0.472 OA 
HETATM   20  C   UNL     1      -8.666  17.218  66.640  1.00  0.00    -0.257 C  
HETATM   21  C   UNL     1      -8.453   6.532  70.590  1.00  0.00    -0.134 A  
HETATM   22  C   UNL     1      -8.525  16.130  67.753  1.00  0.00    -0.158 C  
HETATM   23  H   UNL     1      -8.999  17.407  69.127  1.00  0.00     0.000 HD 
HETATM   24  O   UNL     1      -8.268  18.370  66.805  1.00  0.00    -0.238 OA 
HETATM   25  C   UNL     1      -9.084   6.997  69.445  1.00  0.00    -0.145 A  
HETATM   26  O   UNL     1      -9.308  16.541  68.888  1.00  0.00    -0.243 OA 
HETATM   27  C   UNL     1      -9.049   8.356  69.070  1.00  0.00    -0.147 A  
BRANCH  21  28
HETATM   28  O   UNL     1      -8.401   5.147  70.904  1.00  0.00    -0.109 OA 
BRANCH  28  29
HETATM   29  C   UNL     1      -7.202   4.426  70.703  1.00  0.00    -0.045 C  
HETATM   30  C   UNL     1      -5.193   3.744  67.824  1.00  0.00    -0.008 C  
HETATM   31  N   UNL     1      -7.040   3.902  69.425  1.00  0.00    -0.046 N  
HETATM   32  C   UNL     1      -5.809   3.182  69.102  1.00  0.00    -0.023 C  
HETATM   33  O   UNL     1      -6.340   4.281  71.568  1.00  0.00    -0.017 OA 
HETATM   34  C   UNL     1      -8.049   3.911  68.373  1.00  0.00    -0.075 C  
HETATM   35  C   UNL     1      -7.451   4.418  67.058  1.00  0.00    -0.081 C  
HETATM   36  C   UNL     1      -6.175   3.638  66.633  1.00  0.00    -0.028 C  
BRANCH  36  37
HETATM   37  N   UNL     1      -6.454   2.235  66.219  1.00  0.00    -0.024 NA 
HETATM   38  C   UNL     1      -7.709   2.078  65.454  1.00  0.00    -0.072 C  
HETATM   39  C   UNL     1      -7.660   2.687  64.050  1.00  0.00    -0.067 C  
HETATM   40  C   UNL     1      -6.484   2.138  63.245  1.00  0.00    -0.014 C  
HETATM   41  C   UNL     1      -5.185   2.205  64.042  1.00  0.00    -0.008 C  
HETATM   42  C   UNL     1      -5.370   1.601  65.437  1.00  0.00    -0.005 C  
ENDBRANCH  36  37
ENDBRANCH  28  29
ENDBRANCH  21  28
BRANCH  22  43
HETATM   43  C   UNL     1      -7.047  16.138  68.218  1.00  0.00    -0.130 C  
HETATM   44  C   UNL     1      -6.822  16.550  69.669  1.00  0.00    -0.081 C  
ENDBRANCH  22  43
ENDBRANCH   2   3
TORSDOF 5
ENDMDL
MODEL       35
REMARK 921   NORMALIZED FREE ENERGY PREDICTED BY IDOCK:   -4.61 KCAL/MOL
REMARK 922        TOTAL FREE ENERGY PREDICTED BY IDOCK:   -6.99 KCAL/MOL
REMARK 923 INTER-LIGAND FREE ENERGY PREDICTED BY IDOCK:   -6.62 KCAL/MOL
REMARK 924 INTRA-LIGAND FREE ENERGY PREDICTED BY IDOCK:   -0.36 KCAL/MOL
REMARK 927      BINDING AFFINITY PREDICTED BY RF-SCORE:    0.00 PKD
ROOT
HETATM    1  C   UNL     1      -6.269  12.339  67.656  1.00  0.00    -0.120 C  
HETATM    2  C   UNL     1      -7.215  12.564  68.822  1.00  0.00    -0.089 C  
ENDROOT
BRANCH   2   3
HETATM    3  C   UNL     1      -8.358  11.576  68.841  1.00  0.00    -0.005 A  
HETATM    4  C   UNL     1      -8.116  10.258  69.181  1.00  0.00    -0.138 A  
HETATM    5  C   UNL     1      -6.842   9.645  69.651  1.00  0.00    -0.067 A  
HETATM    6  N   UNL     1      -7.198   8.245  69.789  1.00  0.00    -0.059 N  
HETATM    7  C   UNL     1      -8.518   8.003  69.453  1.00  0.00    -0.132 A  
HETATM    8  C   UNL     1      -8.988   6.749  69.519  1.00  0.00    -0.139 C  
HETATM    9  C   UNL     1      -9.124   9.305  69.079  1.00  0.00    -0.147 A  
HETATM   10  N   UNL     1     -10.377   9.566  68.654  1.00  0.00    -0.199 NA 
HETATM   11  C   UNL     1      -8.070   5.644  69.873  1.00  0.00    -0.095 C  
HETATM   12  C   UNL     1      -6.802   5.915  70.230  1.00  0.00    -0.053 C  
HETATM   13  C   UNL     1     -10.646  10.874  68.348  1.00  0.00    -0.194 A  
HETATM   14  C   UNL     1     -11.907  11.267  67.872  1.00  0.00    -0.209 A  
HETATM   15  C   UNL     1      -6.299   7.314  70.226  1.00  0.00    -0.034 C  
HETATM   16  C   UNL     1      -5.791   4.903  70.619  1.00  0.00    -0.017 C  
HETATM   17  C   UNL     1     -12.219  12.602  67.515  1.00  0.00     0.049 A  
HETATM   18  O   UNL     1      -5.152   7.577  70.569  1.00  0.00    -0.023 OA 
HETATM   19  O   UNL     1      -6.187   3.539  70.410  1.00  0.00    -0.022 OA 
HETATM   20  C   UNL     1      -7.429   3.136  70.078  1.00  0.00    -0.044 C  
HETATM   21  C   UNL     1     -11.257  13.593  67.663  1.00  0.00    -0.279 A  
HETATM   22  C   UNL     1      -8.540   4.207  69.833  1.00  0.00    -0.068 C  
HETATM   23  H   UNL     1      -9.826   3.173  70.843  1.00  0.00     0.000 HD 
HETATM   24  O   UNL     1      -7.669   1.930  70.033  1.00  0.00    -0.042 OA 
HETATM   25  C   UNL     1     -10.027  13.247  68.204  1.00  0.00    -0.234 A  
HETATM   26  O   UNL     1      -9.531   4.076  70.868  1.00  0.00    -0.138 OA 
HETATM   27  C   UNL     1      -9.676  11.908  68.473  1.00  0.00    -0.173 A  
BRANCH  21  28
HETATM   28  O   UNL     1     -11.562  14.931  67.296  1.00  0.00    -0.360 OA 
BRANCH  28  29
HETATM   29  C   UNL     1     -10.810  15.569  66.283  1.00  0.00    -0.283 C  
HETATM   30  C   UNL     1      -7.579  17.099  66.210  1.00  0.00    -0.352 C  
HETATM   31  N   UNL     1      -9.899  16.515  66.738  1.00  0.00    -0.255 N  
HETATM   32  C   UNL     1      -9.038  17.195  65.772  1.00  0.00     0.172 C  
HETATM   33  O   UNL     1     -10.918  15.307  65.087  1.00  0.00    -0.368 OA 
HETATM   34  C   UNL     1      -9.783  16.986  68.113  1.00  0.00    -0.268 C  
HETATM   35  C   UNL     1      -8.322  16.955  68.571  1.00  0.00    -0.257 C  
HETATM   36  C   UNL     1      -7.371  17.725  67.610  1.00  0.00    -0.200 C  
BRANCH  36  37
HETATM   37  N   UNL     1      -7.577  19.200  67.637  1.00  0.00    -0.237 NA 
HETATM   38  C   UNL     1      -7.784  19.748  68.994  1.00  0.00    -0.199 C  
HETATM   39  C   UNL     1      -6.530  19.714  69.873  1.00  0.00    -0.331 C  
HETATM   40  C   UNL     1      -5.355  20.416  69.197  1.00  0.00    -0.299 C  
HETATM   41  C   UNL     1      -5.170  19.934  67.761  1.00  0.00    -0.190 C  
HETATM   42  C   UNL     1      -6.496  19.980  66.996  1.00  0.00    -0.194 C  
ENDBRANCH  36  37
ENDBRANCH  28  29
ENDBRANCH  21  28
BRANCH  22  43
HETATM   43  C   UNL     1      -9.247   3.839  68.504  1.00  0.00    -0.214 C  
HETATM   44  C   UNL     1      -8.571   2.743  67.687  1.00  0.00    -0.119 C  
ENDBRANCH  22  43
ENDBRANCH   2   3
TORSDOF 5
ENDMDL
MODEL       36
REMARK 921   NORMALIZED FREE ENERGY PREDICTED BY IDOCK:   -4.50 KCAL/MOL
REMARK 922        TOTAL FREE ENERGY PREDICTED BY IDOCK:   -6.84 KCAL/MOL
REMARK 923 INTER-LIGAND FREE ENERGY PREDICTED BY IDOCK:   -6.93 KCAL/MOL
REMARK 924 INTRA-LIGAND FREE ENERGY PREDICTED BY IDOCK:    0.09 KCAL/MOL
REMARK 927      BINDING AFFINITY PREDICTED BY RF-SCORE:    0.00 PKD
ROOT
HETATM    1  C   UNL     1      -9.987   9.656  66.144  1.00  0.00    -0.346 C  
HETATM    2  C   UNL     1      -8.886   8.619  66.264  1.00  0.00    -0.187 C  
ENDROOT
BRANCH   2   3
HETATM    3  C   UNL     1      -8.274   8.580  67.646  1.00  0.00    -0.118 A  
HETATM    4  C   UNL     1      -8.382   7.432  68.409  1.00  0.00    -0.125 A  
HETATM    5  C   UNL     1      -8.961   6.116  68.020  1.00  0.00    -0.113 A  
HETATM    6  N   UNL     1      -8.840   5.344  69.242  1.00  0.00    -0.101 N  
HETATM    7  C   UNL     1      -8.261   6.072  70.267  1.00  0.00    -0.119 A  
HETATM    8  C   UNL     1      -8.097   5.492  71.465  1.00  0.00    -0.118 C  
HETATM    9  C   UNL     1      -7.943   7.417  69.729  1.00  0.00    -0.125 A  
HETATM   10  N   UNL     1      -7.397   8.476  70.360  1.00  0.00    -0.051 NA 
HETATM   11  C   UNL     1      -8.604   4.119  71.688  1.00  0.00    -0.125 C  
HETATM   12  C   UNL     1      -9.128   3.426  70.662  1.00  0.00    -0.185 C  
HETATM   13  C   UNL     1      -7.249   9.612  69.609  1.00  0.00    -0.084 A  
HETATM   14  C   UNL     1      -6.716  10.787  70.162  1.00  0.00    -0.116 A  
HETATM   15  C   UNL     1      -9.247   4.043  69.315  1.00  0.00    -0.152 C  
HETATM   16  C   UNL     1      -9.656   2.043  70.751  1.00  0.00    -0.097 C  
HETATM   17  C   UNL     1      -6.572  11.991  69.429  1.00  0.00    -0.100 A  
HETATM   18  O   UNL     1      -9.704   3.413  68.367  1.00  0.00    -0.125 OA 
HETATM   19  O   UNL     1      -9.760   1.518  72.083  1.00  0.00    -0.088 OA 
HETATM   20  C   UNL     1      -9.254   2.101  73.187  1.00  0.00    -0.072 C  
HETATM   21  C   UNL     1      -6.940  12.027  68.091  1.00  0.00    -0.079 A  
HETATM   22  C   UNL     1      -8.545   3.488  73.061  1.00  0.00    -0.086 C  
HETATM   23  H   UNL     1      -7.113   2.915  74.228  1.00  0.00     0.000 HD 
HETATM   24  O   UNL     1      -9.315   1.499  74.257  1.00  0.00    -0.060 OA 
HETATM   25  C   UNL     1      -7.398  10.859  67.498  1.00  0.00    -0.096 A  
HETATM   26  O   UNL     1      -7.150   3.312  73.365  1.00  0.00    -0.039 OA 
HETATM   27  C   UNL     1      -7.633   9.684  68.240  1.00  0.00    -0.078 A  
BRANCH  21  28
HETATM   28  O   UNL     1      -6.808  13.236  67.356  1.00  0.00    -0.164 OA 
BRANCH  28  29
HETATM   29  C   UNL     1      -7.946  14.042  67.122  1.00  0.00    -0.059 C  
HETATM   30  C   UNL     1      -8.386  17.435  66.082  1.00  0.00    -0.217 C  
HETATM   31  N   UNL     1      -7.742  15.406  67.295  1.00  0.00    -0.196 N  
HETATM   32  C   UNL     1      -8.845  16.329  67.029  1.00  0.00    -0.205 C  
HETATM   33  O   UNL     1      -9.035  13.597  66.767  1.00  0.00    -0.237 OA 
HETATM   34  C   UNL     1      -6.534  16.021  67.830  1.00  0.00    -0.143 C  
HETATM   35  C   UNL     1      -6.073  17.174  66.934  1.00  0.00    -0.228 C  
HETATM   36  C   UNL     1      -7.193  18.222  66.674  1.00  0.00    -0.216 C  
BRANCH  36  37
HETATM   37  N   UNL     1      -7.547  19.014  67.884  1.00  0.00    -0.258 NA 
HETATM   38  C   UNL     1      -6.559  18.907  68.978  1.00  0.00    -0.281 C  
HETATM   39  C   UNL     1      -5.226  19.600  68.678  1.00  0.00    -0.206 C  
HETATM   40  C   UNL     1      -5.430  21.064  68.299  1.00  0.00    -0.376 C  
HETATM   41  C   UNL     1      -6.510  21.217  67.232  1.00  0.00    -0.428 C  
HETATM   42  C   UNL     1      -7.778  20.453  67.626  1.00  0.00    -0.277 C  
ENDBRANCH  36  37
ENDBRANCH  28  29
ENDBRANCH  21  28
BRANCH  22  43
HETATM   43  C   UNL     1      -9.122   4.401  74.172  1.00  0.00    -0.109 C  
HETATM   44  C   UNL     1     -10.632   4.606  74.130  1.00  0.00    -0.348 C  
ENDBRANCH  22  43
ENDBRANCH   2   3
TORSDOF 5
ENDMDL
MODEL       37
REMARK 921   NORMALIZED FREE ENERGY PREDICTED BY IDOCK:   -4.48 KCAL/MOL
REMARK 922        TOTAL FREE ENERGY PREDICTED BY IDOCK:   -6.81 KCAL/MOL
REMARK 923 INTER-LIGAND FREE ENERGY PREDICTED BY IDOCK:   -5.85 KCAL/MOL
REMARK 924 INTRA-LIGAND FREE ENERGY PREDICTED BY IDOCK:   -0.96 KCAL/MOL
REMARK 927      BINDING AFFINITY PREDICTED BY RF-SCORE:    0.00 PKD
ROOT
HETATM    1  C   UNL     1      -8.233  10.137  69.812  1.00  0.00    -0.161 C  
HETATM    2  C   UNL     1      -8.763  10.745  68.527  1.00  0.00    -0.149 C  
ENDROOT
BRANCH   2   3
HETATM    3  C   UNL     1      -9.692  11.911  68.776  1.00  0.00    -0.051 A  
HETATM    4  C   UNL     1      -9.310  13.183  68.391  1.00  0.00    -0.154 A  
HETATM    5  C   UNL     1      -8.092  13.593  67.638  1.00  0.00    -0.177 A  
HETATM    6  N   UNL     1      -8.223  15.037  67.590  1.00  0.00    -0.156 N  
HETATM    7  C   UNL     1      -9.369  15.482  68.225  1.00  0.00    -0.192 A  
HETATM    8  C   UNL     1      -9.617  16.799  68.273  1.00  0.00    -0.244 C  
HETATM    9  C   UNL     1     -10.088  14.286  68.728  1.00  0.00    -0.217 A  
HETATM   10  N   UNL     1     -11.236  14.220  69.432  1.00  0.00    -0.271 NA 
HETATM   11  C   UNL     1      -8.629  17.749  67.716  1.00  0.00    -0.237 C  
HETATM   12  C   UNL     1      -7.543  17.285  67.073  1.00  0.00    -0.228 C  
HETATM   13  C   UNL     1     -11.649  12.964  69.790  1.00  0.00    -0.218 A  
HETATM   14  C   UNL     1     -12.816  12.769  70.546  1.00  0.00     0.057 A  
HETATM   15  C   UNL     1      -7.302  15.822  66.958  1.00  0.00    -0.191 C  
HETATM   16  C   UNL     1      -6.489  18.129  66.461  1.00  0.00    -0.200 C  
HETATM   17  C   UNL     1     -13.263  11.490  70.963  1.00  0.00     0.082 A  
HETATM   18  O   UNL     1      -6.326  15.386  66.356  1.00  0.00     0.973 OA 
HETATM   19  O   UNL     1      -6.585  19.530  66.760  1.00  0.00    -0.193 OA 
HETATM   20  C   UNL     1      -7.629  20.121  67.373  1.00  0.00    -0.299 C  
HETATM   21  C   UNL     1     -12.547  10.360  70.593  1.00  0.00    -0.348 A  
HETATM   22  C   UNL     1      -8.822  19.242  67.868  1.00  0.00    -0.312 C  
HETATM   23  H   UNL     1     -10.107  20.517  67.188  1.00  0.00     0.000 HD 
HETATM   24  O   UNL     1      -7.641  21.347  67.475  1.00  0.00    -0.363 OA 
HETATM   25  C   UNL     1     -11.432  10.517  69.781  1.00  0.00    -0.365 A  
HETATM   26  O   UNL     1      -9.986  19.580  67.092  1.00  0.00    -0.332 OA 
HETATM   27  C   UNL     1     -10.927  11.788  69.441  1.00  0.00    -0.185 A  
BRANCH  21  28
HETATM   28  O   UNL     1     -12.986   9.077  71.019  1.00  0.00    -0.197 OA 
BRANCH  28  29
HETATM   29  C   UNL     1     -12.563   8.570  72.269  1.00  0.00    -0.381 C  
HETATM   30  C   UNL     1      -9.443   7.322  73.490  1.00  0.00    -0.268 C  
HETATM   31  N   UNL     1     -11.500   7.676  72.208  1.00  0.00    -0.297 N  
HETATM   32  C   UNL     1     -10.956   7.133  73.453  1.00  0.00    -0.236 C  
HETATM   33  O   UNL     1     -13.064   8.898  73.342  1.00  0.00     0.230 OA 
HETATM   34  C   UNL     1     -10.921   7.130  70.988  1.00  0.00    -0.252 C  
HETATM   35  C   UNL     1      -9.395   7.253  71.013  1.00  0.00    -0.158 C  
HETATM   36  C   UNL     1      -8.760   6.628  72.288  1.00  0.00    -0.132 C  
BRANCH  36  37
HETATM   37  N   UNL     1      -8.860   5.142  72.326  1.00  0.00    -0.128 NA 
HETATM   38  C   UNL     1      -8.148   4.468  71.221  1.00  0.00    -0.087 C  
HETATM   39  C   UNL     1      -6.622   4.560  71.319  1.00  0.00    -0.027 C  
HETATM   40  C   UNL     1      -6.117   4.039  72.662  1.00  0.00    -0.016 C  
HETATM   41  C   UNL     1      -6.893   4.652  73.824  1.00  0.00    -0.069 C  
HETATM   42  C   UNL     1      -8.403   4.532  73.594  1.00  0.00    -0.101 C  
ENDBRANCH  36  37
ENDBRANCH  28  29
ENDBRANCH  21  28
BRANCH  22  43
HETATM   43  C   UNL     1      -9.132  19.667  69.326  1.00  0.00    -0.007 C  
HETATM   44  C   UNL     1     -10.543  20.191  69.567  1.00  0.00     0.406 C  
ENDBRANCH  22  43
ENDBRANCH   2   3
TORSDOF 5
ENDMDL
MODEL       38
REMARK 921   NORMALIZED FREE ENERGY PREDICTED BY IDOCK:   -4.26 KCAL/MOL
REMARK 922        TOTAL FREE ENERGY PREDICTED BY IDOCK:   -6.54 KCAL/MOL
REMARK 923 INTER-LIGAND FREE ENERGY PREDICTED BY IDOCK:   -6.58 KCAL/MOL
REMARK 924 INTRA-LIGAND FREE ENERGY PREDICTED BY IDOCK:    0.05 KCAL/MOL
REMARK 927      BINDING AFFINITY PREDICTED BY RF-SCORE:    0.00 PKD
ROOT
HETATM    1  C   UNL     1      -5.160   8.947  65.631  1.00  0.00    -0.030 C  
HETATM    2  C   UNL     1      -5.546   9.761  66.853  1.00  0.00    -0.046 C  
ENDROOT
BRANCH   2   3
HETATM    3  C   UNL     1      -6.996  10.188  66.830  1.00  0.00    -0.089 A  
HETATM    4  C   UNL     1      -7.319  11.519  67.017  1.00  0.00    -0.145 A  
HETATM    5  C   UNL     1      -6.399  12.682  67.150  1.00  0.00     0.013 A  
HETATM    6  N   UNL     1      -7.314  13.785  67.377  1.00  0.00    -0.154 N  
HETATM    7  C   UNL     1      -8.636  13.376  67.384  1.00  0.00    -0.204 A  
HETATM    8  C   UNL     1      -9.598  14.286  67.597  1.00  0.00    -0.219 C  
HETATM    9  C   UNL     1      -8.648  11.914  67.132  1.00  0.00    -0.172 A  
HETATM   10  N   UNL     1      -9.699  11.071  67.076  1.00  0.00    -0.180 NA 
HETATM   11  C   UNL     1      -9.225  15.687  67.893  1.00  0.00    -0.190 C  
HETATM   12  C   UNL     1      -7.934  16.061  67.842  1.00  0.00    -0.146 C  
HETATM   13  C   UNL     1      -9.400   9.753  66.855  1.00  0.00    -0.149 A  
HETATM   14  C   UNL     1     -10.407   8.776  66.802  1.00  0.00    -0.328 A  
HETATM   15  C   UNL     1      -6.872  15.066  67.537  1.00  0.00    -0.168 C  
HETATM   16  C   UNL     1      -7.433  17.432  68.103  1.00  0.00    -0.208 C  
HETATM   17  C   UNL     1     -10.140   7.399  66.605  1.00  0.00    -0.253 A  
HETATM   18  O   UNL     1      -5.693  15.399  67.466  1.00  0.00    -0.286 OA 
HETATM   19  O   UNL     1      -8.411  18.346  68.620  1.00  0.00    -0.324 OA 
HETATM   20  C   UNL     1      -9.733  18.103  68.698  1.00  0.00    -0.357 C  
HETATM   21  C   UNL     1      -8.831   6.974  66.424  1.00  0.00    -0.145 A  
HETATM   22  C   UNL     1     -10.280  16.706  68.260  1.00  0.00    -0.281 C  
HETATM   23  H   UNL     1     -11.756  17.527  67.317  1.00  0.00     0.000 HD 
HETATM   24  O   UNL     1     -10.483  19.008  69.060  1.00  0.00    -0.109 OA 
HETATM   25  C   UNL     1      -7.822   7.927  66.395  1.00  0.00    -0.097 A  
HETATM   26  O   UNL     1     -11.093  16.887  67.087  1.00  0.00    -0.063 OA 
HETATM   27  C   UNL     1      -8.067   9.285  66.683  1.00  0.00    -0.108 A  
BRANCH  21  28
HETATM   28  O   UNL     1      -8.558   5.592  66.237  1.00  0.00    -0.118 OA 
BRANCH  28  29
HETATM   29  C   UNL     1      -9.237   4.631  67.021  1.00  0.00    -0.128 C  
HETATM   30  C   UNL     1      -9.970   4.376  70.512  1.00  0.00    -0.256 C  
HETATM   31  N   UNL     1      -8.833   4.569  68.350  1.00  0.00    -0.100 N  
HETATM   32  C   UNL     1      -9.510   3.641  69.256  1.00  0.00    -0.174 C  
HETATM   33  O   UNL     1     -10.135   3.911  66.591  1.00  0.00    -0.092 OA 
HETATM   34  C   UNL     1      -7.702   5.285  68.926  1.00  0.00    -0.082 C  
HETATM   35  C   UNL     1      -8.114   5.992  70.221  1.00  0.00    -0.111 C  
HETATM   36  C   UNL     1      -8.778   5.032  71.249  1.00  0.00    -0.129 C  
BRANCH  36  37
HETATM   37  N   UNL     1      -7.826   4.046  71.831  1.00  0.00    -0.073 NA 
HETATM   38  C   UNL     1      -7.175   4.509  73.074  1.00  0.00    -0.079 C  
HETATM   39  C   UNL     1      -8.122   4.595  74.275  1.00  0.00    -0.099 C  
HETATM   40  C   UNL     1      -8.834   3.267  74.521  1.00  0.00    -0.094 C  
HETATM   41  C   UNL     1      -9.444   2.717  73.234  1.00  0.00    -0.120 C  
HETATM   42  C   UNL     1      -8.415   2.715  72.100  1.00  0.00    -0.066 C  
ENDBRANCH  36  37
ENDBRANCH  28  29
ENDBRANCH  21  28
BRANCH  22  43
HETATM   43  C   UNL     1     -11.233  16.214  69.379  1.00  0.00    -0.335 C  
HETATM   44  C   UNL     1     -10.556  15.830  70.690  1.00  0.00    -0.089 C  
ENDBRANCH  22  43
ENDBRANCH   2   3
TORSDOF 5
ENDMDL
MODEL       39
REMARK 921   NORMALIZED FREE ENERGY PREDICTED BY IDOCK:   -4.21 KCAL/MOL
REMARK 922        TOTAL FREE ENERGY PREDICTED BY IDOCK:   -6.47 KCAL/MOL
REMARK 923 INTER-LIGAND FREE ENERGY PREDICTED BY IDOCK:   -5.60 KCAL/MOL
REMARK 924 INTRA-LIGAND FREE ENERGY PREDICTED BY IDOCK:   -0.87 KCAL/MOL
REMARK 927      BINDING AFFINITY PREDICTED BY RF-SCORE:    0.00 PKD
ROOT
HETATM    1  C   UNL     1      -9.854  10.908  68.077  1.00  0.00    -0.185 C  
HETATM    2  C   UNL     1      -8.469  10.387  67.737  1.00  0.00    -0.114 C  
ENDROOT
BRANCH   2   3
HETATM    3  C   UNL     1      -7.722   9.889  68.953  1.00  0.00    -0.085 A  
HETATM    4  C   UNL     1      -7.965   8.614  69.430  1.00  0.00    -0.102 A  
HETATM    5  C   UNL     1      -8.833   7.557  68.839  1.00  0.00    -0.135 A  
HETATM    6  N   UNL     1      -8.726   6.483  69.808  1.00  0.00    -0.141 N  
HETATM    7  C   UNL     1      -7.901   6.813  70.869  1.00  0.00    -0.098 A  
HETATM    8  C   UNL     1      -7.717   5.921  71.854  1.00  0.00    -0.102 C  
HETATM    9  C   UNL     1      -7.389   8.184  70.621  1.00  0.00    -0.053 A  
HETATM   10  N   UNL     1      -6.577   8.938  71.389  1.00  0.00    -0.077 NA 
HETATM   11  C   UNL     1      -8.455   4.639  71.824  1.00  0.00    -0.117 C  
HETATM   12  C   UNL     1      -9.220   4.332  70.761  1.00  0.00    -0.205 C  
HETATM   13  C   UNL     1      -6.295  10.192  70.913  1.00  0.00     0.005 A  
HETATM   14  C   UNL     1      -5.482  11.079  71.635  1.00  0.00     0.220 A  
HETATM   15  C   UNL     1      -9.369   5.292  69.635  1.00  0.00    -0.126 C  
HETATM   16  C   UNL     1      -9.996   3.078  70.604  1.00  0.00     0.268 C  
HETATM   17  C   UNL     1      -5.190  12.394  71.195  1.00  0.00    -0.139 A  
HETATM   18  O   UNL     1     -10.047   5.014  68.651  1.00  0.00    -0.165 OA 
HETATM   19  O   UNL     1     -10.047   2.246  71.773  1.00  0.00    -0.164 OA 
HETATM   20  C   UNL     1      -9.313   2.431  72.887  1.00  0.00    -0.081 C  
HETATM   21  C   UNL     1      -5.695  12.838  69.981  1.00  0.00    -0.136 A  
HETATM   22  C   UNL     1      -8.364   3.669  72.980  1.00  0.00    -0.086 C  
HETATM   23  H   UNL     1      -6.948   2.587  73.733  1.00  0.00     0.000 HD 
HETATM   24  O   UNL     1      -9.366   1.586  73.780  1.00  0.00    -0.067 OA 
HETATM   25  C   UNL     1      -6.439  11.956  69.210  1.00  0.00    -0.111 A  
HETATM   26  O   UNL     1      -7.005   3.197  73.006  1.00  0.00    -0.036 OA 
HETATM   27  C   UNL     1      -6.813  10.681  69.681  1.00  0.00    -0.124 A  
BRANCH  21  28
HETATM   28  O   UNL     1      -5.414  14.160  69.542  1.00  0.00    -0.089 OA 
BRANCH  28  29
HETATM   29  C   UNL     1      -5.704  14.533  68.210  1.00  0.00    -0.118 C  
HETATM   30  C   UNL     1      -6.897  17.548  66.702  1.00  0.00    -0.256 C  
HETATM   31  N   UNL     1      -6.659  15.534  68.077  1.00  0.00    -0.130 N  
HETATM   32  C   UNL     1      -6.993  16.025  66.741  1.00  0.00     0.005 C  
HETATM   33  O   UNL     1      -5.150  14.042  67.228  1.00  0.00    -0.297 OA 
HETATM   34  C   UNL     1      -7.459  16.090  69.160  1.00  0.00    -0.216 C  
HETATM   35  C   UNL     1      -7.431  17.621  69.121  1.00  0.00    -0.085 C  
HETATM   36  C   UNL     1      -7.845  18.198  67.737  1.00  0.00    -0.235 C  
BRANCH  36  37
HETATM   37  N   UNL     1      -9.288  17.998  67.427  1.00  0.00    -0.252 NA 
HETATM   38  C   UNL     1     -10.181  18.194  68.588  1.00  0.00    -0.366 C  
HETATM   39  C   UNL     1     -10.284  19.650  69.051  1.00  0.00    -0.359 C  
HETATM   40  C   UNL     1     -10.702  20.572  67.908  1.00  0.00     0.210 C  
HETATM   41  C   UNL     1      -9.854  20.332  66.662  1.00  0.00    -0.562 C  
HETATM   42  C   UNL     1      -9.797  18.840  66.321  1.00  0.00    -0.353 C  
ENDBRANCH  36  37
ENDBRANCH  28  29
ENDBRANCH  21  28
BRANCH  22  43
HETATM   43  C   UNL     1      -8.618   4.340  74.354  1.00  0.00    -0.095 C  
HETATM   44  C   UNL     1      -9.983   5.000  74.515  1.00  0.00    -0.247 C  
ENDBRANCH  22  43
ENDBRANCH   2   3
TORSDOF 5
ENDMDL
MODEL       40
REMARK 921   NORMALIZED FREE ENERGY PREDICTED BY IDOCK:   -4.11 KCAL/MOL
REMARK 922        TOTAL FREE ENERGY PREDICTED BY IDOCK:   -6.34 KCAL/MOL
REMARK 923 INTER-LIGAND FREE ENERGY PREDICTED BY IDOCK:   -6.12 KCAL/MOL
REMARK 924 INTRA-LIGAND FREE ENERGY PREDICTED BY IDOCK:   -0.22 KCAL/MOL
REMARK 927      BINDING AFFINITY PREDICTED BY RF-SCORE:    0.00 PKD
ROOT
HETATM    1  C   UNL     1      -5.647  10.815  71.791  1.00  0.00     0.336 C  
HETATM    2  C   UNL     1      -6.030   9.602  70.963  1.00  0.00    -0.080 C  
ENDROOT
BRANCH   2   3
HETATM    3  C   UNL     1      -7.351   9.779  70.251  1.00  0.00    -0.165 A  
HETATM    4  C   UNL     1      -7.579  10.922  69.508  1.00  0.00    -0.057 A  
HETATM    5  C   UNL     1      -6.631  12.030  69.204  1.00  0.00    -0.107 A  
HETATM    6  N   UNL     1      -7.455  12.952  68.444  1.00  0.00    -0.119 N  
HETATM    7  C   UNL     1      -8.750  12.489  68.285  1.00  0.00    -0.171 A  
HETATM    8  C   UNL     1      -9.633  13.243  67.615  1.00  0.00    -0.213 C  
HETATM    9  C   UNL     1      -8.832  11.167  68.954  1.00  0.00    -0.079 A  
HETATM   10  N   UNL     1      -9.894  10.348  69.087  1.00  0.00    -0.214 NA 
HETATM   11  C   UNL     1      -9.228  14.580  67.125  1.00  0.00    -0.233 C  
HETATM   12  C   UNL     1      -7.953  14.985  67.262  1.00  0.00    -0.234 C  
HETATM   13  C   UNL     1      -9.678   9.192  69.789  1.00  0.00    -0.181 A  
HETATM   14  C   UNL     1     -10.713   8.272  70.016  1.00  0.00    -0.239 A  
HETATM   15  C   UNL     1      -6.955  14.120  67.945  1.00  0.00    -0.165 C  
HETATM   16  C   UNL     1      -7.420  16.290  66.804  1.00  0.00    -0.231 C  
HETATM   17  C   UNL     1     -10.540   7.080  70.762  1.00  0.00    -0.240 A  
HETATM   18  O   UNL     1      -5.785  14.469  68.057  1.00  0.00    -0.124 OA 
HETATM   19  O   UNL     1      -8.411  17.225  66.352  1.00  0.00    -0.252 OA 
HETATM   20  C   UNL     1      -9.712  16.937  66.149  1.00  0.00    -0.272 C  
HETATM   21  C   UNL     1      -9.289   6.770  71.277  1.00  0.00    -0.165 A  
HETATM   22  C   UNL     1     -10.236  15.502  66.476  1.00  0.00    -0.283 C  
HETATM   23  H   UNL     1     -11.259  15.450  64.836  1.00  0.00     0.000 HD 
HETATM   24  O   UNL     1     -10.441  17.797  65.657  1.00  0.00    -0.613 OA 
HETATM   25  C   UNL     1      -8.229   7.623  71.003  1.00  0.00    -0.107 A  
HETATM   26  O   UNL     1     -10.626  14.871  65.243  1.00  0.00    -0.341 OA 
HETATM   27  C   UNL     1      -8.410   8.856  70.344  1.00  0.00    -0.160 A  
BRANCH  21  28
HETATM   28  O   UNL     1      -9.113   5.581  72.035  1.00  0.00    -0.140 OA 
BRANCH  28  29
HETATM   29  C   UNL     1      -7.904   4.856  71.933  1.00  0.00    -0.108 C  
HETATM   30  C   UNL     1      -5.860   3.855  69.176  1.00  0.00    -0.022 C  
HETATM   31  N   UNL     1      -7.725   4.183  70.730  1.00  0.00    -0.051 N  
HETATM   32  C   UNL     1      -6.483   3.444  70.507  1.00  0.00    -0.031 C  
HETATM   33  O   UNL     1      -7.050   4.826  72.817  1.00  0.00    -0.073 OA 
HETATM   34  C   UNL     1      -8.722   4.053  69.676  1.00  0.00    -0.079 C  
HETATM   35  C   UNL     1      -8.117   4.405  68.314  1.00  0.00    -0.082 C  
HETATM   36  C   UNL     1      -6.828   3.594  67.997  1.00  0.00    -0.050 C  
BRANCH  36  37
HETATM   37  N   UNL     1      -7.089   2.149  67.753  1.00  0.00    -0.047 NA 
HETATM   38  C   UNL     1      -8.442   1.867  67.229  1.00  0.00    -0.085 C  
HETATM   39  C   UNL     1      -8.661   2.347  65.791  1.00  0.00    -0.121 C  
HETATM   40  C   UNL     1      -7.605   1.781  64.846  1.00  0.00    -0.063 C  
HETATM   41  C   UNL     1      -6.198   1.978  65.402  1.00  0.00    -0.023 C  
HETATM   42  C   UNL     1      -6.113   1.495  66.853  1.00  0.00    -0.020 C  
ENDBRANCH  36  37
ENDBRANCH  28  29
ENDBRANCH  21  28
BRANCH  22  43
HETATM   43  C   UNL     1     -11.531  15.665  67.311  1.00  0.00    -0.037 C  
HETATM   44  C   UNL     1     -11.324  16.082  68.763  1.00  0.00    -0.380 C  
ENDBRANCH  22  43
ENDBRANCH   2   3
TORSDOF 5
ENDMDL
MODEL       41
REMARK 921   NORMALIZED FREE ENERGY PREDICTED BY IDOCK:   -4.11 KCAL/MOL
REMARK 922        TOTAL FREE ENERGY PREDICTED BY IDOCK:   -6.33 KCAL/MOL
REMARK 923 INTER-LIGAND FREE ENERGY PREDICTED BY IDOCK:   -7.23 KCAL/MOL
REMARK 924 INTRA-LIGAND FREE ENERGY PREDICTED BY IDOCK:    0.90 KCAL/MOL
REMARK 927      BINDING AFFINITY PREDICTED BY RF-SCORE:    0.00 PKD
ROOT
HETATM    1  C   UNL     1     -12.233  12.658  65.811  1.00  0.00    -0.427 C  
HETATM    2  C   UNL     1     -11.368  11.512  65.318  1.00  0.00    -0.150 C  
ENDROOT
BRANCH   2   3
HETATM    3  C   UNL     1     -10.041  11.436  66.038  1.00  0.00    -0.275 A  
HETATM    4  C   UNL     1      -9.576  10.213  66.484  1.00  0.00    -0.236 A  
HETATM    5  C   UNL     1     -10.170   8.865  66.269  1.00  0.00    -0.133 A  
HETATM    6  N   UNL     1      -9.272   8.002  67.014  1.00  0.00    -0.141 N  
HETATM    7  C   UNL     1      -8.246   8.708  67.617  1.00  0.00    -0.110 A  
HETATM    8  C   UNL     1      -7.344   8.043  68.353  1.00  0.00    -0.098 C  
HETATM    9  C   UNL     1      -8.424  10.137  67.262  1.00  0.00    -0.125 A  
HETATM   10  N   UNL     1      -7.690  11.203  67.638  1.00  0.00    -0.110 NA 
HETATM   11  C   UNL     1      -7.505   6.587  68.566  1.00  0.00    -0.088 C  
HETATM   12  C   UNL     1      -8.491   5.924  67.936  1.00  0.00    -0.107 C  
HETATM   13  C   UNL     1      -8.115  12.420  67.175  1.00  0.00    -0.167 A  
HETATM   14  C   UNL     1      -7.447  13.605  67.519  1.00  0.00    -0.181 A  
HETATM   15  C   UNL     1      -9.451   6.649  67.063  1.00  0.00    -0.144 C  
HETATM   16  C   UNL     1      -8.749   4.469  68.055  1.00  0.00    -0.104 C  
HETATM   17  C   UNL     1      -7.871  14.886  67.086  1.00  0.00    -0.203 A  
HETATM   18  O   UNL     1     -10.341   6.052  66.467  1.00  0.00    -0.191 OA 
HETATM   19  O   UNL     1      -7.981   3.797  69.064  1.00  0.00    -0.058 OA 
HETATM   20  C   UNL     1      -6.954   4.340  69.746  1.00  0.00    -0.042 C  
HETATM   21  C   UNL     1      -8.978  14.997  66.257  1.00  0.00    -0.198 A  
HETATM   22  C   UNL     1      -6.576   5.835  69.493  1.00  0.00    -0.051 C  
HETATM   23  H   UNL     1      -4.691   5.402  69.461  1.00  0.00     0.000 HD 
HETATM   24  O   UNL     1      -6.304   3.627  70.510  1.00  0.00    -0.025 OA 
HETATM   25  C   UNL     1      -9.613  13.836  65.838  1.00  0.00    -0.152 A  
HETATM   26  O   UNL     1      -5.275   5.874  68.879  1.00  0.00    -0.003 OA 
HETATM   27  C   UNL     1      -9.258  12.566  66.338  1.00  0.00    -0.177 A  
BRANCH  21  28
HETATM   28  O   UNL     1      -9.413  16.281  65.830  1.00  0.00    -0.433 OA 
BRANCH  28  29
HETATM   29  C   UNL     1      -9.763  17.258  66.790  1.00  0.00    -0.281 C  
HETATM   30  C   UNL     1     -10.435  17.131  70.299  1.00  0.00     0.631 C  
HETATM   31  N   UNL     1     -10.487  16.779  67.875  1.00  0.00    -0.322 N  
HETATM   32  C   UNL     1     -10.854  17.702  68.948  1.00  0.00     0.175 C  
HETATM   33  O   UNL     1      -9.443  18.442  66.706  1.00  0.00    -0.278 OA 
HETATM   34  C   UNL     1     -11.020  15.430  68.008  1.00  0.00    -0.307 C  
HETATM   35  C   UNL     1     -10.665  14.842  69.377  1.00  0.00    -0.250 C  
HETATM   36  C   UNL     1     -11.097  15.757  70.558  1.00  0.00    -0.365 C  
BRANCH  36  37
HETATM   37  N   UNL     1     -12.575  15.834  70.731  1.00  0.00    -0.418 NA 
HETATM   38  C   UNL     1     -13.286  14.598  70.343  1.00  0.00    -0.005 C  
HETATM   39  C   UNL     1     -13.044  13.420  71.291  1.00  0.00    -0.317 C  
HETATM   40  C   UNL     1     -13.380  13.787  72.734  1.00  0.00    -0.519 C  
HETATM   41  C   UNL     1     -12.730  15.107  73.139  1.00  0.00    -0.592 C  
HETATM   42  C   UNL     1     -13.012  16.195  72.098  1.00  0.00    -0.110 C  
ENDBRANCH  36  37
ENDBRANCH  28  29
ENDBRANCH  21  28
BRANCH  22  43
HETATM   43  C   UNL     1      -6.424   6.512  70.879  1.00  0.00    -0.049 C  
HETATM   44  C   UNL     1      -7.694   6.563  71.721  1.00  0.00    -0.095 C  
ENDBRANCH  22  43
ENDBRANCH   2   3
TORSDOF 5
ENDMDL
MODEL       42
REMARK 921   NORMALIZED FREE ENERGY PREDICTED BY IDOCK:   -4.04 KCAL/MOL
REMARK 922        TOTAL FREE ENERGY PREDICTED BY IDOCK:   -6.25 KCAL/MOL
REMARK 923 INTER-LIGAND FREE ENERGY PREDICTED BY IDOCK:   -6.48 KCAL/MOL
REMARK 924 INTRA-LIGAND FREE ENERGY PREDICTED BY IDOCK:    0.23 KCAL/MOL
REMARK 927      BINDING AFFINITY PREDICTED BY RF-SCORE:    0.00 PKD
ROOT
HETATM    1  C   UNL     1     -12.361  11.283  69.581  1.00  0.00    -0.262 C  
HETATM    2  C   UNL     1     -11.601  11.320  68.268  1.00  0.00    -0.370 C  
ENDROOT
BRANCH   2   3
HETATM    3  C   UNL     1     -10.181  11.810  68.433  1.00  0.00    -0.208 A  
HETATM    4  C   UNL     1      -9.917  13.166  68.404  1.00  0.00    -0.223 A  
HETATM    5  C   UNL     1     -10.888  14.294  68.325  1.00  0.00    -0.246 A  
HETATM    6  N   UNL     1     -10.020  15.455  68.274  1.00  0.00    -0.212 N  
HETATM    7  C   UNL     1      -8.680  15.110  68.317  1.00  0.00    -0.171 A  
HETATM    8  C   UNL     1      -7.756  16.081  68.263  1.00  0.00    -0.142 C  
HETATM    9  C   UNL     1      -8.606  13.632  68.422  1.00  0.00    -0.151 A  
HETATM   10  N   UNL     1      -7.518  12.838  68.465  1.00  0.00    -0.121 NA 
HETATM   11  C   UNL     1      -8.183  17.486  68.085  1.00  0.00    -0.251 C  
HETATM   12  C   UNL     1      -9.493  17.793  68.084  1.00  0.00    -0.282 C  
HETATM   13  C   UNL     1      -7.760  11.491  68.531  1.00  0.00    -0.134 A  
HETATM   14  C   UNL     1      -6.708  10.562  68.555  1.00  0.00    -0.056 A  
HETATM   15  C   UNL     1     -10.518  16.724  68.213  1.00  0.00    -0.341 C  
HETATM   16  C   UNL     1     -10.048  19.159  67.927  1.00  0.00    -0.386 C  
HETATM   17  C   UNL     1      -6.914   9.160  68.594  1.00  0.00    -0.063 A  
HETATM   18  O   UNL     1     -11.715  16.993  68.235  1.00  0.00     0.248 OA 
HETATM   19  O   UNL     1      -9.089  20.166  67.574  1.00  0.00    -0.339 OA 
HETATM   20  C   UNL     1      -7.753  19.994  67.563  1.00  0.00    -0.298 C  
HETATM   21  C   UNL     1      -8.208   8.659  68.641  1.00  0.00    -0.121 A  
HETATM   22  C   UNL     1      -7.162  18.586  67.895  1.00  0.00    -0.237 C  
HETATM   23  H   UNL     1      -5.795  19.372  69.016  1.00  0.00     0.000 HD 
HETATM   24  O   UNL     1      -7.030  20.966  67.347  1.00  0.00    -0.332 OA 
HETATM   25  C   UNL     1      -9.265   9.557  68.696  1.00  0.00    -0.135 A  
HETATM   26  O   UNL     1      -6.437  18.681  69.135  1.00  0.00    -0.255 OA 
HETATM   27  C   UNL     1      -9.075  10.947  68.562  1.00  0.00    -0.173 A  
BRANCH  21  28
HETATM   28  O   UNL     1      -8.418   7.254  68.668  1.00  0.00    -0.128 OA 
BRANCH  28  29
HETATM   29  C   UNL     1      -7.350   6.391  69.001  1.00  0.00    -0.089 C  
HETATM   30  C   UNL     1      -7.119   3.391  70.934  1.00  0.00    -0.033 C  
HETATM   31  N   UNL     1      -7.510   5.694  70.193  1.00  0.00    -0.075 N  
HETATM   32  C   UNL     1      -6.481   4.737  70.601  1.00  0.00    -0.030 C  
HETATM   33  O   UNL     1      -6.356   6.233  68.295  1.00  0.00    -0.042 OA 
HETATM   34  C   UNL     1      -8.583   5.900  71.157  1.00  0.00    -0.129 C  
HETATM   35  C   UNL     1      -9.212   4.563  71.558  1.00  0.00    -0.186 C  
HETATM   36  C   UNL     1      -8.165   3.530  72.065  1.00  0.00    -0.071 C  
BRANCH  36  37
HETATM   37  N   UNL     1      -7.571   3.895  73.381  1.00  0.00    -0.070 NA 
HETATM   38  C   UNL     1      -8.088   3.095  74.511  1.00  0.00    -0.069 C  
HETATM   39  C   UNL     1      -7.634   1.632  74.494  1.00  0.00    -0.032 C  
HETATM   40  C   UNL     1      -6.113   1.520  74.426  1.00  0.00    -0.004 C  
HETATM   41  C   UNL     1      -5.539   2.405  73.323  1.00  0.00     0.000 C  
HETATM   42  C   UNL     1      -6.093   3.829  73.423  1.00  0.00    -0.012 C  
ENDBRANCH  36  37
ENDBRANCH  28  29
ENDBRANCH  21  28
BRANCH  22  43
HETATM   43  C   UNL     1      -6.115  18.257  66.802  1.00  0.00    -0.182 C  
HETATM   44  C   UNL     1      -6.669  18.125  65.387  1.00  0.00    -0.067 C  
ENDBRANCH  22  43
ENDBRANCH   2   3
TORSDOF 5
ENDMDL
MODEL       43
REMARK 921   NORMALIZED FREE ENERGY PREDICTED BY IDOCK:   -3.98 KCAL/MOL
REMARK 922        TOTAL FREE ENERGY PREDICTED BY IDOCK:   -6.17 KCAL/MOL
REMARK 923 INTER-LIGAND FREE ENERGY PREDICTED BY IDOCK:   -5.65 KCAL/MOL
REMARK 924 INTRA-LIGAND FREE ENERGY PREDICTED BY IDOCK:   -0.52 KCAL/MOL
REMARK 927      BINDING AFFINITY PREDICTED BY RF-SCORE:    0.00 PKD
ROOT
HETATM    1  C   UNL     1      -8.499   9.399  66.339  1.00  0.00    -0.131 C  
HETATM    2  C   UNL     1      -7.135   8.846  66.713  1.00  0.00    -0.081 C  
ENDROOT
BRANCH   2   3
HETATM    3  C   UNL     1      -6.933   8.762  68.208  1.00  0.00    -0.073 A  
HETATM    4  C   UNL     1      -7.302   7.613  68.884  1.00  0.00    -0.090 A  
HETATM    5  C   UNL     1      -7.809   6.332  68.318  1.00  0.00    -0.105 A  
HETATM    6  N   UNL     1      -8.068   5.543  69.507  1.00  0.00    -0.100 N  
HETATM    7  C   UNL     1      -7.763   6.229  70.670  1.00  0.00    -0.105 A  
HETATM    8  C   UNL     1      -7.965   5.630  71.852  1.00  0.00    -0.111 C  
HETATM    9  C   UNL     1      -7.247   7.563  70.273  1.00  0.00    -0.064 A  
HETATM   10  N   UNL     1      -6.850   8.586  71.056  1.00  0.00    -0.053 NA 
HETATM   11  C   UNL     1      -8.576   4.283  71.893  1.00  0.00    -0.117 C  
HETATM   12  C   UNL     1      -8.826   3.627  70.746  1.00  0.00    -0.136 C  
HETATM   13  C   UNL     1      -6.447   9.721  70.402  1.00  0.00    -0.101 A  
HETATM   14  C   UNL     1      -6.035  10.861  71.109  1.00  0.00     0.218 A  
HETATM   15  C   UNL     1      -8.538   4.263  69.433  1.00  0.00    -0.080 C  
HETATM   16  C   UNL     1      -9.421   2.272  70.652  1.00  0.00    -0.119 C  
HETATM   17  C   UNL     1      -5.639  12.064  70.474  1.00  0.00    -0.165 A  
HETATM   18  O   UNL     1      -8.742   3.667  68.381  1.00  0.00    -0.092 OA 
HETATM   19  O   UNL     1      -9.914   1.739  71.890  1.00  0.00    -0.136 OA 
HETATM   20  C   UNL     1      -9.708   2.284  73.104  1.00  0.00    -0.094 C  
HETATM   21  C   UNL     1      -5.619  12.132  69.088  1.00  0.00    -0.066 A  
HETATM   22  C   UNL     1      -8.930   3.635  73.213  1.00  0.00    -0.098 C  
HETATM   23  H   UNL     1      -7.906   2.978  74.716  1.00  0.00     0.000 HD 
HETATM   24  O   UNL     1     -10.091   1.674  74.102  1.00  0.00    -0.084 OA 
HETATM   25  C   UNL     1      -5.948  10.995  68.363  1.00  0.00    -0.042 A  
HETATM   26  O   UNL     1      -7.683   3.385  73.887  1.00  0.00    -0.063 OA 
HETATM   27  C   UNL     1      -6.433   9.826  68.983  1.00  0.00    -0.045 A  
BRANCH  21  28
HETATM   28  O   UNL     1      -5.233  13.341  68.447  1.00  0.00    -0.068 OA 
BRANCH  28  29
HETATM   29  C   UNL     1      -6.056  14.485  68.554  1.00  0.00    -0.091 C  
HETATM   30  C   UNL     1      -9.592  14.996  68.409  1.00  0.00    -0.212 C  
HETATM   31  N   UNL     1      -7.275  14.394  67.891  1.00  0.00    -0.141 N  
HETATM   32  C   UNL     1      -8.219  15.507  67.982  1.00  0.00    -0.144 C  
HETATM   33  O   UNL     1      -5.751  15.487  69.198  1.00  0.00    -0.102 OA 
HETATM   34  C   UNL     1      -7.677  13.310  67.004  1.00  0.00     0.124 C  
HETATM   35  C   UNL     1      -9.077  12.807  67.367  1.00  0.00    -0.192 C  
HETATM   36  C   UNL     1     -10.136  13.945  67.411  1.00  0.00    -0.244 C  
BRANCH  36  37
HETATM   37  N   UNL     1     -10.448  14.509  66.068  1.00  0.00    -0.296 NA 
HETATM   38  C   UNL     1     -10.091  13.613  64.948  1.00  0.00    -0.266 C  
HETATM   39  C   UNL     1     -10.977  12.368  64.844  1.00  0.00    -0.341 C  
HETATM   40  C   UNL     1     -12.456  12.739  64.768  1.00  0.00    -0.539 C  
HETATM   41  C   UNL     1     -12.837  13.734  65.860  1.00  0.00    -0.369 C  
HETATM   42  C   UNL     1     -11.860  14.913  65.889  1.00  0.00    -0.113 C  
ENDBRANCH  36  37
ENDBRANCH  28  29
ENDBRANCH  21  28
BRANCH  22  43
HETATM   43  C   UNL     1      -9.749   4.565  74.142  1.00  0.00    -0.152 C  
HETATM   44  C   UNL     1     -11.130   4.952  73.624  1.00  0.00    -0.370 C  
ENDBRANCH  22  43
ENDBRANCH   2   3
TORSDOF 5
ENDMDL
MODEL       44
REMARK 921   NORMALIZED FREE ENERGY PREDICTED BY IDOCK:   -3.98 KCAL/MOL
REMARK 922        TOTAL FREE ENERGY PREDICTED BY IDOCK:   -6.16 KCAL/MOL
REMARK 923 INTER-LIGAND FREE ENERGY PREDICTED BY IDOCK:   -7.08 KCAL/MOL
REMARK 924 INTRA-LIGAND FREE ENERGY PREDICTED BY IDOCK:    0.91 KCAL/MOL
REMARK 927      BINDING AFFINITY PREDICTED BY RF-SCORE:    0.00 PKD
ROOT
HETATM    1  C   UNL     1      -5.525  10.546  66.712  1.00  0.00    -0.046 C  
HETATM    2  C   UNL     1      -6.190  11.070  67.972  1.00  0.00    -0.053 C  
ENDROOT
BRANCH   2   3
HETATM    3  C   UNL     1      -7.546  11.681  67.701  1.00  0.00    -0.128 A  
HETATM    4  C   UNL     1      -7.646  13.035  67.442  1.00  0.00    -0.141 A  
HETATM    5  C   UNL     1      -6.547  14.028  67.284  1.00  0.00     0.305 A  
HETATM    6  N   UNL     1      -7.271  15.270  67.084  1.00  0.00    -0.169 N  
HETATM    7  C   UNL     1      -8.642  15.088  67.110  1.00  0.00    -0.223 A  
HETATM    8  C   UNL     1      -9.443  16.153  66.954  1.00  0.00    -0.245 C  
HETATM    9  C   UNL     1      -8.893  13.641  67.321  1.00  0.00    -0.224 A  
HETATM   10  N   UNL     1     -10.068  12.993  67.443  1.00  0.00    -0.229 NA 
HETATM   11  C   UNL     1      -8.848  17.502  66.832  1.00  0.00    -0.267 C  
HETATM   12  C   UNL     1      -7.512  17.641  66.773  1.00  0.00    -0.249 C  
HETATM   13  C   UNL     1      -9.989  11.643  67.665  1.00  0.00    -0.188 A  
HETATM   14  C   UNL     1     -11.144  10.863  67.833  1.00  0.00    -0.362 A  
HETATM   15  C   UNL     1      -6.624  16.454  66.876  1.00  0.00    -0.135 C  
HETATM   16  C   UNL     1      -6.796  18.933  66.638  1.00  0.00    -0.197 C  
HETATM   17  C   UNL     1     -11.107   9.471  68.094  1.00  0.00    -0.052 A  
HETATM   18  O   UNL     1      -5.404  16.566  66.803  1.00  0.00    -0.337 OA 
HETATM   19  O   UNL     1      -7.620  20.100  66.767  1.00  0.00    -0.271 OA 
HETATM   20  C   UNL     1      -8.967  20.096  66.809  1.00  0.00    -0.327 C  
HETATM   21  C   UNL     1      -9.883   8.819  68.158  1.00  0.00    -0.168 A  
HETATM   22  C   UNL     1      -9.728  18.731  66.780  1.00  0.00    -0.329 C  
HETATM   23  H   UNL     1     -11.016  19.422  65.514  1.00  0.00     0.000 HD 
HETATM   24  O   UNL     1      -9.564  21.172  66.812  1.00  0.00     0.050 OA 
HETATM   25  C   UNL     1      -8.728   9.550  67.919  1.00  0.00    -0.119 A  
HETATM   26  O   UNL     1     -10.464  18.650  65.546  1.00  0.00    -0.585 OA 
HETATM   27  C   UNL     1      -8.748  10.950  67.754  1.00  0.00    -0.129 A  
BRANCH  21  28
HETATM   28  O   UNL     1      -9.841   7.424  68.430  1.00  0.00    -0.151 OA 
BRANCH  28  29
HETATM   29  C   UNL     1     -10.503   6.912  69.569  1.00  0.00    -0.223 C  
HETATM   30  C   UNL     1      -9.386   5.200  72.503  1.00  0.00    -0.152 C  
HETATM   31  N   UNL     1      -9.862   5.845  70.188  1.00  0.00    -0.170 N  
HETATM   32  C   UNL     1     -10.441   5.276  71.404  1.00  0.00    -0.203 C  
HETATM   33  O   UNL     1     -11.553   7.373  70.013  1.00  0.00    -0.142 OA 
HETATM   34  C   UNL     1      -8.689   5.149  69.676  1.00  0.00    -0.092 C  
HETATM   35  C   UNL     1      -7.626   5.006  70.769  1.00  0.00    -0.074 C  
HETATM   36  C   UNL     1      -8.176   4.341  72.063  1.00  0.00    -0.095 C  
BRANCH  36  37
HETATM   37  N   UNL     1      -8.506   2.899  71.889  1.00  0.00    -0.061 NA 
HETATM   38  C   UNL     1      -7.673   1.994  72.708  1.00  0.00    -0.047 C  
HETATM   39  C   UNL     1      -7.962   2.076  74.210  1.00  0.00    -0.053 C  
HETATM   40  C   UNL     1      -9.441   1.841  74.508  1.00  0.00    -0.097 C  
HETATM   41  C   UNL     1     -10.332   2.700  73.614  1.00  0.00    -0.213 C  
HETATM   42  C   UNL     1      -9.924   2.562  72.145  1.00  0.00    -0.162 C  
ENDBRANCH  36  37
ENDBRANCH  28  29
ENDBRANCH  21  28
BRANCH  22  43
HETATM   43  C   UNL     1     -10.782  18.769  67.915  1.00  0.00    -0.347 C  
HETATM   44  C   UNL     1     -10.219  18.921  69.324  1.00  0.00     0.021 C  
ENDBRANCH  22  43
ENDBRANCH   2   3
TORSDOF 5
ENDMDL
MODEL       45
REMARK 921   NORMALIZED FREE ENERGY PREDICTED BY IDOCK:   -3.88 KCAL/MOL
REMARK 922        TOTAL FREE ENERGY PREDICTED BY IDOCK:   -6.04 KCAL/MOL
REMARK 923 INTER-LIGAND FREE ENERGY PREDICTED BY IDOCK:   -6.43 KCAL/MOL
REMARK 924 INTRA-LIGAND FREE ENERGY PREDICTED BY IDOCK:    0.40 KCAL/MOL
REMARK 927      BINDING AFFINITY PREDICTED BY RF-SCORE:    0.00 PKD
ROOT
HETATM    1  C   UNL     1     -11.323  11.519  66.611  1.00  0.00    -0.285 C  
HETATM    2  C   UNL     1     -10.188  10.914  65.805  1.00  0.00    -0.318 C  
ENDROOT
BRANCH   2   3
HETATM    3  C   UNL     1      -9.035  10.464  66.672  1.00  0.00    -0.155 A  
HETATM    4  C   UNL     1      -8.914   9.128  67.008  1.00  0.00    -0.139 A  
HETATM    5  C   UNL     1      -9.740   7.980  66.541  1.00  0.00    -0.227 A  
HETATM    6  N   UNL     1      -9.172   6.864  67.273  1.00  0.00    -0.125 N  
HETATM    7  C   UNL     1      -8.125   7.251  68.092  1.00  0.00    -0.124 A  
HETATM    8  C   UNL     1      -7.510   6.327  68.843  1.00  0.00    -0.087 C  
HETATM    9  C   UNL     1      -7.940   8.712  67.910  1.00  0.00    -0.107 A  
HETATM   10  N   UNL     1      -7.063   9.538  68.517  1.00  0.00    -0.069 NA 
HETATM   11  C   UNL     1      -8.006   4.933  68.838  1.00  0.00    -0.076 C  
HETATM   12  C   UNL     1      -9.000   4.580  68.004  1.00  0.00    -0.136 C  
HETATM   13  C   UNL     1      -7.145  10.861  68.168  1.00  0.00    -0.077 A  
HETATM   14  C   UNL     1      -6.302  11.820  68.750  1.00  0.00    -0.061 A  
HETATM   15  C   UNL     1      -9.638   5.590  67.119  1.00  0.00    -0.134 C  
HETATM   16  C   UNL     1      -9.576   3.218  67.894  1.00  0.00    -0.084 C  
HETATM   17  C   UNL     1      -6.372  13.202  68.441  1.00  0.00    -0.084 A  
HETATM   18  O   UNL     1     -10.531   5.276  66.339  1.00  0.00    -0.260 OA 
HETATM   19  O   UNL     1      -9.134   2.290  68.895  1.00  0.00    -0.105 OA 
HETATM   20  C   UNL     1      -8.133   2.512  69.769  1.00  0.00    -0.041 C  
HETATM   21  C   UNL     1      -7.289  13.646  67.498  1.00  0.00    -0.166 A  
HETATM   22  C   UNL     1      -7.412   3.899  69.768  1.00  0.00    -0.052 C  
HETATM   23  H   UNL     1      -5.680   3.051  69.921  1.00  0.00     0.000 HD 
HETATM   24  O   UNL     1      -7.776   1.596  70.508  1.00  0.00    -0.036 OA 
HETATM   25  C   UNL     1      -8.082  12.709  66.851  1.00  0.00    -0.015 A  
HETATM   26  O   UNL     1      -6.053   3.701  69.337  1.00  0.00    -0.026 OA 
HETATM   27  C   UNL     1      -8.086  11.349  67.218  1.00  0.00    -0.148 A  
BRANCH  21  28
HETATM   28  O   UNL     1      -7.370  15.032  67.194  1.00  0.00    -0.190 OA 
BRANCH  28  29
HETATM   29  C   UNL     1      -8.620  15.606  66.865  1.00  0.00    -0.248 C  
HETATM   30  C   UNL     1     -11.411  16.706  68.811  1.00  0.00    -0.139 C  
HETATM   31  N   UNL     1      -9.634  15.367  67.786  1.00  0.00    -0.209 N  
HETATM   32  C   UNL     1     -10.952  15.960  67.562  1.00  0.00    -0.280 C  
HETATM   33  O   UNL     1      -8.814  16.289  65.862  1.00  0.00    -0.392 OA 
HETATM   34  C   UNL     1      -9.542  14.475  68.934  1.00  0.00    -0.158 C  
HETATM   35  C   UNL     1     -10.047  15.172  70.201  1.00  0.00    -0.043 C  
HETATM   36  C   UNL     1     -11.476  15.763  70.037  1.00  0.00    -0.356 C  
BRANCH  36  37
HETATM   37  N   UNL     1     -12.533  14.720  69.926  1.00  0.00    -0.280 NA 
HETATM   38  C   UNL     1     -12.214  13.469  70.646  1.00  0.00    -0.358 C  
HETATM   39  C   UNL     1     -12.241  13.608  72.171  1.00  0.00     0.326 C  
HETATM   40  C   UNL     1     -13.575  14.166  72.658  1.00  0.00    -0.618 C  
HETATM   41  C   UNL     1     -13.977  15.412  71.872  1.00  0.00    -0.629 C  
HETATM   42  C   UNL     1     -13.876  15.161  70.364  1.00  0.00     0.468 C  
ENDBRANCH  36  37
ENDBRANCH  28  29
ENDBRANCH  21  28
BRANCH  22  43
HETATM   43  C   UNL     1      -7.338   4.379  71.239  1.00  0.00    -0.055 C  
HETATM   44  C   UNL     1      -8.676   4.737  71.877  1.00  0.00    -0.133 C  
ENDBRANCH  22  43
ENDBRANCH   2   3
TORSDOF 5
ENDMDL
MODEL       46
REMARK 921   NORMALIZED FREE ENERGY PREDICTED BY IDOCK:   -3.80 KCAL/MOL
REMARK 922        TOTAL FREE ENERGY PREDICTED BY IDOCK:   -5.94 KCAL/MOL
REMARK 923 INTER-LIGAND FREE ENERGY PREDICTED BY IDOCK:   -7.29 KCAL/MOL
REMARK 924 INTRA-LIGAND FREE ENERGY PREDICTED BY IDOCK:    1.35 KCAL/MOL
REMARK 927      BINDING AFFINITY PREDICTED BY RF-SCORE:    0.00 PKD
ROOT
HETATM    1  C   UNL     1     -12.152  11.540  67.750  1.00  0.00     0.113 C  
HETATM    2  C   UNL     1     -11.081  10.757  67.013  1.00  0.00    -0.245 C  
ENDROOT
BRANCH   2   3
HETATM    3  C   UNL     1      -9.734  10.832  67.695  1.00  0.00    -0.185 A  
HETATM    4  C   UNL     1      -9.311   9.784  68.491  1.00  0.00    -0.142 A  
HETATM    5  C   UNL     1      -9.976   8.471  68.718  1.00  0.00    -0.186 A  
HETATM    6  N   UNL     1      -9.094   7.832  69.676  1.00  0.00    -0.146 N  
HETATM    7  C   UNL     1      -8.014   8.631  70.010  1.00  0.00    -0.106 A  
HETATM    8  C   UNL     1      -7.118   8.178  70.898  1.00  0.00    -0.050 C  
HETATM    9  C   UNL     1      -8.137   9.888  69.231  1.00  0.00    -0.128 A  
HETATM   10  N   UNL     1      -7.339  10.974  69.242  1.00  0.00    -0.123 NA 
HETATM   11  C   UNL     1      -7.340   6.871  71.557  1.00  0.00    -0.081 C  
HETATM   12  C   UNL     1      -8.378   6.102  71.184  1.00  0.00    -0.124 C  
HETATM   13  C   UNL     1      -7.723  12.010  68.431  1.00  0.00    -0.138 A  
HETATM   14  C   UNL     1      -6.988  13.204  68.376  1.00  0.00    -0.104 A  
HETATM   15  C   UNL     1      -9.334   6.574  70.148  1.00  0.00    -0.158 C  
HETATM   16  C   UNL     1      -8.701   4.772  71.755  1.00  0.00    -0.123 C  
HETATM   17  C   UNL     1      -7.365  14.310  67.574  1.00  0.00    -0.199 A  
HETATM   18  O   UNL     1     -10.273   5.873  69.785  1.00  0.00    -0.183 OA 
HETATM   19  O   UNL     1      -7.930   4.404  72.908  1.00  0.00    -0.088 OA 
HETATM   20  C   UNL     1      -6.854   5.073  73.366  1.00  0.00    -0.074 C  
HETATM   21  C   UNL     1      -8.496  14.220  66.773  1.00  0.00    -0.020 A  
HETATM   22  C   UNL     1      -6.414   6.392  72.653  1.00  0.00    -0.063 C  
HETATM   23  H   UNL     1      -4.555   5.865  72.720  1.00  0.00     0.000 HD 
HETATM   24  O   UNL     1      -6.211   4.596  74.301  1.00  0.00    -0.046 OA 
HETATM   25  C   UNL     1      -9.199  13.024  66.749  1.00  0.00    -0.229 A  
HETATM   26  O   UNL     1      -5.136   6.166  72.032  1.00  0.00    -0.020 OA 
HETATM   27  C   UNL     1      -8.887  11.954  67.612  1.00  0.00    -0.169 A  
BRANCH  21  28
HETATM   28  O   UNL     1      -8.885  15.331  65.976  1.00  0.00    -0.244 OA 
BRANCH  28  29
HETATM   29  C   UNL     1      -9.455  16.470  66.590  1.00  0.00    -0.258 C  
HETATM   30  C   UNL     1     -10.474  17.210  69.937  1.00  0.00     0.189 C  
HETATM   31  N   UNL     1     -10.224  16.203  67.717  1.00  0.00    -0.261 N  
HETATM   32  C   UNL     1     -10.816  17.319  68.454  1.00  0.00    -0.273 C  
HETATM   33  O   UNL     1      -9.279  17.619  66.192  1.00  0.00    -0.446 OA 
HETATM   34  C   UNL     1     -10.594  14.878  68.196  1.00  0.00    -0.244 C  
HETATM   35  C   UNL     1     -10.315  14.748  69.696  1.00  0.00    -0.084 C  
HETATM   36  C   UNL     1     -10.982  15.876  70.534  1.00  0.00    -0.330 C  
BRANCH  36  37
HETATM   37  N   UNL     1     -12.468  15.775  70.578  1.00  0.00    -0.393 NA 
HETATM   38  C   UNL     1     -12.990  14.472  70.115  1.00  0.00    -0.003 C  
HETATM   39  C   UNL     1     -12.690  13.310  71.066  1.00  0.00    -0.374 C  
HETATM   40  C   UNL     1     -13.189  13.602  72.479  1.00  0.00    -0.578 C  
HETATM   41  C   UNL     1     -12.739  14.980  72.955  1.00  0.00    -0.524 C  
HETATM   42  C   UNL     1     -13.059  16.050  71.907  1.00  0.00    -0.147 C  
ENDBRANCH  36  37
ENDBRANCH  28  29
ENDBRANCH  21  28
BRANCH  22  43
HETATM   43  C   UNL     1      -6.181   7.455  73.756  1.00  0.00    -0.068 C  
HETATM   44  C   UNL     1      -7.445   8.078  74.339  1.00  0.00    -0.236 C  
ENDBRANCH  22  43
ENDBRANCH   2   3
TORSDOF 5
ENDMDL
MODEL       47
REMARK 921   NORMALIZED FREE ENERGY PREDICTED BY IDOCK:   -3.78 KCAL/MOL
REMARK 922        TOTAL FREE ENERGY PREDICTED BY IDOCK:   -5.91 KCAL/MOL
REMARK 923 INTER-LIGAND FREE ENERGY PREDICTED BY IDOCK:   -6.35 KCAL/MOL
REMARK 924 INTRA-LIGAND FREE ENERGY PREDICTED BY IDOCK:    0.44 KCAL/MOL
REMARK 927      BINDING AFFINITY PREDICTED BY RF-SCORE:    0.00 PKD
ROOT
HETATM    1  C   UNL     1      -6.629   8.676  70.544  1.00  0.00    -0.039 C  
HETATM    2  C   UNL     1      -5.877   9.072  69.287  1.00  0.00    -0.035 C  
ENDROOT
BRANCH   2   3
HETATM    3  C   UNL     1      -6.799   9.509  68.172  1.00  0.00    -0.070 A  
HETATM    4  C   UNL     1      -7.162  10.838  68.067  1.00  0.00    -0.086 A  
HETATM    5  C   UNL     1      -6.680  11.994  68.874  1.00  0.00    -0.093 A  
HETATM    6  N   UNL     1      -7.454  13.098  68.339  1.00  0.00    -0.118 N  
HETATM    7  C   UNL     1      -8.309  12.697  67.327  1.00  0.00    -0.189 A  
HETATM    8  C   UNL     1      -9.101  13.610  66.744  1.00  0.00    -0.230 C  
HETATM    9  C   UNL     1      -8.111  11.240  67.132  1.00  0.00    -0.150 A  
HETATM   10  N   UNL     1      -8.739  10.405  66.280  1.00  0.00    -0.149 NA 
HETATM   11  C   UNL     1      -9.098  15.003  67.242  1.00  0.00    -0.213 C  
HETATM   12  C   UNL     1      -8.229  15.369  68.201  1.00  0.00    -0.144 C  
HETATM   13  C   UNL     1      -8.366   9.088  66.345  1.00  0.00    -0.115 A  
HETATM   14  C   UNL     1      -8.966   8.120  65.526  1.00  0.00    -0.082 A  
HETATM   15  C   UNL     1      -7.302  14.373  68.800  1.00  0.00    -0.131 C  
HETATM   16  C   UNL     1      -8.117  16.732  68.774  1.00  0.00    -0.252 C  
HETATM   17  C   UNL     1      -8.632   6.744  65.581  1.00  0.00    -0.126 A  
HETATM   18  O   UNL     1      -6.490  14.700  69.660  1.00  0.00    -0.126 OA 
HETATM   19  O   UNL     1      -9.152  17.644  68.376  1.00  0.00    -0.265 OA 
HETATM   20  C   UNL     1     -10.063  17.408  67.412  1.00  0.00    -0.321 C  
HETATM   21  C   UNL     1      -7.644   6.314  66.457  1.00  0.00    -0.094 A  
HETATM   22  C   UNL     1     -10.069  16.022  66.689  1.00  0.00    -0.279 C  
HETATM   23  H   UNL     1     -10.309  16.869  64.967  1.00  0.00     0.000 HD 
HETATM   24  O   UNL     1     -10.831  18.312  67.087  1.00  0.00    -0.351 OA 
HETATM   25  C   UNL     1      -6.980   7.261  67.224  1.00  0.00    -0.079 A  
HETATM   26  O   UNL     1      -9.699  16.228  65.314  1.00  0.00    -0.429 OA 
HETATM   27  C   UNL     1      -7.370   8.615  67.245  1.00  0.00    -0.088 A  
BRANCH  21  28
HETATM   28  O   UNL     1      -7.314   4.933  66.524  1.00  0.00    -0.079 OA 
BRANCH  28  29
HETATM   29  C   UNL     1      -6.560   4.444  67.615  1.00  0.00    -0.046 C  
HETATM   30  C   UNL     1      -7.434   2.816  70.676  1.00  0.00    -0.036 C  
HETATM   31  N   UNL     1      -7.240   4.412  68.827  1.00  0.00    -0.055 N  
HETATM   32  C   UNL     1      -6.563   3.875  70.008  1.00  0.00    -0.033 C  
HETATM   33  O   UNL     1      -5.400   4.049  67.520  1.00  0.00    -0.011 OA 
HETATM   34  C   UNL     1      -8.564   4.968  69.071  1.00  0.00    -0.085 C  
HETATM   35  C   UNL     1      -9.453   3.950  69.792  1.00  0.00    -0.264 C  
HETATM   36  C   UNL     1      -8.806   3.398  71.094  1.00  0.00    -0.083 C  
BRANCH  36  37
HETATM   37  N   UNL     1      -8.712   4.413  72.179  1.00  0.00    -0.112 NA 
HETATM   38  C   UNL     1      -9.642   5.550  72.014  1.00  0.00    -0.151 C  
HETATM   39  C   UNL     1     -11.114   5.182  72.222  1.00  0.00    -0.176 C  
HETATM   40  C   UNL     1     -11.338   4.516  73.577  1.00  0.00    -0.355 C  
HETATM   41  C   UNL     1     -10.333   3.392  73.817  1.00  0.00    -0.233 C  
HETATM   42  C   UNL     1      -8.905   3.870  73.542  1.00  0.00    -0.093 C  
ENDBRANCH  36  37
ENDBRANCH  28  29
ENDBRANCH  21  28
BRANCH  22  43
HETATM   43  C   UNL     1     -11.534  15.518  66.676  1.00  0.00     0.068 C  
HETATM   44  C   UNL     1     -11.844  14.445  65.638  1.00  0.00    -0.355 C  
ENDBRANCH  22  43
ENDBRANCH   2   3
TORSDOF 5
ENDMDL
MODEL       48
REMARK 921   NORMALIZED FREE ENERGY PREDICTED BY IDOCK:   -3.74 KCAL/MOL
REMARK 922        TOTAL FREE ENERGY PREDICTED BY IDOCK:   -5.86 KCAL/MOL
REMARK 923 INTER-LIGAND FREE ENERGY PREDICTED BY IDOCK:   -5.34 KCAL/MOL
REMARK 924 INTRA-LIGAND FREE ENERGY PREDICTED BY IDOCK:   -0.52 KCAL/MOL
REMARK 927      BINDING AFFINITY PREDICTED BY RF-SCORE:    0.00 PKD
ROOT
HETATM    1  C   UNL     1      -9.577   9.213  71.435  1.00  0.00    -0.316 C  
HETATM    2  C   UNL     1      -8.312   8.626  70.835  1.00  0.00    -0.182 C  
ENDROOT
BRANCH   2   3
HETATM    3  C   UNL     1      -8.268   8.761  69.330  1.00  0.00    -0.108 A  
HETATM    4  C   UNL     1      -8.457   7.643  68.538  1.00  0.00    -0.129 A  
HETATM    5  C   UNL     1      -8.813   6.261  68.963  1.00  0.00    -0.124 A  
HETATM    6  N   UNL     1      -8.814   5.535  67.707  1.00  0.00    -0.106 N  
HETATM    7  C   UNL     1      -8.502   6.348  66.631  1.00  0.00    -0.115 A  
HETATM    8  C   UNL     1      -8.450   5.812  65.403  1.00  0.00    -0.151 C  
HETATM    9  C   UNL     1      -8.290   7.718  67.159  1.00  0.00    -0.118 A  
HETATM   10  N   UNL     1      -7.941   8.839  66.496  1.00  0.00    -0.102 NA 
HETATM   11  C   UNL     1      -8.653   4.356  65.233  1.00  0.00    -0.124 C  
HETATM   12  C   UNL     1      -8.990   3.599  66.292  1.00  0.00    -0.144 C  
HETATM   13  C   UNL     1      -7.785   9.965  67.260  1.00  0.00    -0.095 A  
HETATM   14  C   UNL     1      -7.399  11.187  66.687  1.00  0.00    -0.145 A  
HETATM   15  C   UNL     1      -9.116   4.206  67.644  1.00  0.00    -0.140 C  
HETATM   16  C   UNL     1      -9.233   2.137  66.252  1.00  0.00     0.026 C  
HETATM   17  C   UNL     1      -7.198  12.368  67.444  1.00  0.00    -0.148 A  
HETATM   18  O   UNL     1      -9.445   3.530  68.614  1.00  0.00    -0.167 OA 
HETATM   19  O   UNL     1      -8.894   1.500  65.011  1.00  0.00    -0.105 OA 
HETATM   20  C   UNL     1      -8.566   2.145  63.874  1.00  0.00    -0.085 C  
HETATM   21  C   UNL     1      -7.416  12.348  68.814  1.00  0.00    -0.056 A  
HETATM   22  C   UNL     1      -8.476   3.705  63.880  1.00  0.00    -0.091 C  
HETATM   23  H   UNL     1      -9.416   3.812  62.192  1.00  0.00     0.000 HD 
HETATM   24  O   UNL     1      -8.402   1.489  62.846  1.00  0.00    -0.060 OA 
HETATM   25  C   UNL     1      -7.873  11.174  69.397  1.00  0.00     0.063 A  
HETATM   26  O   UNL     1      -9.527   4.221  63.043  1.00  0.00    -0.142 OA 
HETATM   27  C   UNL     1      -7.984   9.971  68.669  1.00  0.00    -0.097 A  
BRANCH  21  28
HETATM   28  O   UNL     1      -7.204  13.527  69.579  1.00  0.00     0.086 OA 
BRANCH  28  29
HETATM   29  C   UNL     1      -6.360  14.545  69.078  1.00  0.00    -0.095 C  
HETATM   30  C   UNL     1      -6.736  18.078  68.677  1.00  0.00    -0.240 C  
HETATM   31  N   UNL     1      -7.022  15.648  68.552  1.00  0.00    -0.112 N  
HETATM   32  C   UNL     1      -6.237  16.778  68.055  1.00  0.00    -0.136 C  
HETATM   33  O   UNL     1      -5.133  14.493  69.117  1.00  0.00    -0.080 OA 
HETATM   34  C   UNL     1      -8.461  15.754  68.347  1.00  0.00    -0.170 C  
HETATM   35  C   UNL     1      -8.990  17.076  68.912  1.00  0.00    -0.210 C  
HETATM   36  C   UNL     1      -8.232  18.316  68.360  1.00  0.00    -0.311 C  
BRANCH  36  37
HETATM   37  N   UNL     1      -8.498  18.573  66.918  1.00  0.00    -0.264 NA 
HETATM   38  C   UNL     1      -9.922  18.449  66.543  1.00  0.00    -0.379 C  
HETATM   39  C   UNL     1     -10.810  19.564  67.104  1.00  0.00    -0.555 C  
HETATM   40  C   UNL     1     -10.285  20.944  66.716  1.00  0.00     0.398 C  
HETATM   41  C   UNL     1      -8.793  21.075  67.010  1.00  0.00     0.066 C  
HETATM   42  C   UNL     1      -8.018  19.886  66.433  1.00  0.00    -0.323 C  
ENDBRANCH  36  37
ENDBRANCH  28  29
ENDBRANCH  21  28
BRANCH  22  43
HETATM   43  C   UNL     1      -7.142   4.090  63.192  1.00  0.00    -0.045 C  
HETATM   44  C   UNL     1      -5.939   4.208  64.121  1.00  0.00    -0.014 C  
ENDBRANCH  22  43
ENDBRANCH   2   3
TORSDOF 5
ENDMDL
MODEL       49
REMARK 921   NORMALIZED FREE ENERGY PREDICTED BY IDOCK:   -3.64 KCAL/MOL
REMARK 922        TOTAL FREE ENERGY PREDICTED BY IDOCK:   -5.74 KCAL/MOL
REMARK 923 INTER-LIGAND FREE ENERGY PREDICTED BY IDOCK:   -6.34 KCAL/MOL
REMARK 924 INTRA-LIGAND FREE ENERGY PREDICTED BY IDOCK:    0.61 KCAL/MOL
REMARK 927      BINDING AFFINITY PREDICTED BY RF-SCORE:    0.00 PKD
ROOT
HETATM    1  C   UNL     1     -11.436  10.798  67.762  1.00  0.00    -0.283 C  
HETATM    2  C   UNL     1     -10.380   9.841  67.239  1.00  0.00    -0.308 C  
ENDROOT
BRANCH   2   3
HETATM    3  C   UNL     1      -9.160   9.780  68.128  1.00  0.00    -0.125 A  
HETATM    4  C   UNL     1      -8.898   8.632  68.852  1.00  0.00    -0.138 A  
HETATM    5  C   UNL     1      -9.625   7.332  68.816  1.00  0.00    -0.142 A  
HETATM    6  N   UNL     1      -8.927   6.552  69.819  1.00  0.00    -0.142 N  
HETATM    7  C   UNL     1      -7.895   7.260  70.411  1.00  0.00    -0.099 A  
HETATM    8  C   UNL     1      -7.167   6.670  71.370  1.00  0.00    -0.082 C  
HETATM    9  C   UNL     1      -7.857   8.600  69.775  1.00  0.00    -0.093 A  
HETATM   10  N   UNL     1      -7.044   9.642  70.040  1.00  0.00    -0.087 NA 
HETATM   11  C   UNL     1      -7.526   5.309  71.827  1.00  0.00    -0.091 C  
HETATM   12  C   UNL     1      -8.510   4.634  71.207  1.00  0.00    -0.112 C  
HETATM   13  C   UNL     1      -7.265  10.778  69.306  1.00  0.00    -0.122 A  
HETATM   14  C   UNL     1      -6.499  11.936  69.508  1.00  0.00    -0.113 A  
HETATM   15  C   UNL     1      -9.273   5.261  70.096  1.00  0.00    -0.139 C  
HETATM   16  C   UNL     1      -8.955   3.264  71.560  1.00  0.00    -0.096 C  
HETATM   17  C   UNL     1      -6.713  13.141  68.792  1.00  0.00    -0.100 A  
HETATM   18  O   UNL     1     -10.158   4.647  69.509  1.00  0.00    -0.222 OA 
HETATM   19  O   UNL     1      -8.390   2.735  72.769  1.00  0.00    -0.069 OA 
HETATM   20  C   UNL     1      -7.386   3.300  73.466  1.00  0.00    -0.055 C  
HETATM   21  C   UNL     1      -7.701  13.192  67.819  1.00  0.00    -0.153 A  
HETATM   22  C   UNL     1      -6.803   4.670  72.991  1.00  0.00    -0.070 C  
HETATM   23  H   UNL     1      -4.993   4.056  73.289  1.00  0.00     0.000 HD 
HETATM   24  O   UNL     1      -6.916   2.694  74.428  1.00  0.00    -0.033 OA 
HETATM   25  C   UNL     1      -8.422  12.038  67.544  1.00  0.00    -0.165 A  
HETATM   26  O   UNL     1      -5.447   4.458  72.557  1.00  0.00    -0.003 OA 
HETATM   27  C   UNL     1      -8.282  10.866  68.313  1.00  0.00    -0.127 A  
BRANCH  21  28
HETATM   28  O   UNL     1      -7.927  14.401  67.107  1.00  0.00    -0.192 OA 
BRANCH  28  29
HETATM   29  C   UNL     1      -9.247  14.787  66.781  1.00  0.00    -0.260 C  
HETATM   30  C   UNL     1     -11.895  16.314  68.637  1.00  0.00     0.024 C  
HETATM   31  N   UNL     1     -10.134  14.802  67.851  1.00  0.00    -0.220 N  
HETATM   32  C   UNL     1     -11.512  15.236  67.626  1.00  0.00    -0.280 C  
HETATM   33  O   UNL     1      -9.602  15.113  65.650  1.00  0.00    -0.334 OA 
HETATM   34  C   UNL     1      -9.847  14.319  69.195  1.00  0.00     0.017 C  
HETATM   35  C   UNL     1     -10.269  15.353  70.242  1.00  0.00    -0.134 C  
HETATM   36  C   UNL     1     -11.751  15.799  70.089  1.00  0.00    -0.356 C  
BRANCH  36  37
HETATM   37  N   UNL     1     -12.725  14.727  70.436  1.00  0.00    -0.339 NA 
HETATM   38  C   UNL     1     -12.222  13.767  71.441  1.00  0.00    -0.152 C  
HETATM   39  C   UNL     1     -12.080  14.359  72.846  1.00  0.00     0.006 C  
HETATM   40  C   UNL     1     -13.388  14.981  73.326  1.00  0.00    -0.429 C  
HETATM   41  C   UNL     1     -13.980  15.913  72.271  1.00  0.00    -0.303 C  
HETATM   42  C   UNL     1     -14.038  15.223  70.905  1.00  0.00    -0.094 C  
ENDBRANCH  36  37
ENDBRANCH  28  29
ENDBRANCH  21  28
BRANCH  22  43
HETATM   43  C   UNL     1      -6.724   5.591  74.234  1.00  0.00    -0.077 C  
HETATM   44  C   UNL     1      -5.365   6.238  74.482  1.00  0.00    -0.048 C  
ENDBRANCH  22  43
ENDBRANCH   2   3
TORSDOF 5
ENDMDL
MODEL       50
REMARK 921   NORMALIZED FREE ENERGY PREDICTED BY IDOCK:   -3.59 KCAL/MOL
REMARK 922        TOTAL FREE ENERGY PREDICTED BY IDOCK:   -5.66 KCAL/MOL
REMARK 923 INTER-LIGAND FREE ENERGY PREDICTED BY IDOCK:   -6.84 KCAL/MOL
REMARK 924 INTRA-LIGAND FREE ENERGY PREDICTED BY IDOCK:    1.18 KCAL/MOL
REMARK 927      BINDING AFFINITY PREDICTED BY RF-SCORE:    0.00 PKD
ROOT
HETATM    1  C   UNL     1     -12.166   9.565  71.221  1.00  0.00    -0.433 C  
HETATM    2  C   UNL     1     -11.815   8.502  70.195  1.00  0.00     0.306 C  
ENDROOT
BRANCH   2   3
HETATM    3  C   UNL     1     -10.997   9.050  69.048  1.00  0.00    -0.001 A  
HETATM    4  C   UNL     1     -10.903  10.417  68.867  1.00  0.00    -0.273 A  
HETATM    5  C   UNL     1     -11.439  11.502  69.737  1.00  0.00    -0.286 A  
HETATM    6  N   UNL     1     -11.076  12.701  69.005  1.00  0.00    -0.254 N  
HETATM    7  C   UNL     1     -10.400  12.415  67.831  1.00  0.00    -0.210 A  
HETATM    8  C   UNL     1     -10.013  13.426  67.040  1.00  0.00    -0.246 C  
HETATM    9  C   UNL     1     -10.267  10.940  67.746  1.00  0.00    -0.180 A  
HETATM   10  N   UNL     1      -9.709  10.194  66.772  1.00  0.00    -0.180 NA 
HETATM   11  C   UNL     1     -10.379  14.815  67.398  1.00  0.00    -0.242 C  
HETATM   12  C   UNL     1     -11.003  15.063  68.563  1.00  0.00    -0.259 C  
HETATM   13  C   UNL     1      -9.760   8.836  66.952  1.00  0.00    -0.210 A  
HETATM   14  C   UNL     1      -9.235   7.954  65.995  1.00  0.00    -0.162 A  
HETATM   15  C   UNL     1     -11.371  13.948  69.475  1.00  0.00    -0.237 C  
HETATM   16  C   UNL     1     -11.409  16.406  69.042  1.00  0.00    -0.253 C  
HETATM   17  C   UNL     1      -9.293   6.544  66.127  1.00  0.00    -0.101 A  
HETATM   18  O   UNL     1     -11.922  14.164  70.550  1.00  0.00    -0.302 OA 
HETATM   19  O   UNL     1     -11.270  17.461  68.080  1.00  0.00    -0.157 OA 
HETATM   20  C   UNL     1     -10.644  17.348  66.892  1.00  0.00    -0.216 C  
HETATM   21  C   UNL     1      -9.864   5.986  67.263  1.00  0.00    -0.136 A  
HETATM   22  C   UNL     1     -10.065  15.961  66.463  1.00  0.00    -0.282 C  
HETATM   23  H   UNL     1      -8.433  16.785  65.831  1.00  0.00     0.000 HD 
HETATM   24  O   UNL     1     -10.495  18.355  66.200  1.00  0.00    -0.422 OA 
HETATM   25  C   UNL     1     -10.322   6.835  68.261  1.00  0.00    -0.215 A  
HETATM   26  O   UNL     1      -8.630  16.065  66.418  1.00  0.00    -0.282 OA 
HETATM   27  C   UNL     1     -10.355   8.235  68.097  1.00  0.00    -0.253 A  
BRANCH  21  28
HETATM   28  O   UNL     1      -9.935   4.572  67.394  1.00  0.00    -0.177 OA 
BRANCH  28  29
HETATM   29  C   UNL     1      -8.751   3.803  67.332  1.00  0.00    -0.112 C  
HETATM   30  C   UNL     1      -7.197   1.493  69.577  1.00  0.00    -0.036 C  
HETATM   31  N   UNL     1      -8.190   3.492  68.566  1.00  0.00    -0.072 N  
HETATM   32  C   UNL     1      -6.991   2.656  68.611  1.00  0.00    -0.044 C  
HETATM   33  O   UNL     1      -8.250   3.405  66.282  1.00  0.00    -0.095 OA 
HETATM   34  C   UNL     1      -8.632   4.013  69.852  1.00  0.00    -0.065 C  
HETATM   35  C   UNL     1      -8.798   2.878  70.867  1.00  0.00    -0.144 C  
HETATM   36  C   UNL     1      -7.523   1.998  71.003  1.00  0.00    -0.033 C  
BRANCH  36  37
HETATM   37  N   UNL     1      -6.387   2.708  71.654  1.00  0.00    -0.015 NA 
HETATM   38  C   UNL     1      -6.752   4.023  72.221  1.00  0.00    -0.036 C  
HETATM   39  C   UNL     1      -7.656   3.937  73.454  1.00  0.00    -0.071 C  
HETATM   40  C   UNL     1      -7.042   3.053  74.536  1.00  0.00    -0.045 C  
HETATM   41  C   UNL     1      -6.574   1.718  73.964  1.00  0.00    -0.020 C  
HETATM   42  C   UNL     1      -5.710   1.932  72.717  1.00  0.00    -0.004 C  
ENDBRANCH  36  37
ENDBRANCH  28  29
ENDBRANCH  21  28
BRANCH  22  43
HETATM   43  C   UNL     1     -10.529  15.700  65.008  1.00  0.00    -0.364 C  
HETATM   44  C   UNL     1     -12.033  15.531  64.823  1.00  0.00    -0.026 C  
ENDBRANCH  22  43
ENDBRANCH   2   3
TORSDOF 5
ENDMDL
MODEL       51
REMARK 921   NORMALIZED FREE ENERGY PREDICTED BY IDOCK:   -3.39 KCAL/MOL
REMARK 922        TOTAL FREE ENERGY PREDICTED BY IDOCK:   -5.41 KCAL/MOL
REMARK 923 INTER-LIGAND FREE ENERGY PREDICTED BY IDOCK:   -4.99 KCAL/MOL
REMARK 924 INTRA-LIGAND FREE ENERGY PREDICTED BY IDOCK:   -0.42 KCAL/MOL
REMARK 927      BINDING AFFINITY PREDICTED BY RF-SCORE:    0.00 PKD
ROOT
HETATM    1  C   UNL     1     -11.198   9.916  69.608  1.00  0.00    -0.251 C  
HETATM    2  C   UNL     1      -9.877   9.668  68.902  1.00  0.00    -0.179 C  
ENDROOT
BRANCH   2   3
HETATM    3  C   UNL     1      -8.830  10.702  69.251  1.00  0.00    -0.092 A  
HETATM    4  C   UNL     1      -8.988  12.007  68.823  1.00  0.00     0.077 A  
HETATM    5  C   UNL     1     -10.149  12.609  68.109  1.00  0.00    -0.231 A  
HETATM    6  N   UNL     1      -9.708  13.973  67.886  1.00  0.00    -0.223 N  
HETATM    7  C   UNL     1      -8.441  14.205  68.393  1.00  0.00    -0.170 A  
HETATM    8  C   UNL     1      -7.895  15.421  68.248  1.00  0.00    -0.123 C  
HETATM    9  C   UNL     1      -7.978  12.942  69.018  1.00  0.00     0.308 A  
HETATM   10  N   UNL     1      -6.799  12.674  69.615  1.00  0.00     0.083 NA 
HETATM   11  C   UNL     1      -8.621  16.463  67.489  1.00  0.00    -0.185 C  
HETATM   12  C   UNL     1      -9.866  16.219  67.042  1.00  0.00    -0.247 C  
HETATM   13  C   UNL     1      -6.638  11.395  70.079  1.00  0.00    -0.031 A  
HETATM   14  C   UNL     1      -5.445  10.988  70.697  1.00  0.00    -0.124 A  
HETATM   15  C   UNL     1     -10.501  14.893  67.262  1.00  0.00    -0.263 C  
HETATM   16  C   UNL     1     -10.702  17.180  66.283  1.00  0.00    -0.079 C  
HETATM   17  C   UNL     1      -5.226   9.668  71.164  1.00  0.00    -0.050 A  
HETATM   18  O   UNL     1     -11.644  14.665  66.878  1.00  0.00    -0.361 OA 
HETATM   19  O   UNL     1     -10.025  18.374  65.864  1.00  0.00    -0.526 OA 
HETATM   20  C   UNL     1      -8.792  18.745  66.262  1.00  0.00    -0.233 C  
HETATM   21  C   UNL     1      -6.235   8.723  71.043  1.00  0.00    -0.047 A  
HETATM   22  C   UNL     1      -7.977  17.800  67.203  1.00  0.00    -0.212 C  
HETATM   23  H   UNL     1      -7.417  19.295  68.296  1.00  0.00     0.000 HD 
HETATM   24  O   UNL     1      -8.363  19.845  65.918  1.00  0.00    -0.347 OA 
HETATM   25  C   UNL     1      -7.453   9.117  70.507  1.00  0.00    -0.119 A  
HETATM   26  O   UNL     1      -7.822  18.455  68.476  1.00  0.00    -0.292 OA 
HETATM   27  C   UNL     1      -7.648  10.399  69.954  1.00  0.00    -0.112 A  
BRANCH  21  28
HETATM   28  O   UNL     1      -6.015   7.395  71.500  1.00  0.00    -0.036 OA 
BRANCH  28  29
HETATM   29  C   UNL     1      -7.108   6.510  71.637  1.00  0.00    -0.081 C  
HETATM   30  C   UNL     1      -8.146   3.586  69.860  1.00  0.00    -0.060 C  
HETATM   31  N   UNL     1      -7.492   5.868  70.465  1.00  0.00    -0.087 N  
HETATM   32  C   UNL     1      -8.582   4.894  70.513  1.00  0.00    -0.107 C  
HETATM   33  O   UNL     1      -7.677   6.289  72.704  1.00  0.00    -0.100 OA 
HETATM   34  C   UNL     1      -6.969   6.150  69.135  1.00  0.00    -0.068 C  
HETATM   35  C   UNL     1      -6.570   4.852  68.426  1.00  0.00    -0.049 C  
HETATM   36  C   UNL     1      -7.721   3.806  68.389  1.00  0.00    -0.061 C  
BRANCH  36  37
HETATM   37  N   UNL     1      -8.847   4.203  67.499  1.00  0.00    -0.108 NA 
HETATM   38  C   UNL     1      -8.417   4.665  66.163  1.00  0.00    -0.114 C  
HETATM   39  C   UNL     1      -7.854   3.553  65.274  1.00  0.00    -0.086 C  
HETATM   40  C   UNL     1      -8.840   2.396  65.135  1.00  0.00    -0.120 C  
HETATM   41  C   UNL     1      -9.371   1.952  66.496  1.00  0.00     0.108 C  
HETATM   42  C   UNL     1      -9.871   3.153  67.304  1.00  0.00     0.385 C  
ENDBRANCH  36  37
ENDBRANCH  28  29
ENDBRANCH  21  28
BRANCH  22  43
HETATM   43  C   UNL     1      -6.554  17.671  66.603  1.00  0.00    -0.243 C  
HETATM   44  C   UNL     1      -5.427  18.214  67.475  1.00  0.00    -0.141 C  
ENDBRANCH  22  43
ENDBRANCH   2   3
TORSDOF 5
ENDMDL
MODEL       52
REMARK 921   NORMALIZED FREE ENERGY PREDICTED BY IDOCK:   -2.72 KCAL/MOL
REMARK 922        TOTAL FREE ENERGY PREDICTED BY IDOCK:   -4.54 KCAL/MOL
REMARK 923 INTER-LIGAND FREE ENERGY PREDICTED BY IDOCK:   -5.35 KCAL/MOL
REMARK 924 INTRA-LIGAND FREE ENERGY PREDICTED BY IDOCK:    0.81 KCAL/MOL
REMARK 927      BINDING AFFINITY PREDICTED BY RF-SCORE:    0.00 PKD
ROOT
HETATM    1  C   UNL     1      -7.868   8.010  63.885  1.00  0.00    -0.142 C  
HETATM    2  C   UNL     1      -6.762   8.240  64.898  1.00  0.00    -0.067 C  
ENDROOT
BRANCH   2   3
HETATM    3  C   UNL     1      -7.284   8.753  66.221  1.00  0.00    -0.086 A  
HETATM    4  C   UNL     1      -7.970   9.952  66.266  1.00  0.00    -0.108 A  
HETATM    5  C   UNL     1      -8.382  10.823  65.131  1.00  0.00    -0.064 A  
HETATM    6  N   UNL     1      -9.007  11.945  65.804  1.00  0.00    -0.037 N  
HETATM    7  C   UNL     1      -8.995  11.804  67.181  1.00  0.00    -0.177 A  
HETATM    8  C   UNL     1      -9.526  12.774  67.940  1.00  0.00    -0.208 C  
HETATM    9  C   UNL     1      -8.343  10.507  67.486  1.00  0.00    -0.118 A  
HETATM   10  N   UNL     1      -8.079   9.951  68.686  1.00  0.00    -0.096 NA 
HETATM   11  C   UNL     1     -10.045  14.002  67.298  1.00  0.00    -0.249 C  
HETATM   12  C   UNL     1     -10.077  14.093  65.957  1.00  0.00    -0.330 C  
HETATM   13  C   UNL     1      -7.432   8.744  68.660  1.00  0.00    -0.092 A  
HETATM   14  C   UNL     1      -7.081   8.080  69.845  1.00  0.00    -0.057 A  
HETATM   15  C   UNL     1      -9.551  12.988  65.112  1.00  0.00     0.190 C  
HETATM   16  C   UNL     1     -10.583  15.260  65.194  1.00  0.00    -0.430 C  
HETATM   17  C   UNL     1      -6.385   6.845  69.864  1.00  0.00    -0.039 A  
HETATM   18  O   UNL     1      -9.595  13.050  63.887  1.00  0.00     0.056 OA 
HETATM   19  O   UNL     1     -10.879  16.420  65.986  1.00  0.00    -0.225 OA 
HETATM   20  C   UNL     1     -10.907  16.451  67.333  1.00  0.00    -0.219 C  
HETATM   21  C   UNL     1      -6.051   6.229  68.665  1.00  0.00    -0.028 A  
HETATM   22  C   UNL     1     -10.534  15.163  68.134  1.00  0.00    -0.245 C  
HETATM   23  H   UNL     1     -12.020  15.429  69.344  1.00  0.00     0.000 HD 
HETATM   24  O   UNL     1     -11.281  17.479  67.895  1.00  0.00    -0.129 OA 
HETATM   25  C   UNL     1      -6.454   6.826  67.478  1.00  0.00    -0.046 A  
HETATM   26  O   UNL     1     -11.712  14.699  68.819  1.00  0.00    -0.299 OA 
HETATM   27  C   UNL     1      -7.061   8.097  67.447  1.00  0.00    -0.083 A  
BRANCH  21  28
HETATM   28  O   UNL     1      -5.343   4.997  68.679  1.00  0.00    -0.003 OA 
BRANCH  28  29
HETATM   29  C   UNL     1      -6.031   3.790  68.416  1.00  0.00    -0.027 C  
HETATM   30  C   UNL     1      -9.206   2.494  69.429  1.00  0.00    -0.194 C  
HETATM   31  N   UNL     1      -6.930   3.401  69.402  1.00  0.00    -0.041 N  
HETATM   32  C   UNL     1      -7.727   2.192  69.200  1.00  0.00    -0.042 C  
HETATM   33  O   UNL     1      -5.880   3.130  67.390  1.00  0.00    -0.022 OA 
HETATM   34  C   UNL     1      -7.091   4.041  70.701  1.00  0.00    -0.037 C  
HETATM   35  C   UNL     1      -8.570   4.311  70.990  1.00  0.00    -0.115 C  
HETATM   36  C   UNL     1      -9.454   3.038  70.856  1.00  0.00    -0.159 C  
BRANCH  36  37
HETATM   37  N   UNL     1      -9.202   2.033  71.925  1.00  0.00    -0.082 NA 
HETATM   38  C   UNL     1      -8.338   2.527  73.017  1.00  0.00    -0.070 C  
HETATM   39  C   UNL     1      -9.001   3.587  73.902  1.00  0.00    -0.088 C  
HETATM   40  C   UNL     1     -10.328   3.088  74.470  1.00  0.00    -0.216 C  
HETATM   41  C   UNL     1     -11.210   2.490  73.378  1.00  0.00    -0.276 C  
HETATM   42  C   UNL     1     -10.427   1.475  72.540  1.00  0.00    -0.157 C  
ENDBRANCH  36  37
ENDBRANCH  28  29
ENDBRANCH  21  28
BRANCH  22  43
HETATM   43  C   UNL     1      -9.528  15.582  69.235  1.00  0.00    -0.263 C  
HETATM   44  C   UNL     1      -8.244  16.232  68.732  1.00  0.00    -0.227 C  
ENDBRANCH  22  43
ENDBRANCH   2   3
TORSDOF 5
ENDMDL
MODEL       53
REMARK 921   NORMALIZED FREE ENERGY PREDICTED BY IDOCK:   -2.67 KCAL/MOL
REMARK 922        TOTAL FREE ENERGY PREDICTED BY IDOCK:   -4.48 KCAL/MOL
REMARK 923 INTER-LIGAND FREE ENERGY PREDICTED BY IDOCK:   -5.80 KCAL/MOL
REMARK 924 INTRA-LIGAND FREE ENERGY PREDICTED BY IDOCK:    1.32 KCAL/MOL
REMARK 927      BINDING AFFINITY PREDICTED BY RF-SCORE:    0.00 PKD
ROOT
HETATM    1  C   UNL     1     -11.301  10.508  68.342  1.00  0.00    -0.328 C  
HETATM    2  C   UNL     1     -10.169   9.800  69.064  1.00  0.00    -0.214 C  
ENDROOT
BRANCH   2   3
HETATM    3  C   UNL     1      -8.958   9.594  68.183  1.00  0.00    -0.123 A  
HETATM    4  C   UNL     1      -8.852   8.443  67.425  1.00  0.00    -0.140 A  
HETATM    5  C   UNL     1      -9.853   7.352  67.258  1.00  0.00    -0.175 A  
HETATM    6  N   UNL     1      -9.155   6.412  66.402  1.00  0.00    -0.152 N  
HETATM    7  C   UNL     1      -7.884   6.848  66.069  1.00  0.00    -0.104 A  
HETATM    8  C   UNL     1      -7.113   6.074  65.292  1.00  0.00    -0.065 C  
HETATM    9  C   UNL     1      -7.689   8.172  66.711  1.00  0.00    -0.095 A  
HETATM   10  N   UNL     1      -6.603   8.970  66.695  1.00  0.00    -0.067 NA 
HETATM   11  C   UNL     1      -7.604   4.743  64.871  1.00  0.00    -0.077 C  
HETATM   12  C   UNL     1      -8.856   4.363  65.180  1.00  0.00    -0.138 C  
HETATM   13  C   UNL     1      -6.703  10.134  67.412  1.00  0.00    -0.073 A  
HETATM   14  C   UNL     1      -5.630  11.035  67.491  1.00  0.00    -0.045 A  
HETATM   15  C   UNL     1      -9.738   5.251  65.983  1.00  0.00    -0.139 C  
HETATM   16  C   UNL     1      -9.470   3.066  64.806  1.00  0.00    -0.143 C  
HETATM   17  C   UNL     1      -5.680  12.234  68.245  1.00  0.00    -0.057 A  
HETATM   18  O   UNL     1     -10.890   4.925  66.253  1.00  0.00    -0.259 OA 
HETATM   19  O   UNL     1      -8.565   2.110  64.234  1.00  0.00    -0.085 OA 
HETATM   20  C   UNL     1      -7.298   2.372  63.857  1.00  0.00    -0.057 C  
HETATM   21  C   UNL     1      -6.846  12.570  68.920  1.00  0.00    -0.098 A  
HETATM   22  C   UNL     1      -6.708   3.798  64.101  1.00  0.00    -0.044 C  
HETATM   23  H   UNL     1      -5.912   3.822  62.338  1.00  0.00     0.000 HD 
HETATM   24  O   UNL     1      -6.657   1.495  63.278  1.00  0.00    -0.013 OA 
HETATM   25  C   UNL     1      -7.948  11.736  68.796  1.00  0.00    -0.063 A  
HETATM   26  O   UNL     1      -6.475   4.416  62.822  1.00  0.00    -0.025 OA 
HETATM   27  C   UNL     1      -7.879  10.497  68.128  1.00  0.00    -0.109 A  
BRANCH  21  28
HETATM   28  O   UNL     1      -6.896  13.766  69.686  1.00  0.00    -0.064 OA 
BRANCH  28  29
HETATM   29  C   UNL     1      -7.010  15.014  69.031  1.00  0.00    -0.127 C  
HETATM   30  C   UNL     1      -9.687  16.665  67.329  1.00  0.00    -0.245 C  
HETATM   31  N   UNL     1      -7.970  15.062  68.027  1.00  0.00    -0.124 N  
HETATM   32  C   UNL     1      -8.199  16.324  67.323  1.00  0.00    -0.172 C  
HETATM   33  O   UNL     1      -6.341  16.002  69.326  1.00  0.00    -0.138 OA 
HETATM   34  C   UNL     1      -8.722  13.923  67.519  1.00  0.00    -0.193 C  
HETATM   35  C   UNL     1     -10.218  14.248  67.459  1.00  0.00    -0.240 C  
HETATM   36  C   UNL     1     -10.522  15.547  66.661  1.00  0.00    -0.299 C  
BRANCH  36  37
HETATM   37  N   UNL     1     -10.269  15.412  65.200  1.00  0.00    -0.354 NA 
HETATM   38  C   UNL     1     -10.083  14.016  64.754  1.00  0.00    -0.190 C  
HETATM   39  C   UNL     1     -11.361  13.172  64.806  1.00  0.00    -0.352 C  
HETATM   40  C   UNL     1     -12.494  13.826  64.020  1.00  0.00    -0.280 C  
HETATM   41  C   UNL     1     -12.655  15.297  64.395  1.00  0.00     0.134 C  
HETATM   42  C   UNL     1     -11.308  16.024  64.341  1.00  0.00    -0.245 C  
ENDBRANCH  36  37
ENDBRANCH  28  29
ENDBRANCH  21  28
BRANCH  22  43
HETATM   43  C   UNL     1      -5.317   3.614  64.756  1.00  0.00    -0.009 C  
HETATM   44  C   UNL     1      -5.328   2.977  66.142  1.00  0.00    -0.012 C  
ENDBRANCH  22  43
ENDBRANCH   2   3
TORSDOF 5
ENDMDL
MODEL       54
REMARK 921   NORMALIZED FREE ENERGY PREDICTED BY IDOCK:   -2.39 KCAL/MOL
REMARK 922        TOTAL FREE ENERGY PREDICTED BY IDOCK:   -4.12 KCAL/MOL
REMARK 923 INTER-LIGAND FREE ENERGY PREDICTED BY IDOCK:   -5.67 KCAL/MOL
REMARK 924 INTRA-LIGAND FREE ENERGY PREDICTED BY IDOCK:    1.56 KCAL/MOL
REMARK 927      BINDING AFFINITY PREDICTED BY RF-SCORE:    0.00 PKD
ROOT
HETATM    1  C   UNL     1     -11.169  11.344  68.234  1.00  0.00    -0.326 C  
HETATM    2  C   UNL     1     -10.152  10.681  69.145  1.00  0.00    -0.234 C  
ENDROOT
BRANCH   2   3
HETATM    3  C   UNL     1      -8.884  10.297  68.417  1.00  0.00    -0.129 A  
HETATM    4  C   UNL     1      -8.792   9.058  67.810  1.00  0.00    -0.125 A  
HETATM    5  C   UNL     1      -9.848   8.017  67.674  1.00  0.00    -0.167 A  
HETATM    6  N   UNL     1      -9.144   6.939  67.005  1.00  0.00    -0.132 N  
HETATM    7  C   UNL     1      -7.821   7.256  66.749  1.00  0.00    -0.113 A  
HETATM    8  C   UNL     1      -7.039   6.348  66.146  1.00  0.00    -0.067 C  
HETATM    9  C   UNL     1      -7.591   8.633  67.250  1.00  0.00    -0.093 A  
HETATM   10  N   UNL     1      -6.455   9.358  67.248  1.00  0.00    -0.069 NA 
HETATM   11  C   UNL     1      -7.583   5.008  65.835  1.00  0.00    -0.090 C  
HETATM   12  C   UNL     1      -8.882   4.744  66.061  1.00  0.00    -0.123 C  
HETATM   13  C   UNL     1      -6.536  10.604  67.813  1.00  0.00    -0.060 A  
HETATM   14  C   UNL     1      -5.413  11.442  67.893  1.00  0.00    -0.044 A  
HETATM   15  C   UNL     1      -9.768   5.773  66.666  1.00  0.00    -0.157 C  
HETATM   16  C   UNL     1      -9.550   3.449  65.782  1.00  0.00    -0.067 C  
HETATM   17  C   UNL     1      -5.446  12.725  68.494  1.00  0.00    -0.062 A  
HETATM   18  O   UNL     1     -10.959   5.552  66.858  1.00  0.00    -0.212 OA 
HETATM   19  O   UNL     1      -8.667   2.379  65.415  1.00  0.00    -0.108 OA 
HETATM   20  C   UNL     1      -7.356   2.517  65.136  1.00  0.00    -0.063 C  
HETATM   21  C   UNL     1      -6.641  13.210  69.008  1.00  0.00    -0.105 A  
HETATM   22  C   UNL     1      -6.691   3.925  65.271  1.00  0.00    -0.048 C  
HETATM   23  H   UNL     1      -5.739   3.686  63.604  1.00  0.00     0.000 HD 
HETATM   24  O   UNL     1      -6.729   1.540  64.728  1.00  0.00    -0.025 OA 
HETATM   25  C   UNL     1      -7.784  12.434  68.874  1.00  0.00     0.072 A  
HETATM   26  O   UNL     1      -6.300   4.367  63.958  1.00  0.00    -0.031 OA 
HETATM   27  C   UNL     1      -7.743  11.121  68.364  1.00  0.00    -0.125 A  
BRANCH  21  28
HETATM   28  O   UNL     1      -6.676  14.491  69.623  1.00  0.00    -0.142 OA 
BRANCH  28  29
HETATM   29  C   UNL     1      -6.760  15.651  68.820  1.00  0.00    -0.116 C  
HETATM   30  C   UNL     1      -9.436  17.231  67.051  1.00  0.00    -0.264 C  
HETATM   31  N   UNL     1      -7.770  15.630  67.865  1.00  0.00    -0.126 N  
HETATM   32  C   UNL     1      -7.971  16.805  67.017  1.00  0.00    -0.197 C  
HETATM   33  O   UNL     1      -6.025  16.628  68.954  1.00  0.00    -0.140 OA 
HETATM   34  C   UNL     1      -8.608  14.482  67.543  1.00  0.00    -0.189 C  
HETATM   35  C   UNL     1     -10.085  14.884  67.514  1.00  0.00    -0.228 C  
HETATM   36  C   UNL     1     -10.365  16.090  66.572  1.00  0.00    -0.299 C  
BRANCH  36  37
HETATM   37  N   UNL     1     -10.200  15.758  65.129  1.00  0.00    -0.468 NA 
HETATM   38  C   UNL     1      -9.922  14.329  64.874  1.00  0.00    -0.099 C  
HETATM   39  C   UNL     1     -11.114  13.407  65.148  1.00  0.00    -0.315 C  
HETATM   40  C   UNL     1     -12.350  13.847  64.369  1.00  0.00    -0.400 C  
HETATM   41  C   UNL     1     -12.614  15.340  64.541  1.00  0.00     0.136 C  
HETATM   42  C   UNL     1     -11.343  16.152  64.277  1.00  0.00    -0.088 C  
ENDBRANCH  36  37
ENDBRANCH  28  29
ENDBRANCH  21  28
BRANCH  22  43
HETATM   43  C   UNL     1      -5.381   3.739  66.076  1.00  0.00    -0.013 C  
HETATM   44  C   UNL     1      -5.564   3.342  67.537  1.00  0.00    -0.021 C  
ENDBRANCH  22  43
ENDBRANCH   2   3
TORSDOF 5
ENDMDL
MODEL       55
REMARK 921   NORMALIZED FREE ENERGY PREDICTED BY IDOCK:   -2.36 KCAL/MOL
REMARK 922        TOTAL FREE ENERGY PREDICTED BY IDOCK:   -4.07 KCAL/MOL
REMARK 923 INTER-LIGAND FREE ENERGY PREDICTED BY IDOCK:   -5.96 KCAL/MOL
REMARK 924 INTRA-LIGAND FREE ENERGY PREDICTED BY IDOCK:    1.89 KCAL/MOL
REMARK 927      BINDING AFFINITY PREDICTED BY RF-SCORE:    0.00 PKD
ROOT
HETATM    1  C   UNL     1      -9.057  10.890  65.844  1.00  0.00    -0.212 C  
HETATM    2  C   UNL     1      -7.638  10.404  66.076  1.00  0.00    -0.137 C  
ENDROOT
BRANCH   2   3
HETATM    3  C   UNL     1      -7.260  10.393  67.539  1.00  0.00    -0.087 A  
HETATM    4  C   UNL     1      -7.634   9.325  68.334  1.00  0.00    -0.086 A  
HETATM    5  C   UNL     1      -8.312   8.063  67.925  1.00  0.00    -0.129 A  
HETATM    6  N   UNL     1      -8.485   7.374  69.190  1.00  0.00    -0.132 N  
HETATM    7  C   UNL     1      -7.983   8.100  70.256  1.00  0.00    -0.103 A  
HETATM    8  C   UNL     1      -8.085   7.594  71.493  1.00  0.00    -0.102 C  
HETATM    9  C   UNL     1      -7.413   9.354  69.707  1.00  0.00    -0.087 A  
HETATM   10  N   UNL     1      -6.839  10.383  70.362  1.00  0.00    -0.288 NA 
HETATM   11  C   UNL     1      -8.795   6.312  71.702  1.00  0.00    -0.138 C  
HETATM   12  C   UNL     1      -9.239   5.613  70.642  1.00  0.00    -0.176 C  
HETATM   13  C   UNL     1      -6.428  11.435  69.586  1.00  0.00    -0.133 A  
HETATM   14  C   UNL     1      -5.839  12.575  70.156  1.00  0.00    -0.160 A  
HETATM   15  C   UNL     1      -9.064   6.140  69.263  1.00  0.00    -0.129 C  
HETATM   16  C   UNL     1      -9.950   4.314  70.716  1.00  0.00    -0.154 C  
HETATM   17  C   UNL     1      -5.427  13.696  69.394  1.00  0.00    -0.085 A  
HETATM   18  O   UNL     1      -9.446   5.502  68.287  1.00  0.00    -0.109 OA 
HETATM   19  O   UNL     1     -10.329   3.904  72.039  1.00  0.00    -0.140 OA 
HETATM   20  C   UNL     1      -9.929   4.502  73.178  1.00  0.00    -0.144 C  
HETATM   21  C   UNL     1      -5.574  13.678  68.014  1.00  0.00    -0.125 A  
HETATM   22  C   UNL     1      -9.035   5.781  73.097  1.00  0.00    -0.124 C  
HETATM   23  H   UNL     1      -7.890   5.127  74.513  1.00  0.00     0.000 HD 
HETATM   24  O   UNL     1     -10.234   3.991  74.255  1.00  0.00    -0.153 OA 
HETATM   25  C   UNL     1      -6.082  12.533  67.416  1.00  0.00    -0.155 A  
HETATM   26  O   UNL     1      -7.739   5.461  73.636  1.00  0.00    -0.101 OA 
HETATM   27  C   UNL     1      -6.581  11.452  68.171  1.00  0.00    -0.057 A  
BRANCH  21  28
HETATM   28  O   UNL     1      -5.172  14.805  67.247  1.00  0.00    -0.296 OA 
BRANCH  28  29
HETATM   29  C   UNL     1      -5.828  16.045  67.426  1.00  0.00    -0.107 C  
HETATM   30  C   UNL     1      -8.688  17.066  69.314  1.00  0.00     0.111 C  
HETATM   31  N   UNL     1      -7.180  15.952  67.737  1.00  0.00    -0.135 N  
HETATM   32  C   UNL     1      -7.937  17.178  67.991  1.00  0.00    -0.212 C  
HETATM   33  O   UNL     1      -5.263  17.133  67.343  1.00  0.00    -0.111 OA 
HETATM   34  C   UNL     1      -7.967  14.726  67.737  1.00  0.00    -0.157 C  
HETATM   35  C   UNL     1      -8.779  14.606  69.030  1.00  0.00    -0.097 C  
HETATM   36  C   UNL     1      -9.656  15.859  69.311  1.00  0.00    -0.266 C  
BRANCH  36  37
HETATM   37  N   UNL     1     -10.788  16.010  68.355  1.00  0.00    -0.294 NA 
HETATM   38  C   UNL     1     -10.830  14.965  67.311  1.00  0.00    -0.306 C  
HETATM   39  C   UNL     1     -11.207  13.577  67.838  1.00  0.00    -0.302 C  
HETATM   40  C   UNL     1     -12.530  13.609  68.600  1.00  0.00     0.254 C  
HETATM   41  C   UNL     1     -12.552  14.737  69.628  1.00  0.00    -0.097 C  
HETATM   42  C   UNL     1     -12.123  16.062  68.993  1.00  0.00    -0.014 C  
ENDBRANCH  36  37
ENDBRANCH  28  29
ENDBRANCH  21  28
BRANCH  22  43
HETATM   43  C   UNL     1      -9.654   6.836  74.049  1.00  0.00    -0.278 C  
HETATM   44  C   UNL     1     -10.858   7.589  73.493  1.00  0.00    -0.213 C  
ENDBRANCH  22  43
ENDBRANCH   2   3
TORSDOF 5
ENDMDL
MODEL       56
REMARK 921   NORMALIZED FREE ENERGY PREDICTED BY IDOCK:   -2.11 KCAL/MOL
REMARK 922        TOTAL FREE ENERGY PREDICTED BY IDOCK:   -3.76 KCAL/MOL
REMARK 923 INTER-LIGAND FREE ENERGY PREDICTED BY IDOCK:   -3.87 KCAL/MOL
REMARK 924 INTRA-LIGAND FREE ENERGY PREDICTED BY IDOCK:    0.11 KCAL/MOL
REMARK 927      BINDING AFFINITY PREDICTED BY RF-SCORE:    0.00 PKD
ROOT
HETATM    1  C   UNL     1     -10.570   7.267  67.799  1.00  0.00    -0.289 C  
HETATM    2  C   UNL     1     -10.333   8.308  66.720  1.00  0.00    -0.361 C  
ENDROOT
BRANCH   2   3
HETATM    3  C   UNL     1      -9.681   9.561  67.257  1.00  0.00    -0.215 A  
HETATM    4  C   UNL     1     -10.336  10.319  68.209  1.00  0.00    -0.209 A  
HETATM    5  C   UNL     1     -11.622  10.021  68.900  1.00  0.00     0.093 A  
HETATM    6  N   UNL     1     -11.813  11.195  69.731  1.00  0.00    -0.317 N  
HETATM    7  C   UNL     1     -10.786  12.112  69.587  1.00  0.00     0.246 A  
HETATM    8  C   UNL     1     -10.834  13.257  70.284  1.00  0.00     1.169 C  
HETATM    9  C   UNL     1      -9.817  11.542  68.620  1.00  0.00    -0.177 A  
HETATM   10  N   UNL     1      -8.676  12.081  68.145  1.00  0.00    -0.173 NA 
HETATM   11  C   UNL     1     -12.012  13.549  71.130  1.00  0.00     0.020 C  
HETATM   12  C   UNL     1     -12.975  12.622  71.278  1.00  0.00    -0.306 C  
HETATM   13  C   UNL     1      -7.993  11.328  67.226  1.00  0.00    -0.141 A  
HETATM   14  C   UNL     1      -6.805  11.793  66.642  1.00  0.00     0.020 A  
HETATM   15  C   UNL     1     -12.890  11.323  70.560  1.00  0.00    -0.085 C  
HETATM   16  C   UNL     1     -14.195  12.786  72.105  1.00  0.00     0.241 C  
HETATM   17  C   UNL     1      -6.083  11.060  65.667  1.00  0.00     0.032 A  
HETATM   18  O   UNL     1     -13.752  10.461  70.703  1.00  0.00     0.074 OA 
HETATM   19  O   UNL     1     -14.407  14.109  72.618  1.00  0.00    -0.555 OA 
HETATM   20  C   UNL     1     -13.513  15.115  72.558  1.00  0.00    -0.464 C  
HETATM   21  C   UNL     1      -6.537   9.807  65.278  1.00  0.00    -0.098 A  
HETATM   22  C   UNL     1     -12.151  14.883  71.827  1.00  0.00    -0.360 C  
HETATM   23  H   UNL     1     -11.184  15.778  73.244  1.00  0.00     0.000 HD 
HETATM   24  O   UNL     1     -13.770  16.173  73.130  1.00  0.00    -0.564 OA 
HETATM   25  C   UNL     1      -7.666   9.289  65.896  1.00  0.00    -0.098 A  
HETATM   26  O   UNL     1     -11.097  14.939  72.806  1.00  0.00     0.114 OA 
HETATM   27  C   UNL     1      -8.442  10.048  66.796  1.00  0.00    -0.125 A  
BRANCH  21  28
HETATM   28  O   UNL     1      -5.822   9.073  64.292  1.00  0.00    -0.068 OA 
BRANCH  28  29
HETATM   29  C   UNL     1      -6.494   8.101  63.518  1.00  0.00    -0.072 C  
HETATM   30  C   UNL     1      -8.536   5.282  64.336  1.00  0.00    -0.093 C  
HETATM   31  N   UNL     1      -6.687   6.878  64.151  1.00  0.00    -0.044 N  
HETATM   32  C   UNL     1      -7.417   5.822  63.451  1.00  0.00    -0.068 C  
HETATM   33  O   UNL     1      -6.908   8.304  62.378  1.00  0.00    -0.090 OA 
HETATM   34  C   UNL     1      -6.131   6.497  65.443  1.00  0.00    -0.034 C  
HETATM   35  C   UNL     1      -7.217   5.899  66.342  1.00  0.00    -0.077 C  
HETATM   36  C   UNL     1      -7.979   4.723  65.667  1.00  0.00    -0.099 C  
BRANCH  36  37
HETATM   37  N   UNL     1      -7.142   3.503  65.494  1.00  0.00    -0.064 NA 
HETATM   38  C   UNL     1      -6.089   3.352  66.519  1.00  0.00    -0.024 C  
HETATM   39  C   UNL     1      -6.626   3.019  67.915  1.00  0.00    -0.037 C  
HETATM   40  C   UNL     1      -7.515   1.778  67.890  1.00  0.00    -0.054 C  
HETATM   41  C   UNL     1      -8.560   1.865  66.781  1.00  0.00    -0.115 C  
HETATM   42  C   UNL     1      -7.909   2.238  65.446  1.00  0.00    -0.077 C  
ENDBRANCH  36  37
ENDBRANCH  28  29
ENDBRANCH  21  28
BRANCH  22  43
HETATM   43  C   UNL     1     -11.928  16.088  70.878  1.00  0.00    -0.376 C  
HETATM   44  C   UNL     1     -12.366  15.870  69.434  1.00  0.00     0.049 C  
ENDBRANCH  22  43
ENDBRANCH   2   3
TORSDOF 5
ENDMDL
MODEL       57
REMARK 921   NORMALIZED FREE ENERGY PREDICTED BY IDOCK:   -2.00 KCAL/MOL
REMARK 922        TOTAL FREE ENERGY PREDICTED BY IDOCK:   -3.62 KCAL/MOL
REMARK 923 INTER-LIGAND FREE ENERGY PREDICTED BY IDOCK:   -4.44 KCAL/MOL
REMARK 924 INTRA-LIGAND FREE ENERGY PREDICTED BY IDOCK:    0.82 KCAL/MOL
REMARK 927      BINDING AFFINITY PREDICTED BY RF-SCORE:    0.00 PKD
ROOT
HETATM    1  C   UNL     1     -10.833  11.799  69.073  1.00  0.00    -0.239 C  
HETATM    2  C   UNL     1     -10.249  10.554  68.430  1.00  0.00    -0.192 C  
ENDROOT
BRANCH   2   3
HETATM    3  C   UNL     1      -9.022  10.049  69.154  1.00  0.00    -0.172 A  
HETATM    4  C   UNL     1      -9.041   8.796  69.738  1.00  0.00    -0.151 A  
HETATM    5  C   UNL     1     -10.116   7.766  69.678  1.00  0.00    -0.196 A  
HETATM    6  N   UNL     1      -9.585   6.707  70.517  1.00  0.00    -0.169 N  
HETATM    7  C   UNL     1      -8.342   7.022  71.036  1.00  0.00    -0.125 A  
HETATM    8  C   UNL     1      -7.732   6.143  71.844  1.00  0.00    -0.097 C  
HETATM    9  C   UNL     1      -7.974   8.364  70.519  1.00  0.00    -0.098 A  
HETATM   10  N   UNL     1      -6.871   9.097  70.772  1.00  0.00    -0.077 NA 
HETATM   11  C   UNL     1      -8.428   4.894  72.222  1.00  0.00    -0.123 C  
HETATM   12  C   UNL     1      -9.619   4.599  71.671  1.00  0.00    -0.221 C  
HETATM   13  C   UNL     1      -6.818  10.328  70.172  1.00  0.00    -0.151 A  
HETATM   14  C   UNL     1      -5.733  11.193  70.378  1.00  0.00    -0.137 A  
HETATM   15  C   UNL     1     -10.266   5.542  70.721  1.00  0.00    -0.235 C  
HETATM   16  C   UNL     1     -10.410   3.377  71.956  1.00  0.00     0.042 C  
HETATM   17  C   UNL     1      -5.652  12.485  69.802  1.00  0.00    -0.102 A  
HETATM   18  O   UNL     1     -11.342   5.275  70.196  1.00  0.00     0.355 OA 
HETATM   19  O   UNL     1      -9.915   2.572  73.036  1.00  0.00    -0.106 OA 
HETATM   20  C   UNL     1      -8.729   2.746  73.651  1.00  0.00    -0.072 C  
HETATM   21  C   UNL     1      -6.667  12.926  68.965  1.00  0.00    -0.095 A  
HETATM   22  C   UNL     1      -7.818   3.944  73.228  1.00  0.00    -0.083 C  
HETATM   23  H   UNL     1      -6.247   2.817  73.247  1.00  0.00     0.000 HD 
HETATM   24  O   UNL     1      -8.369   1.923  74.491  1.00  0.00    -0.055 OA 
HETATM   25  C   UNL     1      -7.716  12.062  68.681  1.00  0.00    -0.099 A  
HETATM   26  O   UNL     1      -6.630   3.413  72.615  1.00  0.00    -0.020 OA 
HETATM   27  C   UNL     1      -7.853  10.814  69.323  1.00  0.00    -0.124 A  
BRANCH  21  28
HETATM   28  O   UNL     1      -6.595  14.226  68.393  1.00  0.00    -0.089 OA 
BRANCH  28  29
HETATM   29  C   UNL     1      -7.347  15.282  68.957  1.00  0.00    -0.157 C  
HETATM   30  C   UNL     1      -8.820  18.248  67.607  1.00  0.00    -0.261 C  
HETATM   31  N   UNL     1      -7.248  16.494  68.284  1.00  0.00    -0.154 N  
HETATM   32  C   UNL     1      -8.027  17.637  68.760  1.00  0.00    -0.244 C  
HETATM   33  O   UNL     1      -8.060  15.157  69.951  1.00  0.00    -0.114 OA 
HETATM   34  C   UNL     1      -6.341  16.778  67.179  1.00  0.00    -0.188 C  
HETATM   35  C   UNL     1      -7.092  17.443  66.022  1.00  0.00    -0.259 C  
HETATM   36  C   UNL     1      -7.885  18.707  66.463  1.00  0.00    -0.268 C  
BRANCH  36  37
HETATM   37  N   UNL     1      -7.006  19.850  66.839  1.00  0.00    -0.208 NA 
HETATM   38  C   UNL     1      -5.578  19.631  66.527  1.00  0.00    -0.168 C  
HETATM   39  C   UNL     1      -5.265  19.633  65.028  1.00  0.00    -0.185 C  
HETATM   40  C   UNL     1      -5.758  20.911  64.355  1.00  0.00    -0.288 C  
HETATM   41  C   UNL     1      -7.207  21.213  64.729  1.00  0.00     0.641 C  
HETATM   42  C   UNL     1      -7.403  21.146  66.246  1.00  0.00     0.390 C  
ENDBRANCH  36  37
ENDBRANCH  28  29
ENDBRANCH  21  28
BRANCH  22  43
HETATM   43  C   UNL     1      -7.359   4.652  74.528  1.00  0.00    -0.077 C  
HETATM   44  C   UNL     1      -6.158   5.580  74.376  1.00  0.00    -0.063 C  
ENDBRANCH  22  43
ENDBRANCH   2   3
TORSDOF 5
ENDMDL
MODEL       58
REMARK 921   NORMALIZED FREE ENERGY PREDICTED BY IDOCK:   -1.80 KCAL/MOL
REMARK 922        TOTAL FREE ENERGY PREDICTED BY IDOCK:   -3.35 KCAL/MOL
REMARK 923 INTER-LIGAND FREE ENERGY PREDICTED BY IDOCK:   -5.79 KCAL/MOL
REMARK 924 INTRA-LIGAND FREE ENERGY PREDICTED BY IDOCK:    2.44 KCAL/MOL
REMARK 927      BINDING AFFINITY PREDICTED BY RF-SCORE:    0.00 PKD
ROOT
HETATM    1  C   UNL     1     -11.039  11.772  69.746  1.00  0.00    -0.066 C  
HETATM    2  C   UNL     1     -10.517  10.567  68.986  1.00  0.00    -0.238 C  
ENDROOT
BRANCH   2   3
HETATM    3  C   UNL     1      -9.208  10.054  69.538  1.00  0.00    -0.238 A  
HETATM    4  C   UNL     1      -9.144   8.781  70.075  1.00  0.00    -0.164 A  
HETATM    5  C   UNL     1     -10.207   7.739  70.107  1.00  0.00    -0.205 A  
HETATM    6  N   UNL     1      -9.569   6.659  70.837  1.00  0.00    -0.175 N  
HETATM    7  C   UNL     1      -8.275   6.974  71.214  1.00  0.00    -0.113 A  
HETATM    8  C   UNL     1      -7.564   6.076  71.911  1.00  0.00    -0.097 C  
HETATM    9  C   UNL     1      -7.986   8.337  70.706  1.00  0.00    -0.100 A  
HETATM   10  N   UNL     1      -6.868   9.077  70.851  1.00  0.00    -0.078 NA 
HETATM   11  C   UNL     1      -8.197   4.804  72.324  1.00  0.00    -0.115 C  
HETATM   12  C   UNL     1      -9.443   4.512  71.910  1.00  0.00    -0.201 C  
HETATM   13  C   UNL     1      -6.900  10.329  70.294  1.00  0.00    -0.141 A  
HETATM   14  C   UNL     1      -5.806  11.201  70.400  1.00  0.00    -0.145 A  
HETATM   15  C   UNL     1     -10.209   5.478  71.079  1.00  0.00    -0.223 C  
HETATM   16  C   UNL     1     -10.182   3.270  72.243  1.00  0.00    -0.102 C  
HETATM   17  C   UNL     1      -5.808  12.514  69.864  1.00  0.00    -0.134 A  
HETATM   18  O   UNL     1     -11.338   5.214  70.678  1.00  0.00     0.385 OA 
HETATM   19  O   UNL     1      -9.552   2.435  73.226  1.00  0.00    -0.086 OA 
HETATM   20  C   UNL     1      -8.303   2.604  73.700  1.00  0.00    -0.068 C  
HETATM   21  C   UNL     1      -6.922  12.969  69.172  1.00  0.00    -0.020 A  
HETATM   22  C   UNL     1      -7.461   3.829  73.215  1.00  0.00    -0.069 C  
HETATM   23  H   UNL     1      -5.888   2.724  73.004  1.00  0.00     0.000 HD 
HETATM   24  O   UNL     1      -7.836   1.757  74.461  1.00  0.00    -0.036 OA 
HETATM   25  C   UNL     1      -7.988  12.101  68.986  1.00  0.00     0.208 A  
HETATM   26  O   UNL     1      -6.350   3.337  72.444  1.00  0.00    -0.013 OA 
HETATM   27  C   UNL     1      -8.034  10.830  69.594  1.00  0.00     0.065 A  
BRANCH  21  28
HETATM   28  O   UNL     1      -6.932  14.289  68.644  1.00  0.00    -0.092 OA 
BRANCH  28  29
HETATM   29  C   UNL     1      -8.116  15.057  68.700  1.00  0.00    -0.153 C  
HETATM   30  C   UNL     1     -11.527  14.389  67.858  1.00  0.00    -0.346 C  
HETATM   31  N   UNL     1      -9.097  14.691  67.785  1.00  0.00    -0.187 N  
HETATM   32  C   UNL     1     -10.379  15.393  67.797  1.00  0.00    -0.253 C  
HETATM   33  O   UNL     1      -8.300  15.970  69.504  1.00  0.00    -0.199 OA 
HETATM   34  C   UNL     1      -8.934  13.714  66.716  1.00  0.00    -0.181 C  
HETATM   35  C   UNL     1     -10.098  12.720  66.711  1.00  0.00    -0.239 C  
HETATM   36  C   UNL     1     -11.488  13.417  66.655  1.00  0.00    -0.344 C  
BRANCH  36  37
HETATM   37  N   UNL     1     -11.760  14.079  65.349  1.00  0.00    -0.330 NA 
HETATM   38  C   UNL     1     -10.672  13.921  64.362  1.00  0.00    -0.268 C  
HETATM   39  C   UNL     1     -10.523  12.494  63.827  1.00  0.00    -0.451 C  
HETATM   40  C   UNL     1     -11.836  11.976  63.245  1.00  0.00    -0.450 C  
HETATM   41  C   UNL     1     -12.999  12.204  64.207  1.00  0.00    -0.173 C  
HETATM   42  C   UNL     1     -13.021  13.654  64.700  1.00  0.00     0.133 C  
ENDBRANCH  36  37
ENDBRANCH  28  29
ENDBRANCH  21  28
BRANCH  22  43
HETATM   43  C   UNL     1      -6.856   4.498  74.475  1.00  0.00    -0.066 C  
HETATM   44  C   UNL     1      -5.564   5.275  74.243  1.00  0.00    -0.027 C  
ENDBRANCH  22  43
ENDBRANCH   2   3
TORSDOF 5
ENDMDL
MODEL       59
REMARK 921   NORMALIZED FREE ENERGY PREDICTED BY IDOCK:   -1.74 KCAL/MOL
REMARK 922        TOTAL FREE ENERGY PREDICTED BY IDOCK:   -3.27 KCAL/MOL
REMARK 923 INTER-LIGAND FREE ENERGY PREDICTED BY IDOCK:   -4.41 KCAL/MOL
REMARK 924 INTRA-LIGAND FREE ENERGY PREDICTED BY IDOCK:    1.14 KCAL/MOL
REMARK 927      BINDING AFFINITY PREDICTED BY RF-SCORE:    0.00 PKD
ROOT
HETATM    1  C   UNL     1      -8.474  10.644  65.012  1.00  0.00    -0.135 C  
HETATM    2  C   UNL     1      -6.982  10.564  65.282  1.00  0.00    -0.045 C  
ENDROOT
BRANCH   2   3
HETATM    3  C   UNL     1      -6.669  10.313  66.739  1.00  0.00    -0.083 A  
HETATM    4  C   UNL     1      -6.654   9.018  67.223  1.00  0.00    -0.061 A  
HETATM    5  C   UNL     1      -6.816   7.747  66.462  1.00  0.00    -0.066 A  
HETATM    6  N   UNL     1      -6.764   6.745  67.509  1.00  0.00    -0.068 N  
HETATM    7  C   UNL     1      -6.591   7.304  68.764  1.00  0.00    -0.048 A  
HETATM    8  C   UNL     1      -6.539   6.498  69.834  1.00  0.00    -0.048 C  
HETATM    9  C   UNL     1      -6.499   8.773  68.583  1.00  0.00    -0.054 A  
HETATM   10  N   UNL     1      -6.357   9.735  69.517  1.00  0.00    -0.044 NA 
HETATM   11  C   UNL     1      -6.742   5.042  69.662  1.00  0.00    -0.051 C  
HETATM   12  C   UNL     1      -6.870   4.525  68.428  1.00  0.00    -0.051 C  
HETATM   13  C   UNL     1      -6.332  11.024  69.053  1.00  0.00    -0.048 A  
HETATM   14  C   UNL     1      -6.214  12.113  69.931  1.00  0.00    -0.120 A  
HETATM   15  C   UNL     1      -6.859   5.411  67.233  1.00  0.00    -0.060 C  
HETATM   16  C   UNL     1      -7.064   3.087  68.122  1.00  0.00    -0.049 C  
HETATM   17  C   UNL     1      -6.214  13.462  69.496  1.00  0.00    -0.114 A  
HETATM   18  O   UNL     1      -6.954   4.950  66.101  1.00  0.00    -0.066 OA 
HETATM   19  O   UNL     1      -7.307   2.252  69.263  1.00  0.00    -0.043 OA 
HETATM   20  C   UNL     1      -7.185   2.641  70.547  1.00  0.00    -0.033 C  
HETATM   21  C   UNL     1      -6.304  13.744  68.140  1.00  0.00    -0.125 A  
HETATM   22  C   UNL     1      -6.813   4.126  70.863  1.00  0.00    -0.032 C  
HETATM   23  H   UNL     1      -5.551   3.570  72.220  1.00  0.00     0.000 HD 
HETATM   24  O   UNL     1      -7.315   1.802  71.437  1.00  0.00    -0.032 OA 
HETATM   25  C   UNL     1      -6.345  12.685  67.243  1.00  0.00    -0.099 A  
HETATM   26  O   UNL     1      -5.506   4.146  71.465  1.00  0.00    -0.007 OA 
HETATM   27  C   UNL     1      -6.440  11.345  67.670  1.00  0.00    -0.063 A  
BRANCH  21  28
HETATM   28  O   UNL     1      -6.317  15.095  67.701  1.00  0.00    -0.153 OA 
BRANCH  28  29
HETATM   29  C   UNL     1      -7.483  15.876  67.865  1.00  0.00    -0.131 C  
HETATM   30  C   UNL     1     -10.979  15.129  67.760  1.00  0.00    -0.306 C  
HETATM   31  N   UNL     1      -8.608  15.395  67.204  1.00  0.00    -0.193 N  
HETATM   32  C   UNL     1      -9.878  16.104  67.353  1.00  0.00    -0.238 C  
HETATM   33  O   UNL     1      -7.532  16.892  68.555  1.00  0.00    -0.195 OA 
HETATM   34  C   UNL     1      -8.626  14.278  66.268  1.00  0.00     0.465 C  
HETATM   35  C   UNL     1      -9.756  13.304  66.613  1.00  0.00    -0.270 C  
HETATM   36  C   UNL     1     -11.144  14.000  66.715  1.00  0.00    -0.306 C  
BRANCH  36  37
HETATM   37  N   UNL     1     -11.660  14.477  65.403  1.00  0.00    -0.349 NA 
HETATM   38  C   UNL     1     -10.840  14.050  64.249  1.00  0.00    -0.104 C  
HETATM   39  C   UNL     1     -10.921  12.550  63.953  1.00  0.00    -0.471 C  
HETATM   40  C   UNL     1     -12.366  12.094  63.766  1.00  0.00    -0.635 C  
HETATM   41  C   UNL     1     -13.258  12.594  64.898  1.00  0.00     0.400 C  
HETATM   42  C   UNL     1     -13.062  14.097  65.123  1.00  0.00    -0.019 C  
ENDBRANCH  36  37
ENDBRANCH  28  29
ENDBRANCH  21  28
BRANCH  22  43
HETATM   43  C   UNL     1      -7.800   4.625  71.948  1.00  0.00    -0.098 C  
HETATM   44  C   UNL     1      -9.123   3.871  72.024  1.00  0.00    -0.160 C  
ENDBRANCH  22  43
ENDBRANCH   2   3
TORSDOF 5
ENDMDL
MODEL       60
REMARK 921   NORMALIZED FREE ENERGY PREDICTED BY IDOCK:   -1.15 KCAL/MOL
REMARK 922        TOTAL FREE ENERGY PREDICTED BY IDOCK:   -2.52 KCAL/MOL
REMARK 923 INTER-LIGAND FREE ENERGY PREDICTED BY IDOCK:   -5.29 KCAL/MOL
REMARK 924 INTRA-LIGAND FREE ENERGY PREDICTED BY IDOCK:    2.77 KCAL/MOL
REMARK 927      BINDING AFFINITY PREDICTED BY RF-SCORE:    0.00 PKD
ROOT
HETATM    1  C   UNL     1      -5.436   9.987  66.394  1.00  0.00    -0.045 C  
HETATM    2  C   UNL     1      -6.052   9.387  67.644  1.00  0.00    -0.053 C  
ENDROOT
BRANCH   2   3
HETATM    3  C   UNL     1      -7.431   9.934  67.932  1.00  0.00    -0.089 A  
HETATM    4  C   UNL     1      -7.640  11.301  67.923  1.00  0.00    -0.100 A  
HETATM    5  C   UNL     1      -6.678  12.379  67.559  1.00  0.00    -0.146 A  
HETATM    6  N   UNL     1      -7.451  13.584  67.796  1.00  0.00    -0.149 N  
HETATM    7  C   UNL     1      -8.729  13.307  68.248  1.00  0.00    -0.168 A  
HETATM    8  C   UNL     1      -9.557  14.326  68.525  1.00  0.00    -0.220 C  
HETATM    9  C   UNL     1      -8.865  11.831  68.313  1.00  0.00    -0.172 A  
HETATM   10  N   UNL     1      -9.918  11.093  68.721  1.00  0.00    -0.201 NA 
HETATM   11  C   UNL     1      -9.065  15.717  68.414  1.00  0.00    -0.190 C  
HETATM   12  C   UNL     1      -7.830  15.954  67.937  1.00  0.00    -0.148 C  
HETATM   13  C   UNL     1      -9.742   9.735  68.701  1.00  0.00    -0.155 A  
HETATM   14  C   UNL     1     -10.756   8.863  69.126  1.00  0.00    -0.162 A  
HETATM   15  C   UNL     1      -6.935  14.826  67.564  1.00  0.00    -0.172 C  
HETATM   16  C   UNL     1      -7.226  17.297  67.765  1.00  0.00    -0.159 C  
HETATM   17  C   UNL     1     -10.606   7.454  69.150  1.00  0.00    -0.213 A  
HETATM   18  O   UNL     1      -5.815  15.030  67.107  1.00  0.00    -0.249 OA 
HETATM   19  O   UNL     1      -7.982  18.378  68.331  1.00  0.00    -0.290 OA 
HETATM   20  C   UNL     1      -9.235  18.277  68.816  1.00  0.00    -0.233 C  
HETATM   21  C   UNL     1      -9.420   6.884  68.708  1.00  0.00    -0.135 A  
HETATM   22  C   UNL     1      -9.934  16.879  68.839  1.00  0.00    -0.279 C  
HETATM   23  H   UNL     1     -11.587  17.643  68.188  1.00  0.00     0.000 HD 
HETATM   24  O   UNL     1      -9.817  19.299  69.175  1.00  0.00    -0.412 OA 
HETATM   25  C   UNL     1      -8.428   7.718  68.211  1.00  0.00    -0.124 A  
HETATM   26  O   UNL     1     -11.041  16.912  67.921  1.00  0.00    -0.301 OA 
HETATM   27  C   UNL     1      -8.531   9.123  68.271  1.00  0.00    -0.125 A  
BRANCH  21  28
HETATM   28  O   UNL     1      -9.261   5.472  68.742  1.00  0.00    -0.119 OA 
BRANCH  28  29
HETATM   29  C   UNL     1      -7.986   4.904  68.520  1.00  0.00    -0.085 C  
HETATM   30  C   UNL     1      -6.156   4.038  65.572  1.00  0.00    -0.024 C  
HETATM   31  N   UNL     1      -7.857   4.201  67.328  1.00  0.00    -0.091 N  
HETATM   32  C   UNL     1      -6.562   3.618  66.982  1.00  0.00    -0.045 C  
HETATM   33  O   UNL     1      -7.039   5.029  69.295  1.00  0.00    -0.053 OA 
HETATM   34  C   UNL     1      -8.943   3.890  66.407  1.00  0.00    -0.133 C  
HETATM   35  C   UNL     1      -8.551   4.249  64.970  1.00  0.00    -0.124 C  
HETATM   36  C   UNL     1      -7.210   3.596  64.529  1.00  0.00    -0.066 C  
BRANCH  36  37
HETATM   37  N   UNL     1      -7.301   2.118  64.368  1.00  0.00    -0.057 NA 
HETATM   38  C   UNL     1      -8.331   1.489  65.221  1.00  0.00    -0.081 C  
HETATM   39  C   UNL     1      -9.768   1.816  64.802  1.00  0.00     0.094 C  
HETATM   40  C   UNL     1     -10.016   1.467  63.337  1.00  0.00    -0.120 C  
HETATM   41  C   UNL     1      -8.919   2.030  62.437  1.00  0.00    -0.073 C  
HETATM   42  C   UNL     1      -7.532   1.668  62.978  1.00  0.00    -0.045 C  
ENDBRANCH  36  37
ENDBRANCH  28  29
ENDBRANCH  21  28
BRANCH  22  43
HETATM   43  C   UNL     1     -10.544  16.694  70.251  1.00  0.00     0.106 C  
HETATM   44  C   UNL     1     -12.035  16.377  70.281  1.00  0.00     0.319 C  
ENDBRANCH  22  43
ENDBRANCH   2   3
TORSDOF 5
ENDMDL
MODEL       61
REMARK 921   NORMALIZED FREE ENERGY PREDICTED BY IDOCK:   -1.10 KCAL/MOL
REMARK 922        TOTAL FREE ENERGY PREDICTED BY IDOCK:   -2.45 KCAL/MOL
REMARK 923 INTER-LIGAND FREE ENERGY PREDICTED BY IDOCK:   -5.27 KCAL/MOL
REMARK 924 INTRA-LIGAND FREE ENERGY PREDICTED BY IDOCK:    2.82 KCAL/MOL
REMARK 927      BINDING AFFINITY PREDICTED BY RF-SCORE:    0.00 PKD
ROOT
HETATM    1  C   UNL     1     -11.139  11.730  67.932  1.00  0.00    -0.302 C  
HETATM    2  C   UNL     1      -9.847  11.709  67.136  1.00  0.00    -0.205 C  
ENDROOT
BRANCH   2   3
HETATM    3  C   UNL     1      -8.729  10.999  67.864  1.00  0.00    -0.133 A  
HETATM    4  C   UNL     1      -8.724   9.618  67.929  1.00  0.00    -0.119 A  
HETATM    5  C   UNL     1      -9.656   8.660  67.271  1.00  0.00    -0.167 A  
HETATM    6  N   UNL     1      -9.182   7.377  67.754  1.00  0.00    -0.131 N  
HETATM    7  C   UNL     1      -8.095   7.504  68.601  1.00  0.00    -0.124 A  
HETATM    8  C   UNL     1      -7.555   6.400  69.138  1.00  0.00    -0.100 C  
HETATM    9  C   UNL     1      -7.780   8.950  68.702  1.00  0.00    -0.097 A  
HETATM   10  N   UNL     1      -6.825   9.561  69.431  1.00  0.00    -0.048 NA 
HETATM   11  C   UNL     1      -8.176   5.082  68.876  1.00  0.00    -0.084 C  
HETATM   12  C   UNL     1      -9.208   4.987  68.019  1.00  0.00    -0.139 C  
HETATM   13  C   UNL     1      -6.791  10.929  69.351  1.00  0.00    -0.114 A  
HETATM   14  C   UNL     1      -5.858  11.679  70.083  1.00  0.00    -0.153 A  
HETATM   15  C   UNL     1      -9.763   6.203  67.368  1.00  0.00    -0.120 C  
HETATM   16  C   UNL     1      -9.906   3.729  67.662  1.00  0.00     0.032 C  
HETATM   17  C   UNL     1      -5.807  13.095  70.052  1.00  0.00    -0.139 A  
HETATM   18  O   UNL     1     -10.691   6.127  66.569  1.00  0.00    -0.228 OA 
HETATM   19  O   UNL     1      -9.537   2.587  68.449  1.00  0.00    -0.190 OA 
HETATM   20  C   UNL     1      -8.509   2.545  69.319  1.00  0.00    -0.062 C  
HETATM   21  C   UNL     1      -6.692  13.794  69.242  1.00  0.00    -0.101 A  
HETATM   22  C   UNL     1      -7.666   3.837  69.567  1.00  0.00    -0.052 C  
HETATM   23  H   UNL     1      -6.016   2.831  69.499  1.00  0.00     0.000 HD 
HETATM   24  O   UNL     1      -8.226   1.474  69.854  1.00  0.00    -0.044 OA 
HETATM   25  C   UNL     1      -7.575  13.075  68.448  1.00  0.00    -0.133 A  
HETATM   26  O   UNL     1      -6.336   3.613  69.065  1.00  0.00    -0.028 OA 
HETATM   27  C   UNL     1      -7.697  11.674  68.543  1.00  0.00    -0.134 A  
BRANCH  21  28
HETATM   28  O   UNL     1      -6.652  15.214  69.217  1.00  0.00    -0.119 OA 
BRANCH  28  29
HETATM   29  C   UNL     1      -6.134  15.881  68.083  1.00  0.00    -0.122 C  
HETATM   30  C   UNL     1      -6.017  19.314  67.087  1.00  0.00    -0.178 C  
HETATM   31  N   UNL     1      -6.761  17.083  67.774  1.00  0.00    -0.144 N  
HETATM   32  C   UNL     1      -6.266  17.874  66.648  1.00  0.00    -0.168 C  
HETATM   33  O   UNL     1      -5.187  15.464  67.420  1.00  0.00    -0.330 OA 
HETATM   34  C   UNL     1      -7.962  17.601  68.416  1.00  0.00    -0.270 C  
HETATM   35  C   UNL     1      -7.768  19.064  68.823  1.00  0.00    -0.382 C  
HETATM   36  C   UNL     1      -7.307  19.964  67.641  1.00  0.00    -0.281 C  
BRANCH  36  37
HETATM   37  N   UNL     1      -8.361  20.163  66.608  1.00  0.00    -0.306 NA 
HETATM   38  C   UNL     1      -9.239  18.989  66.419  1.00  0.00    -0.334 C  
HETATM   39  C   UNL     1     -10.177  18.720  67.600  1.00  0.00    -0.450 C  
HETATM   40  C   UNL     1     -11.013  19.951  67.941  1.00  0.00    -0.007 C  
HETATM   41  C   UNL     1     -10.143  21.200  68.056  1.00  0.00     0.450 C  
HETATM   42  C   UNL     1      -9.227  21.340  66.837  1.00  0.00     0.665 C  
ENDBRANCH  36  37
ENDBRANCH  28  29
ENDBRANCH  21  28
BRANCH  22  43
HETATM   43  C   UNL     1      -7.529   4.010  71.101  1.00  0.00    -0.044 C  
HETATM   44  C   UNL     1      -8.654   4.791  71.772  1.00  0.00    -0.129 C  
ENDBRANCH  22  43
ENDBRANCH   2   3
TORSDOF 5
ENDMDL
MODEL       62
REMARK 921   NORMALIZED FREE ENERGY PREDICTED BY IDOCK:   -1.01 KCAL/MOL
REMARK 922        TOTAL FREE ENERGY PREDICTED BY IDOCK:   -2.33 KCAL/MOL
REMARK 923 INTER-LIGAND FREE ENERGY PREDICTED BY IDOCK:   -3.41 KCAL/MOL
REMARK 924 INTRA-LIGAND FREE ENERGY PREDICTED BY IDOCK:    1.08 KCAL/MOL
REMARK 927      BINDING AFFINITY PREDICTED BY RF-SCORE:    0.00 PKD
ROOT
HETATM    1  C   UNL     1      -7.586   8.370  63.844  1.00  0.00    -0.135 C  
HETATM    2  C   UNL     1      -6.597   8.692  64.949  1.00  0.00    -0.068 C  
ENDROOT
BRANCH   2   3
HETATM    3  C   UNL     1      -7.274   8.951  66.276  1.00  0.00    -0.086 A  
HETATM    4  C   UNL     1      -8.076  10.067  66.428  1.00  0.00    -0.120 A  
HETATM    5  C   UNL     1      -8.478  11.062  65.395  1.00  0.00    -0.030 A  
HETATM    6  N   UNL     1      -9.263  12.012  66.161  1.00  0.00    -0.211 N  
HETATM    7  C   UNL     1      -9.350  11.663  67.498  1.00  0.00    -0.168 A  
HETATM    8  C   UNL     1     -10.035  12.457  68.334  1.00  0.00    -0.210 C  
HETATM    9  C   UNL     1      -8.601  10.395  67.674  1.00  0.00    -0.118 A  
HETATM   10  N   UNL     1      -8.383   9.687  68.800  1.00  0.00    -0.108 NA 
HETATM   11  C   UNL     1     -10.617  13.720  67.830  1.00  0.00    -0.250 C  
HETATM   12  C   UNL     1     -10.548  14.012  66.519  1.00  0.00    -0.279 C  
HETATM   13  C   UNL     1      -7.620   8.558  68.662  1.00  0.00    -0.098 A  
HETATM   14  C   UNL     1      -7.304   7.752  69.767  1.00  0.00    -0.080 A  
HETATM   15  C   UNL     1      -9.848  13.098  65.578  1.00  0.00    -0.138 C  
HETATM   16  C   UNL     1     -11.102  15.234  65.888  1.00  0.00    -0.287 C  
HETATM   17  C   UNL     1      -6.494   6.593  69.674  1.00  0.00    -0.044 A  
HETATM   18  O   UNL     1      -9.797  13.342  64.377  1.00  0.00    -0.168 OA 
HETATM   19  O   UNL     1     -11.574  16.230  66.807  1.00  0.00     0.404 OA 
HETATM   20  C   UNL     1     -11.716  16.053  68.135  1.00  0.00    -0.076 C  
HETATM   21  C   UNL     1      -6.003   6.198  68.437  1.00  0.00    -0.016 A  
HETATM   22  C   UNL     1     -11.285  14.694  68.774  1.00  0.00    -0.267 C  
HETATM   23  H   UNL     1     -12.884  14.645  69.862  1.00  0.00     0.000 HD 
HETATM   24  O   UNL     1     -12.234  16.948  68.802  1.00  0.00     0.722 OA 
HETATM   25  C   UNL     1      -6.364   6.932  67.315  1.00  0.00    -0.048 A  
HETATM   26  O   UNL     1     -12.464  14.033  69.268  1.00  0.00    -0.259 OA 
HETATM   27  C   UNL     1      -7.089   8.137  67.410  1.00  0.00    -0.083 A  
BRANCH  21  28
HETATM   28  O   UNL     1      -5.181   5.043  68.340  1.00  0.00    -0.003 OA 
BRANCH  28  29
HETATM   29  C   UNL     1      -5.764   3.758  68.429  1.00  0.00    -0.022 C  
HETATM   30  C   UNL     1      -7.099   1.489  66.009  1.00  0.00    -0.050 C  
HETATM   31  N   UNL     1      -6.659   3.450  67.410  1.00  0.00    -0.037 N  
HETATM   32  C   UNL     1      -7.277   2.125  67.385  1.00  0.00    -0.055 C  
HETATM   33  O   UNL     1      -5.498   2.948  69.315  1.00  0.00    -0.015 OA 
HETATM   34  C   UNL     1      -7.134   4.376  66.391  1.00  0.00    -0.071 C  
HETATM   35  C   UNL     1      -7.021   3.750  64.998  1.00  0.00    -0.057 C  
HETATM   36  C   UNL     1      -7.724   2.366  64.899  1.00  0.00    -0.073 C  
BRANCH  36  37
HETATM   37  N   UNL     1      -9.208   2.455  64.979  1.00  0.00    -0.139 NA 
HETATM   38  C   UNL     1      -9.727   3.838  64.924  1.00  0.00    -0.183 C  
HETATM   39  C   UNL     1      -9.568   4.506  63.555  1.00  0.00     0.048 C  
HETATM   40  C   UNL     1     -10.199   3.666  62.447  1.00  0.00    -0.156 C  
HETATM   41  C   UNL     1      -9.751   2.209  62.530  1.00  0.00    -0.088 C  
HETATM   42  C   UNL     1      -9.923   1.666  63.951  1.00  0.00    -0.111 C  
ENDBRANCH  36  37
ENDBRANCH  28  29
ENDBRANCH  21  28
BRANCH  22  43
HETATM   43  C   UNL     1     -10.419  15.024  70.016  1.00  0.00    -0.139 C  
HETATM   44  C   UNL     1     -11.112  14.843  71.362  1.00  0.00    -0.042 C  
ENDBRANCH  22  43
ENDBRANCH   2   3
TORSDOF 5
ENDMDL
MODEL       63
REMARK 921   NORMALIZED FREE ENERGY PREDICTED BY IDOCK:   -0.70 KCAL/MOL
REMARK 922        TOTAL FREE ENERGY PREDICTED BY IDOCK:   -1.93 KCAL/MOL
REMARK 923 INTER-LIGAND FREE ENERGY PREDICTED BY IDOCK:   -6.05 KCAL/MOL
REMARK 924 INTRA-LIGAND FREE ENERGY PREDICTED BY IDOCK:    4.12 KCAL/MOL
REMARK 927      BINDING AFFINITY PREDICTED BY RF-SCORE:    0.00 PKD
ROOT
HETATM    1  C   UNL     1      -6.982   9.072  71.315  1.00  0.00    -0.089 C  
HETATM    2  C   UNL     1      -6.537   9.940  70.153  1.00  0.00    -0.102 C  
ENDROOT
BRANCH   2   3
HETATM    3  C   UNL     1      -7.372   9.724  68.912  1.00  0.00    -0.073 A  
HETATM    4  C   UNL     1      -7.850  10.816  68.210  1.00  0.00    -0.115 A  
HETATM    5  C   UNL     1      -7.571  12.259  68.448  1.00  0.00    -0.128 A  
HETATM    6  N   UNL     1      -8.386  12.909  67.439  1.00  0.00    -0.181 N  
HETATM    7  C   UNL     1      -9.086  11.999  66.665  1.00  0.00    -0.205 A  
HETATM    8  C   UNL     1      -9.895  12.455  65.697  1.00  0.00    -0.235 C  
HETATM    9  C   UNL     1      -8.727  10.642  67.145  1.00  0.00    -0.130 A  
HETATM   10  N   UNL     1      -9.177   9.445  66.718  1.00  0.00    -0.138 NA 
HETATM   11  C   UNL     1     -10.081  13.913  65.527  1.00  0.00    -0.319 C  
HETATM   12  C   UNL     1      -9.359  14.770  66.270  1.00  0.00    -0.310 C  
HETATM   13  C   UNL     1      -8.686   8.349  67.378  1.00  0.00    -0.135 A  
HETATM   14  C   UNL     1      -9.099   7.051  67.041  1.00  0.00    -0.150 A  
HETATM   15  C   UNL     1      -8.409  14.266  67.296  1.00  0.00    -0.204 C  
HETATM   16  C   UNL     1      -9.442  16.249  66.186  1.00  0.00    -0.339 C  
HETATM   17  C   UNL     1      -8.640   5.893  67.717  1.00  0.00    -0.105 A  
HETATM   18  O   UNL     1      -7.730  15.038  67.966  1.00  0.00    -0.110 OA 
HETATM   19  O   UNL     1     -10.511  16.751  65.371  1.00  0.00    -0.592 OA 
HETATM   20  C   UNL     1     -11.287  16.001  64.564  1.00  0.00    -0.295 C  
HETATM   21  C   UNL     1      -7.715   6.021  68.744  1.00  0.00    -0.095 A  
HETATM   22  C   UNL     1     -11.081  14.452  64.529  1.00  0.00    -0.291 C  
HETATM   23  H   UNL     1     -11.216  14.430  62.600  1.00  0.00     0.000 HD 
HETATM   24  O   UNL     1     -12.100  16.563  63.832  1.00  0.00    -0.896 OA 
HETATM   25  C   UNL     1      -7.231   7.286  69.047  1.00  0.00    -0.089 A  
HETATM   26  O   UNL     1     -10.588  14.091  63.227  1.00  0.00     1.739 OA 
HETATM   27  C   UNL     1      -7.751   8.450  68.447  1.00  0.00    -0.105 A  
BRANCH  21  28
HETATM   28  O   UNL     1      -7.261   4.863  69.432  1.00  0.00    -0.054 OA 
BRANCH  28  29
HETATM   29  C   UNL     1      -7.647   4.648  70.775  1.00  0.00    -0.057 C  
HETATM   30  C   UNL     1     -10.761   4.907  72.513  1.00  0.00    -0.258 C  
HETATM   31  N   UNL     1      -8.754   5.380  71.190  1.00  0.00    -0.128 N  
HETATM   32  C   UNL     1      -9.262   5.191  72.548  1.00  0.00    -0.132 C  
HETATM   33  O   UNL     1      -7.078   3.862  71.530  1.00  0.00    -0.031 OA 
HETATM   34  C   UNL     1      -9.418   6.422  70.418  1.00  0.00    -0.162 C  
HETATM   35  C   UNL     1     -10.933   6.201  70.406  1.00  0.00    -0.404 C  
HETATM   36  C   UNL     1     -11.535   6.062  71.833  1.00  0.00    -0.269 C  
BRANCH  36  37
HETATM   37  N   UNL     1     -11.506   7.333  72.609  1.00  0.00    -0.285 NA 
HETATM   38  C   UNL     1     -10.864   8.454  71.892  1.00  0.00    -0.302 C  
HETATM   39  C   UNL     1     -11.676   8.975  70.702  1.00  0.00    -0.237 C  
HETATM   40  C   UNL     1     -13.092   9.362  71.119  1.00  0.00    -0.294 C  
HETATM   41  C   UNL     1     -13.753   8.257  71.938  1.00  0.00    -0.411 C  
HETATM   42  C   UNL     1     -12.833   7.796  73.073  1.00  0.00     0.956 C  
ENDBRANCH  36  37
ENDBRANCH  28  29
ENDBRANCH  21  28
BRANCH  22  43
HETATM   43  C   UNL     1     -12.480  13.800  64.662  1.00  0.00    -0.356 C  
HETATM   44  C   UNL     1     -12.978  13.609  66.090  1.00  0.00     0.074 C  
ENDBRANCH  22  43
ENDBRANCH   2   3
TORSDOF 5
ENDMDL
MODEL       64
REMARK 921   NORMALIZED FREE ENERGY PREDICTED BY IDOCK:   -0.64 KCAL/MOL
REMARK 922        TOTAL FREE ENERGY PREDICTED BY IDOCK:   -1.86 KCAL/MOL
REMARK 923 INTER-LIGAND FREE ENERGY PREDICTED BY IDOCK:   -6.25 KCAL/MOL
REMARK 924 INTRA-LIGAND FREE ENERGY PREDICTED BY IDOCK:    4.39 KCAL/MOL
REMARK 927      BINDING AFFINITY PREDICTED BY RF-SCORE:    0.00 PKD
ROOT
HETATM    1  C   UNL     1     -11.603  11.127  69.680  1.00  0.00    -0.398 C  
HETATM    2  C   UNL     1     -10.271  10.429  69.889  1.00  0.00    -0.190 C  
ENDROOT
BRANCH   2   3
HETATM    3  C   UNL     1      -9.415  10.427  68.643  1.00  0.00    -0.167 A  
HETATM    4  C   UNL     1      -9.351   9.290  67.860  1.00  0.00    -0.143 A  
HETATM    5  C   UNL     1     -10.116   8.021  68.011  1.00  0.00    -0.194 A  
HETATM    6  N   UNL     1      -9.582   7.200  66.940  1.00  0.00    -0.159 N  
HETATM    7  C   UNL     1      -8.611   7.861  66.208  1.00  0.00    -0.149 A  
HETATM    8  C   UNL     1      -8.014   7.221  65.192  1.00  0.00    -0.128 C  
HETATM    9  C   UNL     1      -8.471   9.221  66.785  1.00  0.00    -0.127 A  
HETATM   10  N   UNL     1      -7.633  10.213  66.424  1.00  0.00    -0.104 NA 
HETATM   11  C   UNL     1      -8.350   5.805  64.923  1.00  0.00    -0.127 C  
HETATM   12  C   UNL     1      -9.324   5.203  65.628  1.00  0.00    -0.149 C  
HETATM   13  C   UNL     1      -7.707  11.362  67.167  1.00  0.00    -0.152 A  
HETATM   14  C   UNL     1      -6.868  12.456  66.904  1.00  0.00     0.121 A  
HETATM   15  C   UNL     1     -10.035   5.934  66.710  1.00  0.00    -0.175 C  
HETATM   16  C   UNL     1      -9.762   3.798  65.446  1.00  0.00    -0.157 C  
HETATM   17  C   UNL     1      -6.892  13.651  67.665  1.00  0.00    -0.185 A  
HETATM   18  O   UNL     1     -10.940   5.402  67.345  1.00  0.00    -0.074 OA 
HETATM   19  O   UNL     1      -8.938   3.014  64.571  1.00  0.00    -0.107 OA 
HETATM   20  C   UNL     1      -7.951   3.501  63.794  1.00  0.00    -0.085 C  
HETATM   21  C   UNL     1      -7.801  13.781  68.706  1.00  0.00    -0.059 A  
HETATM   22  C   UNL     1      -7.603   5.023  63.866  1.00  0.00    -0.067 C  
HETATM   23  H   UNL     1      -7.474   5.132  61.939  1.00  0.00     0.000 HD 
HETATM   24  O   UNL     1      -7.387   2.743  63.006  1.00  0.00    -0.046 OA 
HETATM   25  C   UNL     1      -8.695  12.746  68.940  1.00  0.00     0.326 A  
HETATM   26  O   UNL     1      -7.942   5.624  62.603  1.00  0.00    -0.083 OA 
HETATM   27  C   UNL     1      -8.617  11.518  68.251  1.00  0.00    -0.161 A  
BRANCH  21  28
HETATM   28  O   UNL     1      -7.820  14.974  69.480  1.00  0.00    -0.195 OA 
BRANCH  28  29
HETATM   29  C   UNL     1      -6.602  15.578  69.867  1.00  0.00    -0.131 C  
HETATM   30  C   UNL     1      -5.556  18.974  70.264  1.00  0.00    -0.258 C  
HETATM   31  N   UNL     1      -6.396  16.856  69.363  1.00  0.00    -0.222 N  
HETATM   32  C   UNL     1      -5.188  17.586  69.746  1.00  0.00    -0.191 C  
HETATM   33  O   UNL     1      -5.783  15.044  70.613  1.00  0.00    -0.141 OA 
HETATM   34  C   UNL     1      -7.239  17.524  68.379  1.00  0.00    -0.226 C  
HETATM   35  C   UNL     1      -7.584  18.943  68.840  1.00  0.00    -0.337 C  
HETATM   36  C   UNL     1      -6.327  19.786  69.196  1.00  0.00    -0.314 C  
BRANCH  36  37
HETATM   37  N   UNL     1      -5.500  20.137  68.008  1.00  0.00    -0.191 NA 
HETATM   38  C   UNL     1      -5.334  19.027  67.048  1.00  0.00    -0.149 C  
HETATM   39  C   UNL     1      -6.615  18.666  66.290  1.00  0.00    -0.244 C  
HETATM   40  C   UNL     1      -7.209  19.884  65.585  1.00  0.00    -0.331 C  
HETATM   41  C   UNL     1      -7.311  21.078  66.530  1.00  0.00     0.011 C  
HETATM   42  C   UNL     1      -5.983  21.315  67.254  1.00  0.00    -0.345 C  
ENDBRANCH  36  37
ENDBRANCH  28  29
ENDBRANCH  21  28
BRANCH  22  43
HETATM   43  C   UNL     1      -6.064   5.136  64.003  1.00  0.00    -0.022 C  
HETATM   44  C   UNL     1      -5.560   6.418  64.655  1.00  0.00    -0.025 C  
ENDBRANCH  22  43
ENDBRANCH   2   3
TORSDOF 5
ENDMDL
MODEL       65
REMARK 921   NORMALIZED FREE ENERGY PREDICTED BY IDOCK:   -0.59 KCAL/MOL
REMARK 922        TOTAL FREE ENERGY PREDICTED BY IDOCK:   -1.79 KCAL/MOL
REMARK 923 INTER-LIGAND FREE ENERGY PREDICTED BY IDOCK:   -4.29 KCAL/MOL
REMARK 924 INTRA-LIGAND FREE ENERGY PREDICTED BY IDOCK:    2.50 KCAL/MOL
REMARK 927      BINDING AFFINITY PREDICTED BY RF-SCORE:    0.00 PKD
ROOT
HETATM    1  C   UNL     1     -12.977   9.012  70.742  1.00  0.00     0.188 C  
HETATM    2  C   UNL     1     -11.839   8.065  70.407  1.00  0.00     0.075 C  
ENDROOT
BRANCH   2   3
HETATM    3  C   UNL     1     -10.544   8.791  70.122  1.00  0.00    -0.237 A  
HETATM    4  C   UNL     1     -10.559  10.157  69.909  1.00  0.00    -0.331 A  
HETATM    5  C   UNL     1     -11.711  11.095  70.018  1.00  0.00    -0.356 A  
HETATM    6  N   UNL     1     -11.122  12.363  69.629  1.00  0.00    -0.020 N  
HETATM    7  C   UNL     1      -9.779  12.245  69.318  1.00  0.00     0.663 A  
HETATM    8  C   UNL     1      -9.103  13.335  68.926  1.00  0.00     0.271 C  
HETATM    9  C   UNL     1      -9.403  10.824  69.517  1.00  0.00     0.113 A  
HETATM   10  N   UNL     1      -8.212  10.225  69.314  1.00  0.00    -0.150 NA 
HETATM   11  C   UNL     1      -9.820  14.619  68.763  1.00  0.00    -0.227 C  
HETATM   12  C   UNL     1     -11.116  14.710  69.109  1.00  0.00    -0.285 C  
HETATM   13  C   UNL     1      -8.169   8.877  69.555  1.00  0.00    -0.107 A  
HETATM   14  C   UNL     1      -6.992   8.138  69.355  1.00  0.00    -0.051 A  
HETATM   15  C   UNL     1     -11.850  13.518  69.610  1.00  0.00    -0.336 C  
HETATM   16  C   UNL     1     -11.940  15.938  69.007  1.00  0.00    -0.230 C  
HETATM   17  C   UNL     1      -6.912   6.738  69.563  1.00  0.00    -0.067 A  
HETATM   18  O   UNL     1     -13.026  13.594  69.949  1.00  0.00     0.100 OA 
HETATM   19  O   UNL     1     -11.318  17.031  68.315  1.00  0.00    -0.174 OA 
HETATM   20  C   UNL     1     -10.024  17.073  67.940  1.00  0.00    -0.281 C  
HETATM   21  C   UNL     1      -8.028   6.048  70.016  1.00  0.00    -0.109 A  
HETATM   22  C   UNL     1      -9.112  15.832  68.204  1.00  0.00    -0.185 C  
HETATM   23  H   UNL     1      -7.671  16.965  68.823  1.00  0.00     0.000 HD 
HETATM   24  O   UNL     1      -9.582  18.111  67.449  1.00  0.00    -0.269 OA 
HETATM   25  C   UNL     1      -9.183   6.766  70.296  1.00  0.00    -0.156 A  
HETATM   26  O   UNL     1      -8.116  16.202  69.174  1.00  0.00    -0.229 OA 
HETATM   27  C   UNL     1      -9.302   8.139  70.002  1.00  0.00    -0.159 A  
BRANCH  21  28
HETATM   28  O   UNL     1      -7.955   4.643  70.215  1.00  0.00    -0.063 OA 
BRANCH  28  29
HETATM   29  C   UNL     1      -8.722   3.778  69.402  1.00  0.00    -0.080 C  
HETATM   30  C   UNL     1      -8.315   2.522  66.079  1.00  0.00    -0.093 C  
HETATM   31  N   UNL     1      -8.572   3.976  68.034  1.00  0.00    -0.094 N  
HETATM   32  C   UNL     1      -9.285   3.098  67.106  1.00  0.00    -0.181 C  
HETATM   33  O   UNL     1      -9.453   2.895  69.845  1.00  0.00    -0.150 OA 
HETATM   34  C   UNL     1      -7.832   5.066  67.412  1.00  0.00    -0.095 C  
HETATM   35  C   UNL     1      -6.886   4.530  66.334  1.00  0.00    -0.058 C  
HETATM   36  C   UNL     1      -7.610   3.644  65.280  1.00  0.00    -0.078 C  
BRANCH  36  37
HETATM   37  N   UNL     1      -8.531   4.413  64.399  1.00  0.00    -0.111 NA 
HETATM   38  C   UNL     1      -8.402   5.879  64.536  1.00  0.00    -0.069 C  
HETATM   39  C   UNL     1      -7.090   6.440  63.979  1.00  0.00    -0.054 C  
HETATM   40  C   UNL     1      -6.881   6.030  62.524  1.00  0.00    -0.040 C  
HETATM   41  C   UNL     1      -7.094   4.531  62.332  1.00  0.00    -0.031 C  
HETATM   42  C   UNL     1      -8.417   4.084  62.961  1.00  0.00    -0.090 C  
ENDBRANCH  36  37
ENDBRANCH  28  29
ENDBRANCH  21  28
BRANCH  22  43
HETATM   43  C   UNL     1      -8.349  15.535  66.888  1.00  0.00    -0.290 C  
HETATM   44  C   UNL     1      -7.012  16.252  66.733  1.00  0.00    -0.165 C  
ENDBRANCH  22  43
ENDBRANCH   2   3
TORSDOF 5
ENDMDL
MODEL       66
REMARK 921   NORMALIZED FREE ENERGY PREDICTED BY IDOCK:   -0.56 KCAL/MOL
REMARK 922        TOTAL FREE ENERGY PREDICTED BY IDOCK:   -1.75 KCAL/MOL
REMARK 923 INTER-LIGAND FREE ENERGY PREDICTED BY IDOCK:   -6.49 KCAL/MOL
REMARK 924 INTRA-LIGAND FREE ENERGY PREDICTED BY IDOCK:    4.74 KCAL/MOL
REMARK 927      BINDING AFFINITY PREDICTED BY RF-SCORE:    0.00 PKD
ROOT
HETATM    1  C   UNL     1     -11.506  11.628  67.340  1.00  0.00    -0.357 C  
HETATM    2  C   UNL     1     -10.352  10.840  66.750  1.00  0.00    -0.294 C  
ENDROOT
BRANCH   2   3
HETATM    3  C   UNL     1      -9.237  10.609  67.745  1.00  0.00    -0.151 A  
HETATM    4  C   UNL     1      -9.238   9.463  68.519  1.00  0.00    -0.131 A  
HETATM    5  C   UNL     1     -10.174   8.306  68.453  1.00  0.00    -0.209 A  
HETATM    6  N   UNL     1      -9.705   7.460  69.534  1.00  0.00    -0.159 N  
HETATM    7  C   UNL     1      -8.619   8.006  70.195  1.00  0.00    -0.130 A  
HETATM    8  C   UNL     1      -8.085   7.341  71.230  1.00  0.00    -0.102 C  
HETATM    9  C   UNL     1      -8.299   9.293  69.530  1.00  0.00    -0.131 A  
HETATM   10  N   UNL     1      -7.342  10.192  69.838  1.00  0.00    -0.153 NA 
HETATM   11  C   UNL     1      -8.710   6.081  71.689  1.00  0.00    -0.135 C  
HETATM   12  C   UNL     1      -9.742   5.557  71.003  1.00  0.00    -0.229 C  
HETATM   13  C   UNL     1      -7.302  11.317  69.058  1.00  0.00    -0.115 A  
HETATM   14  C   UNL     1      -6.367  12.336  69.296  1.00  0.00    -0.103 A  
HETATM   15  C   UNL     1     -10.291   6.259  69.813  1.00  0.00    -0.207 C  
HETATM   16  C   UNL     1     -10.444   4.299  71.351  1.00  0.00     0.156 C  
HETATM   17  C   UNL     1      -6.310  13.529  68.533  1.00  0.00    -0.088 A  
HETATM   18  O   UNL     1     -11.218   5.780  69.167  1.00  0.00    -0.270 OA 
HETATM   19  O   UNL     1     -10.081   3.732  72.619  1.00  0.00    -0.151 OA 
HETATM   20  C   UNL     1      -9.055   4.146  73.387  1.00  0.00    -0.102 C  
HETATM   21  C   UNL     1      -7.191  13.707  67.475  1.00  0.00    -0.156 A  
HETATM   22  C   UNL     1      -8.207   5.377  72.929  1.00  0.00    -0.109 C  
HETATM   23  H   UNL     1      -6.561   4.477  73.401  1.00  0.00     0.000 HD 
HETATM   24  O   UNL     1      -8.777   3.509  74.402  1.00  0.00    -0.086 OA 
HETATM   25  C   UNL     1      -8.076  12.683  67.168  1.00  0.00    -0.141 A  
HETATM   26  O   UNL     1      -6.877   4.920  72.622  1.00  0.00    -0.064 OA 
HETATM   27  C   UNL     1      -8.203  11.536  67.977  1.00  0.00    -0.143 A  
BRANCH  21  28
HETATM   28  O   UNL     1      -7.145  14.907  66.714  1.00  0.00     0.076 OA 
BRANCH  28  29
HETATM   29  C   UNL     1      -6.356  15.991  67.162  1.00  0.00    -0.079 C  
HETATM   30  C   UNL     1      -7.021  18.831  69.231  1.00  0.00    -0.247 C  
HETATM   31  N   UNL     1      -7.065  17.153  67.446  1.00  0.00    -0.149 N  
HETATM   32  C   UNL     1      -6.345  18.316  67.963  1.00  0.00    -0.185 C  
HETATM   33  O   UNL     1      -5.138  15.929  67.319  1.00  0.00    -0.311 OA 
HETATM   34  C   UNL     1      -8.480  17.369  67.177  1.00  0.00    -0.211 C  
HETATM   35  C   UNL     1      -9.184  17.938  68.413  1.00  0.00    -0.289 C  
HETATM   36  C   UNL     1      -8.495  19.219  68.963  1.00  0.00    -0.224 C  
BRANCH  36  37
HETATM   37  N   UNL     1      -8.644  20.398  68.065  1.00  0.00    -0.076 NA 
HETATM   38  C   UNL     1      -8.184  20.155  66.682  1.00  0.00    -0.282 C  
HETATM   39  C   UNL     1      -9.079  19.196  65.890  1.00  0.00     0.083 C  
HETATM   40  C   UNL     1     -10.531  19.665  65.884  1.00  0.00    -0.591 C  
HETATM   41  C   UNL     1     -11.011  20.009  67.292  1.00  0.00    -0.116 C  
HETATM   42  C   UNL     1     -10.018  20.941  67.993  1.00  0.00     0.209 C  
ENDBRANCH  36  37
ENDBRANCH  28  29
ENDBRANCH  21  28
BRANCH  22  43
HETATM   43  C   UNL     1      -8.072   6.321  74.150  1.00  0.00    -0.108 C  
HETATM   44  C   UNL     1      -9.194   7.341  74.312  1.00  0.00    -0.232 C  
ENDBRANCH  22  43
ENDBRANCH   2   3
TORSDOF 5
ENDMDL
MODEL       67
REMARK 921   NORMALIZED FREE ENERGY PREDICTED BY IDOCK:   -0.48 KCAL/MOL
REMARK 922        TOTAL FREE ENERGY PREDICTED BY IDOCK:   -1.65 KCAL/MOL
REMARK 923 INTER-LIGAND FREE ENERGY PREDICTED BY IDOCK:   -6.02 KCAL/MOL
REMARK 924 INTRA-LIGAND FREE ENERGY PREDICTED BY IDOCK:    4.37 KCAL/MOL
REMARK 927      BINDING AFFINITY PREDICTED BY RF-SCORE:    0.00 PKD
ROOT
HETATM    1  C   UNL     1     -12.176  14.085  68.914  1.00  0.00    -0.261 C  
HETATM    2  C   UNL     1     -11.338  12.823  69.009  1.00  0.00    -0.346 C  
ENDROOT
BRANCH   2   3
HETATM    3  C   UNL     1     -11.194  12.120  67.680  1.00  0.00    -0.345 A  
HETATM    4  C   UNL     1     -10.934  10.762  67.649  1.00  0.00    -0.365 A  
HETATM    5  C   UNL     1     -10.863   9.810  68.793  1.00  0.00    -0.188 A  
HETATM    6  N   UNL     1     -10.508   8.563  68.143  1.00  0.00    -0.207 N  
HETATM    7  C   UNL     1     -10.374   8.704  66.773  1.00  0.00    -0.266 A  
HETATM    8  C   UNL     1     -10.034   7.635  66.038  1.00  0.00     0.315 C  
HETATM    9  C   UNL     1     -10.669  10.120  66.444  1.00  0.00    -0.007 A  
HETATM   10  N   UNL     1     -10.639  10.737  65.245  1.00  0.00    -0.212 NA 
HETATM   11  C   UNL     1      -9.736   6.351  66.711  1.00  0.00    -0.199 C  
HETATM   12  C   UNL     1      -9.912   6.236  68.039  1.00  0.00    -0.149 C  
HETATM   13  C   UNL     1     -10.930  12.076  65.251  1.00  0.00    -0.308 A  
HETATM   14  C   UNL     1     -10.907  12.831  64.069  1.00  0.00    -0.458 A  
HETATM   15  C   UNL     1     -10.357   7.403  68.846  1.00  0.00    -0.206 C  
HETATM   16  C   UNL     1      -9.663   5.005  68.828  1.00  0.00    -0.161 C  
HETATM   17  C   UNL     1     -11.172  14.223  64.034  1.00  0.00     0.178 A  
HETATM   18  O   UNL     1     -10.541   7.304  70.055  1.00  0.00    -0.221 OA 
HETATM   19  O   UNL     1      -9.018   3.944  68.108  1.00  0.00    -0.104 OA 
HETATM   20  C   UNL     1      -8.809   3.927  66.777  1.00  0.00    -0.126 C  
HETATM   21  C   UNL     1     -11.503  14.886  65.208  1.00  0.00    -0.336 A  
HETATM   22  C   UNL     1      -9.229   5.165  65.922  1.00  0.00    -0.158 C  
HETATM   23  H   UNL     1      -9.986   4.024  64.556  1.00  0.00     0.000 HD 
HETATM   24  O   UNL     1      -8.343   2.911  66.262  1.00  0.00    -0.086 OA 
HETATM   25  C   UNL     1     -11.609  14.149  66.379  1.00  0.00    -0.380 A  
HETATM   26  O   UNL     1     -10.305   4.769  65.051  1.00  0.00    -0.006 OA 
HETATM   27  C   UNL     1     -11.255  12.786  66.441  1.00  0.00    -0.339 A  
BRANCH  21  28
HETATM   28  O   UNL     1     -11.759  16.284  65.179  1.00  0.00     0.244 OA 
BRANCH  28  29
HETATM   29  C   UNL     1     -10.724  17.193  65.497  1.00  0.00    -0.117 C  
HETATM   30  C   UNL     1      -7.335  16.790  66.562  1.00  0.00    -0.306 C  
HETATM   31  N   UNL     1      -9.778  16.712  66.394  1.00  0.00    -0.270 N  
HETATM   32  C   UNL     1      -8.639  17.559  66.748  1.00  0.00    -0.253 C  
HETATM   33  O   UNL     1     -10.633  18.319  65.012  1.00  0.00    -0.346 OA 
HETATM   34  C   UNL     1      -9.861  15.450  67.117  1.00  0.00    -0.221 C  
HETATM   35  C   UNL     1      -8.547  14.672  66.997  1.00  0.00    -0.249 C  
HETATM   36  C   UNL     1      -7.308  15.509  67.429  1.00  0.00    -0.210 C  
BRANCH  36  37
HETATM   37  N   UNL     1      -7.267  15.784  68.892  1.00  0.00    -0.136 NA 
HETATM   38  C   UNL     1      -8.178  14.933  69.685  1.00  0.00     0.041 C  
HETATM   39  C   UNL     1      -7.750  13.464  69.754  1.00  0.00     1.123 C  
HETATM   40  C   UNL     1      -6.320  13.322  70.269  1.00  0.00     0.075 C  
HETATM   41  C   UNL     1      -5.367  14.256  69.528  1.00  0.00    -0.090 C  
HETATM   42  C   UNL     1      -5.919  15.684  69.494  1.00  0.00    -0.130 C  
ENDBRANCH  36  37
ENDBRANCH  28  29
ENDBRANCH  21  28
BRANCH  22  43
HETATM   43  C   UNL     1      -8.032   5.517  65.003  1.00  0.00    -0.113 C  
HETATM   44  C   UNL     1      -8.274   5.317  63.511  1.00  0.00    -0.122 C  
ENDBRANCH  22  43
ENDBRANCH   2   3
TORSDOF 5
ENDMDL
MODEL       68
REMARK 921   NORMALIZED FREE ENERGY PREDICTED BY IDOCK:   -0.36 KCAL/MOL
REMARK 922        TOTAL FREE ENERGY PREDICTED BY IDOCK:   -1.49 KCAL/MOL
REMARK 923 INTER-LIGAND FREE ENERGY PREDICTED BY IDOCK:   -5.94 KCAL/MOL
REMARK 924 INTRA-LIGAND FREE ENERGY PREDICTED BY IDOCK:    4.45 KCAL/MOL
REMARK 927      BINDING AFFINITY PREDICTED BY RF-SCORE:    0.00 PKD
ROOT
HETATM    1  C   UNL     1     -10.341  13.486  67.077  1.00  0.00    -0.252 C  
HETATM    2  C   UNL     1      -8.915  13.150  66.680  1.00  0.00    -0.135 C  
ENDROOT
BRANCH   2   3
HETATM    3  C   UNL     1      -8.127  12.535  67.814  1.00  0.00    -0.164 A  
HETATM    4  C   UNL     1      -8.474  11.283  68.288  1.00  0.00    -0.152 A  
HETATM    5  C   UNL     1      -9.507  10.350  67.758  1.00  0.00    -0.145 A  
HETATM    6  N   UNL     1      -9.441   9.243  68.694  1.00  0.00    -0.145 N  
HETATM    7  C   UNL     1      -8.493   9.446  69.681  1.00  0.00    -0.164 A  
HETATM    8  C   UNL     1      -8.329   8.511  70.628  1.00  0.00    -0.141 C  
HETATM    9  C   UNL     1      -7.849  10.755  69.413  1.00  0.00    -0.087 A  
HETATM   10  N   UNL     1      -6.890  11.389  70.117  1.00  0.00    -0.056 NA 
HETATM   11  C   UNL     1      -9.210   7.323  70.642  1.00  0.00    -0.157 C  
HETATM   12  C   UNL     1     -10.096   7.136  69.648  1.00  0.00    -0.196 C  
HETATM   13  C   UNL     1      -6.507  12.616  69.641  1.00  0.00    -0.050 A  
HETATM   14  C   UNL     1      -5.536  13.383  70.303  1.00  0.00    -0.127 A  
HETATM   15  C   UNL     1     -10.232   8.139  68.558  1.00  0.00    -0.208 C  
HETATM   16  C   UNL     1     -11.024   5.984  69.539  1.00  0.00    -0.397 C  
HETATM   17  C   UNL     1      -5.132  14.668  69.862  1.00  0.00    -0.092 A  
HETATM   18  O   UNL     1     -11.021   7.969  67.635  1.00  0.00    -0.094 OA 
HETATM   19  O   UNL     1     -11.069   5.130  70.692  1.00  0.00     0.043 OA 
HETATM   20  C   UNL     1     -10.223   5.197  71.738  1.00  0.00    -0.209 C  
HETATM   21  C   UNL     1      -5.687  15.202  68.707  1.00  0.00    -0.089 A  
HETATM   22  C   UNL     1      -9.132   6.316  71.767  1.00  0.00    -0.144 C  
HETATM   23  H   UNL     1      -7.791   5.058  72.368  1.00  0.00     0.000 HD 
HETATM   24  O   UNL     1     -10.295   4.339  72.616  1.00  0.00    -0.172 OA 
HETATM   25  C   UNL     1      -6.594  14.433  67.991  1.00  0.00    -0.157 A  
HETATM   26  O   UNL     1      -7.840   5.691  71.661  1.00  0.00    -0.104 OA 
HETATM   27  C   UNL     1      -7.072  13.196  68.470  1.00  0.00    -0.105 A  
BRANCH  21  28
HETATM   28  O   UNL     1      -5.294  16.495  68.268  1.00  0.00    -0.103 OA 
BRANCH  28  29
HETATM   29  C   UNL     1      -5.705  16.960  66.999  1.00  0.00    -0.170 C  
HETATM   30  C   UNL     1      -7.404  19.904  65.887  1.00  0.00    -0.335 C  
HETATM   31  N   UNL     1      -6.802  17.814  67.015  1.00  0.00    -0.169 N  
HETATM   32  C   UNL     1      -7.274  18.389  65.756  1.00  0.00    -0.187 C  
HETATM   33  O   UNL     1      -5.138  16.667  65.948  1.00  0.00     0.122 OA 
HETATM   34  C   UNL     1      -7.617  18.123  68.183  1.00  0.00    -0.265 C  
HETATM   35  C   UNL     1      -7.815  19.636  68.317  1.00  0.00    -0.355 C  
HETATM   36  C   UNL     1      -8.382  20.288  67.023  1.00  0.00    -0.315 C  
BRANCH  36  37
HETATM   37  N   UNL     1      -9.794  19.907  66.744  1.00  0.00    -0.395 NA 
HETATM   38  C   UNL     1     -10.004  18.449  66.617  1.00  0.00    -0.368 C  
HETATM   39  C   UNL     1      -9.856  17.685  67.937  1.00  0.00    -0.300 C  
HETATM   40  C   UNL     1     -10.772  18.254  69.017  1.00  0.00     0.457 C  
HETATM   41  C   UNL     1     -10.643  19.772  69.113  1.00  0.00     0.237 C  
HETATM   42  C   UNL     1     -10.771  20.418  67.730  1.00  0.00     0.189 C  
ENDBRANCH  36  37
ENDBRANCH  28  29
ENDBRANCH  21  28
BRANCH  22  43
HETATM   43  C   UNL     1      -9.184   6.971  73.170  1.00  0.00    -0.165 C  
HETATM   44  C   UNL     1      -7.892   6.891  73.977  1.00  0.00    -0.120 C  
ENDBRANCH  22  43
ENDBRANCH   2   3
TORSDOF 5
ENDMDL
MODEL       69
REMARK 921   NORMALIZED FREE ENERGY PREDICTED BY IDOCK:   -0.31 KCAL/MOL
REMARK 922        TOTAL FREE ENERGY PREDICTED BY IDOCK:   -1.43 KCAL/MOL
REMARK 923 INTER-LIGAND FREE ENERGY PREDICTED BY IDOCK:   -3.41 KCAL/MOL
REMARK 924 INTRA-LIGAND FREE ENERGY PREDICTED BY IDOCK:    1.98 KCAL/MOL
REMARK 927      BINDING AFFINITY PREDICTED BY RF-SCORE:    0.00 PKD
ROOT
HETATM    1  C   UNL     1      -8.529   8.988  71.222  1.00  0.00    -0.196 C  
HETATM    2  C   UNL     1      -9.408   9.620  70.159  1.00  0.00    -0.294 C  
ENDROOT
BRANCH   2   3
HETATM    3  C   UNL     1      -8.772   9.594  68.788  1.00  0.00    -0.126 A  
HETATM    4  C   UNL     1      -8.806   8.431  68.041  1.00  0.00    -0.142 A  
HETATM    5  C   UNL     1      -9.496   7.150  68.359  1.00  0.00    -0.138 A  
HETATM    6  N   UNL     1      -9.123   6.305  67.240  1.00  0.00    -0.116 N  
HETATM    7  C   UNL     1      -8.308   6.962  66.335  1.00  0.00    -0.125 A  
HETATM    8  C   UNL     1      -7.869   6.300  65.254  1.00  0.00    -0.107 C  
HETATM    9  C   UNL     1      -8.115   8.344  66.837  1.00  0.00    -0.099 A  
HETATM   10  N   UNL     1      -7.378   9.343  66.310  1.00  0.00    -0.095 NA 
HETATM   11  C   UNL     1      -8.203   4.868  65.090  1.00  0.00    -0.124 C  
HETATM   12  C   UNL     1      -9.027   4.268  65.967  1.00  0.00    -0.123 C  
HETATM   13  C   UNL     1      -7.363  10.516  67.018  1.00  0.00    -0.099 A  
HETATM   14  C   UNL     1      -6.612  11.619  66.584  1.00  0.00    -0.040 A  
HETATM   15  C   UNL     1      -9.570   5.020  67.129  1.00  0.00    -0.152 C  
HETATM   16  C   UNL     1      -9.448   2.847  65.906  1.00  0.00     0.029 C  
HETATM   17  C   UNL     1      -6.544  12.840  67.300  1.00  0.00    -0.083 A  
HETATM   18  O   UNL     1     -10.340   4.490  67.923  1.00  0.00     0.030 OA 
HETATM   19  O   UNL     1      -8.757   2.052  64.931  1.00  0.00    -0.101 OA 
HETATM   20  C   UNL     1      -7.929   2.534  63.984  1.00  0.00    -0.081 C  
HETATM   21  C   UNL     1      -7.271  12.986  68.474  1.00  0.00    -0.104 A  
HETATM   22  C   UNL     1      -7.620   4.066  63.948  1.00  0.00    -0.074 C  
HETATM   23  H   UNL     1      -7.816   4.108  62.025  1.00  0.00     0.000 HD 
HETATM   24  O   UNL     1      -7.482   1.762  63.137  1.00  0.00    -0.046 OA 
HETATM   25  C   UNL     1      -8.083  11.939  68.887  1.00  0.00     0.066 A  
HETATM   26  O   UNL     1      -8.182   4.612  62.742  1.00  0.00    -0.078 OA 
HETATM   27  C   UNL     1      -8.083  10.689  68.234  1.00  0.00    -0.118 A  
BRANCH  21  28
HETATM   28  O   UNL     1      -7.197  14.205  69.202  1.00  0.00    -0.118 OA 
BRANCH  28  29
HETATM   29  C   UNL     1      -7.986  15.308  68.804  1.00  0.00    -0.158 C  
HETATM   30  C   UNL     1     -10.677  17.091  70.342  1.00  0.00     0.492 C  
HETATM   31  N   UNL     1      -9.258  15.350  69.364  1.00  0.00    -0.270 N  
HETATM   32  C   UNL     1     -10.134  16.479  69.054  1.00  0.00    -0.279 C  
HETATM   33  O   UNL     1      -7.592  16.189  68.043  1.00  0.00    -0.129 OA 
HETATM   34  C   UNL     1      -9.862  14.300  70.173  1.00  0.00     1.244 C  
HETATM   35  C   UNL     1     -10.467  14.885  71.452  1.00  0.00     1.003 C  
HETATM   36  C   UNL     1     -11.462  16.048  71.173  1.00  0.00    -0.419 C  
BRANCH  36  37
HETATM   37  N   UNL     1     -12.723  15.598  70.520  1.00  0.00    -0.419 NA 
HETATM   38  C   UNL     1     -12.640  14.245  69.931  1.00  0.00    -0.165 C  
HETATM   39  C   UNL     1     -12.550  13.122  70.969  1.00  0.00    -0.397 C  
HETATM   40  C   UNL     1     -13.704  13.189  71.966  1.00  0.00    -0.486 C  
HETATM   41  C   UNL     1     -13.872  14.598  72.527  1.00  0.00    -0.561 C  
HETATM   42  C   UNL     1     -13.912  15.633  71.399  1.00  0.00    -0.184 C  
ENDBRANCH  36  37
ENDBRANCH  28  29
ENDBRANCH  21  28
BRANCH  22  43
HETATM   43  C   UNL     1      -6.083   4.221  63.822  1.00  0.00    -0.018 C  
HETATM   44  C   UNL     1      -5.370   4.695  65.084  1.00  0.00    -0.013 C  
ENDBRANCH  22  43
ENDBRANCH   2   3
TORSDOF 5
ENDMDL
MODEL       70
REMARK 921   NORMALIZED FREE ENERGY PREDICTED BY IDOCK:    0.64 KCAL/MOL
REMARK 922        TOTAL FREE ENERGY PREDICTED BY IDOCK:   -0.20 KCAL/MOL
REMARK 923 INTER-LIGAND FREE ENERGY PREDICTED BY IDOCK:   -7.81 KCAL/MOL
REMARK 924 INTRA-LIGAND FREE ENERGY PREDICTED BY IDOCK:    7.60 KCAL/MOL
REMARK 927      BINDING AFFINITY PREDICTED BY RF-SCORE:    0.00 PKD
ROOT
HETATM    1  C   UNL     1     -12.191  13.708  64.415  1.00  0.00    -0.436 C  
HETATM    2  C   UNL     1     -10.730  14.110  64.500  1.00  0.00    -0.323 C  
ENDROOT
BRANCH   2   3
HETATM    3  C   UNL     1     -10.068  13.629  65.770  1.00  0.00    -0.311 A  
HETATM    4  C   UNL     1      -9.583  12.336  65.841  1.00  0.00    -0.207 A  
HETATM    5  C   UNL     1      -9.523  11.312  64.760  1.00  0.00    -0.194 A  
HETATM    6  N   UNL     1      -8.974  10.159  65.447  1.00  0.00    -0.166 N  
HETATM    7  C   UNL     1      -8.717  10.417  66.783  1.00  0.00    -0.127 A  
HETATM    8  C   UNL     1      -8.219   9.438  67.551  1.00  0.00    -0.117 C  
HETATM    9  C   UNL     1      -9.090  11.830  67.039  1.00  0.00    -0.187 A  
HETATM   10  N   UNL     1      -9.045  12.523  68.195  1.00  0.00    -0.201 NA 
HETATM   11  C   UNL     1      -8.024   8.088  66.978  1.00  0.00    -0.108 C  
HETATM   12  C   UNL     1      -8.247   7.878  65.668  1.00  0.00    -0.137 C  
HETATM   13  C   UNL     1      -9.487  13.818  68.136  1.00  0.00    -0.212 A  
HETATM   14  C   UNL     1      -9.511  14.633  69.279  1.00  0.00    -0.001 A  
HETATM   15  C   UNL     1      -8.734   8.982  64.799  1.00  0.00    -0.153 C  
HETATM   16  C   UNL     1      -8.077   6.580  64.972  1.00  0.00    -0.127 C  
HETATM   17  C   UNL     1      -9.989  15.967  69.269  1.00  0.00    -0.252 A  
HETATM   18  O   UNL     1      -8.920   8.809  63.599  1.00  0.00     0.057 OA 
HETATM   19  O   UNL     1      -7.831   5.458  65.832  1.00  0.00    -0.100 OA 
HETATM   20  C   UNL     1      -7.568   5.537  67.151  1.00  0.00    -0.092 C  
HETATM   21  C   UNL     1     -10.429  16.528  68.078  1.00  0.00    -0.313 A  
HETATM   22  C   UNL     1      -7.583   6.934  67.851  1.00  0.00    -0.107 C  
HETATM   23  H   UNL     1      -5.966   6.516  68.827  1.00  0.00     0.000 HD 
HETATM   24  O   UNL     1      -7.267   4.511  67.759  1.00  0.00    -0.064 OA 
HETATM   25  C   UNL     1     -10.345  15.771  66.918  1.00  0.00    -0.295 A  
HETATM   26  O   UNL     1      -6.243   7.240  68.278  1.00  0.00    -0.033 OA 
HETATM   27  C   UNL     1      -9.962  14.415  66.934  1.00  0.00    -0.261 A  
BRANCH  21  28
HETATM   28  O   UNL     1     -10.919  17.862  68.066  1.00  0.00    -0.276 OA 
BRANCH  28  29
HETATM   29  C   UNL     1     -10.134  18.902  68.612  1.00  0.00    -0.388 C  
HETATM   30  C   UNL     1      -7.508  20.948  67.307  1.00  0.00    -0.345 C  
HETATM   31  N   UNL     1      -8.878  19.052  68.035  1.00  0.00    -0.300 N  
HETATM   32  C   UNL     1      -8.008  20.134  68.496  1.00  0.00     0.004 C  
HETATM   33  O   UNL     1     -10.519  19.647  69.512  1.00  0.00    -0.004 OA 
HETATM   34  C   UNL     1      -8.283  18.151  67.057  1.00  0.00    -0.235 C  
HETATM   35  C   UNL     1      -7.719  18.939  65.871  1.00  0.00    -0.165 C  
HETATM   36  C   UNL     1      -6.732  20.060  66.305  1.00  0.00    -0.222 C  
BRANCH  36  37
HETATM   37  N   UNL     1      -5.449  19.535  66.848  1.00  0.00    -0.164 NA 
HETATM   38  C   UNL     1      -5.315  19.686  68.312  1.00  0.00    -0.190 C  
HETATM   39  C   UNL     1      -6.250  18.778  69.117  1.00  0.00    -0.271 C  
HETATM   40  C   UNL     1      -6.080  17.313  68.723  1.00  0.00    -0.168 C  
HETATM   41  C   UNL     1      -6.125  17.134  67.208  1.00  0.00    -0.181 C  
HETATM   42  C   UNL     1      -5.178  18.119  66.515  1.00  0.00    -0.149 C  
ENDBRANCH  36  37
ENDBRANCH  28  29
ENDBRANCH  21  28
BRANCH  22  43
HETATM   43  C   UNL     1      -8.430   6.793  69.141  1.00  0.00    -0.128 C  
HETATM   44  C   UNL     1      -9.941   6.784  68.932  1.00  0.00    -0.159 C  
ENDBRANCH  22  43
ENDBRANCH   2   3
TORSDOF 5
ENDMDL
MODEL       71
REMARK 921   NORMALIZED FREE ENERGY PREDICTED BY IDOCK:    1.00 KCAL/MOL
REMARK 922        TOTAL FREE ENERGY PREDICTED BY IDOCK:    0.26 KCAL/MOL
REMARK 923 INTER-LIGAND FREE ENERGY PREDICTED BY IDOCK:   -2.73 KCAL/MOL
REMARK 924 INTRA-LIGAND FREE ENERGY PREDICTED BY IDOCK:    2.99 KCAL/MOL
REMARK 927      BINDING AFFINITY PREDICTED BY RF-SCORE:    0.00 PKD
ROOT
HETATM    1  C   UNL     1     -12.934  12.734  69.720  1.00  0.00     0.963 C  
HETATM    2  C   UNL     1     -12.463  11.318  69.439  1.00  0.00    -0.075 C  
ENDROOT
BRANCH   2   3
HETATM    3  C   UNL     1     -11.092  11.277  68.805  1.00  0.00    -0.288 A  
HETATM    4  C   UNL     1     -10.495  10.058  68.544  1.00  0.00    -0.229 A  
HETATM    5  C   UNL     1     -11.070   8.694  68.714  1.00  0.00     0.286 A  
HETATM    6  N   UNL     1      -9.964   7.836  68.335  1.00  0.00    -0.173 N  
HETATM    7  C   UNL     1      -8.840   8.558  67.971  1.00  0.00    -0.142 A  
HETATM    8  C   UNL     1      -7.731   7.897  67.608  1.00  0.00    -0.117 C  
HETATM    9  C   UNL     1      -9.184   9.997  68.084  1.00  0.00    -0.128 A  
HETATM   10  N   UNL     1      -8.405  11.075  67.862  1.00  0.00    -0.121 NA 
HETATM   11  C   UNL     1      -7.707   6.419  67.675  1.00  0.00    -0.102 C  
HETATM   12  C   UNL     1      -8.825   5.746  67.997  1.00  0.00    -0.109 C  
HETATM   13  C   UNL     1      -8.991  12.294  68.081  1.00  0.00    -0.192 A  
HETATM   14  C   UNL     1      -8.275  13.488  67.908  1.00  0.00    -0.168 A  
HETATM   15  C   UNL     1     -10.076   6.476  68.332  1.00  0.00    -0.160 C  
HETATM   16  C   UNL     1      -8.935   4.270  68.085  1.00  0.00    -0.122 C  
HETATM   17  C   UNL     1      -8.833  14.768  68.151  1.00  0.00    -0.170 A  
HETATM   18  O   UNL     1     -11.109   5.872  68.606  1.00  0.00    -0.284 OA 
HETATM   19  O   UNL     1      -7.689   3.562  67.991  1.00  0.00    -0.067 OA 
HETATM   20  C   UNL     1      -6.509   4.116  67.651  1.00  0.00    -0.038 C  
HETATM   21  C   UNL     1     -10.158  14.872  68.550  1.00  0.00    -0.232 A  
HETATM   22  C   UNL     1      -6.433   5.655  67.393  1.00  0.00    -0.047 C  
HETATM   23  H   UNL     1      -5.335   5.385  65.823  1.00  0.00     0.000 HD 
HETATM   24  O   UNL     1      -5.532   3.383  67.499  1.00  0.00    -0.018 OA 
HETATM   25  C   UNL     1     -10.913  13.712  68.654  1.00  0.00    -0.290 A  
HETATM   26  O   UNL     1      -6.135   5.865  66.000  1.00  0.00    -0.030 OA 
HETATM   27  C   UNL     1     -10.343  12.432  68.507  1.00  0.00    -0.232 A  
BRANCH  21  28
HETATM   28  O   UNL     1     -10.718  16.154  68.806  1.00  0.00    -0.259 OA 
BRANCH  28  29
HETATM   29  C   UNL     1      -9.869  17.245  69.094  1.00  0.00    -0.174 C  
HETATM   30  C   UNL     1      -8.447  19.853  67.102  1.00  0.00    -0.376 C  
HETATM   31  N   UNL     1      -9.087  17.677  68.029  1.00  0.00    -0.261 N  
HETATM   32  C   UNL     1      -8.210  18.833  68.213  1.00  0.00    -0.325 C  
HETATM   33  O   UNL     1      -9.824  17.804  70.189  1.00  0.00     0.902 OA 
HETATM   34  C   UNL     1      -8.973  17.011  66.738  1.00  0.00    -0.244 C  
HETATM   35  C   UNL     1      -9.152  18.015  65.596  1.00  0.00     0.644 C  
HETATM   36  C   UNL     1      -8.192  19.234  65.707  1.00  0.00     0.094 C  
BRANCH  36  37
HETATM   37  N   UNL     1      -6.765  18.881  65.467  1.00  0.00    -0.382 NA 
HETATM   38  C   UNL     1      -6.335  19.055  64.064  1.00  0.00     0.806 C  
HETATM   39  C   UNL     1      -6.249  20.518  63.619  1.00  0.00    -0.222 C  
HETATM   40  C   UNL     1      -5.350  21.332  64.547  1.00  0.00    -0.183 C  
HETATM   41  C   UNL     1      -5.712  21.105  66.012  1.00  0.00    -0.293 C  
HETATM   42  C   UNL     1      -5.804  19.609  66.325  1.00  0.00    -0.166 C  
ENDBRANCH  36  37
ENDBRANCH  28  29
ENDBRANCH  21  28
BRANCH  22  43
HETATM   43  C   UNL     1      -5.215   6.194  68.185  1.00  0.00    -0.004 C  
HETATM   44  C   UNL     1      -5.129   5.740  69.638  1.00  0.00    -0.004 C  
ENDBRANCH  22  43
ENDBRANCH   2   3
TORSDOF 5
ENDMDL
MODEL       72
REMARK 921   NORMALIZED FREE ENERGY PREDICTED BY IDOCK:    1.11 KCAL/MOL
REMARK 922        TOTAL FREE ENERGY PREDICTED BY IDOCK:    0.41 KCAL/MOL
REMARK 923 INTER-LIGAND FREE ENERGY PREDICTED BY IDOCK:   -3.98 KCAL/MOL
REMARK 924 INTRA-LIGAND FREE ENERGY PREDICTED BY IDOCK:    4.39 KCAL/MOL
REMARK 927      BINDING AFFINITY PREDICTED BY RF-SCORE:    0.00 PKD
ROOT
HETATM    1  C   UNL     1     -12.855  11.302  63.501  1.00  0.00     0.812 C  
HETATM    2  C   UNL     1     -11.404  11.641  63.790  1.00  0.00    -0.482 C  
ENDROOT
BRANCH   2   3
HETATM    3  C   UNL     1     -11.179  12.055  65.226  1.00  0.00    -0.374 A  
HETATM    4  C   UNL     1     -11.075  13.396  65.543  1.00  0.00    -0.296 A  
HETATM    5  C   UNL     1     -11.257  14.573  64.647  1.00  0.00    -0.353 A  
HETATM    6  N   UNL     1     -10.970  15.688  65.529  1.00  0.00    -0.325 N  
HETATM    7  C   UNL     1     -10.652  15.275  66.811  1.00  0.00    -0.304 A  
HETATM    8  C   UNL     1     -10.349  16.198  67.736  1.00  0.00    -0.283 C  
HETATM    9  C   UNL     1     -10.738  13.794  66.833  1.00  0.00    -0.280 A  
HETATM   10  N   UNL     1     -10.489  12.944  67.849  1.00  0.00    -0.219 NA 
HETATM   11  C   UNL     1     -10.287  17.625  67.351  1.00  0.00    -0.360 C  
HETATM   12  C   UNL     1     -10.638  17.998  66.107  1.00  0.00    -0.269 C  
HETATM   13  C   UNL     1     -10.622  11.611  67.564  1.00  0.00    -0.209 A  
HETATM   14  C   UNL     1     -10.366  10.629  68.533  1.00  0.00    -0.202 A  
HETATM   15  C   UNL     1     -11.042  16.982  65.100  1.00  0.00     0.089 C  
HETATM   16  C   UNL     1     -10.632  19.392  65.603  1.00  0.00    -0.299 C  
HETATM   17  C   UNL     1     -10.463   9.240  68.272  1.00  0.00    -0.260 A  
HETATM   18  O   UNL     1     -11.384  17.311  63.969  1.00  0.00    -0.543 OA 
HETATM   19  O   UNL     1     -10.030  20.353  66.482  1.00  0.00    -0.427 OA 
HETATM   20  C   UNL     1      -9.661  20.112  67.755  1.00  0.00    -0.378 C  
HETATM   21  C   UNL     1     -10.858   8.805  67.015  1.00  0.00     0.039 A  
HETATM   22  C   UNL     1      -9.826  18.672  68.339  1.00  0.00    -0.384 C  
HETATM   23  H   UNL     1     -10.535  19.375  69.997  1.00  0.00     0.000 HD 
HETATM   24  O   UNL     1      -9.255  21.048  68.443  1.00  0.00     0.609 OA 
HETATM   25  C   UNL     1     -11.192   9.755  66.059  1.00  0.00     1.376 A  
HETATM   26  O   UNL     1     -10.824  18.717  69.375  1.00  0.00     0.780 OA 
HETATM   27  C   UNL     1     -11.009  11.135  66.279  1.00  0.00    -0.227 A  
BRANCH  21  28
HETATM   28  O   UNL     1     -10.945   7.412  66.746  1.00  0.00    -0.249 OA 
BRANCH  28  29
HETATM   29  C   UNL     1     -10.648   6.481  67.767  1.00  0.00    -0.259 C  
HETATM   30  C   UNL     1      -8.755   6.668  70.794  1.00  0.00    -0.143 C  
HETATM   31  N   UNL     1      -9.460   6.719  68.449  1.00  0.00    -0.127 N  
HETATM   32  C   UNL     1      -9.088   5.840  69.557  1.00  0.00    -0.130 C  
HETATM   33  O   UNL     1     -11.379   5.538  68.064  1.00  0.00     0.478 OA 
HETATM   34  C   UNL     1      -8.468   7.726  68.096  1.00  0.00    -0.124 C  
HETATM   35  C   UNL     1      -8.068   8.544  69.327  1.00  0.00    -0.113 C  
HETATM   36  C   UNL     1      -7.597   7.656  70.515  1.00  0.00    -0.081 C  
BRANCH  36  37
HETATM   37  N   UNL     1      -6.292   6.984  70.264  1.00  0.00    -0.037 NA 
HETATM   38  C   UNL     1      -5.152   7.620  70.957  1.00  0.00    -0.026 C  
HETATM   39  C   UNL     1      -5.172   7.439  72.478  1.00  0.00    -0.037 C  
HETATM   40  C   UNL     1      -5.263   5.965  72.864  1.00  0.00    -0.026 C  
HETATM   41  C   UNL     1      -6.378   5.258  72.099  1.00  0.00    -0.039 C  
HETATM   42  C   UNL     1      -6.273   5.542  70.597  1.00  0.00    -0.026 C  
ENDBRANCH  36  37
ENDBRANCH  28  29
ENDBRANCH  21  28
BRANCH  22  43
HETATM   43  C   UNL     1      -8.492  18.303  69.035  1.00  0.00    -0.047 C  
HETATM   44  C   UNL     1      -7.602  17.332  68.266  1.00  0.00    -0.227 C  
ENDBRANCH  22  43
ENDBRANCH   2   3
TORSDOF 5
ENDMDL
MODEL       73
REMARK 921   NORMALIZED FREE ENERGY PREDICTED BY IDOCK:    1.40 KCAL/MOL
REMARK 922        TOTAL FREE ENERGY PREDICTED BY IDOCK:    0.78 KCAL/MOL
REMARK 923 INTER-LIGAND FREE ENERGY PREDICTED BY IDOCK:   -7.37 KCAL/MOL
REMARK 924 INTRA-LIGAND FREE ENERGY PREDICTED BY IDOCK:    8.15 KCAL/MOL
REMARK 927      BINDING AFFINITY PREDICTED BY RF-SCORE:    0.00 PKD
ROOT
HETATM    1  C   UNL     1     -12.050   9.402  71.836  1.00  0.00    -0.427 C  
HETATM    2  C   UNL     1     -12.057   8.462  70.644  1.00  0.00     0.035 C  
ENDROOT
BRANCH   2   3
HETATM    3  C   UNL     1     -11.156   8.935  69.527  1.00  0.00    -0.015 A  
HETATM    4  C   UNL     1     -11.029  10.289  69.277  1.00  0.00    -0.284 A  
HETATM    5  C   UNL     1     -11.605  11.427  70.046  1.00  0.00    -0.299 A  
HETATM    6  N   UNL     1     -11.176  12.578  69.274  1.00  0.00    -0.225 N  
HETATM    7  C   UNL     1     -10.428  12.219  68.167  1.00  0.00    -0.217 A  
HETATM    8  C   UNL     1      -9.973  13.179  67.349  1.00  0.00    -0.229 C  
HETATM    9  C   UNL     1     -10.311  10.740  68.174  1.00  0.00    -0.171 A  
HETATM   10  N   UNL     1      -9.700   9.933  67.283  1.00  0.00    -0.166 NA 
HETATM   11  C   UNL     1     -10.341  14.590  67.603  1.00  0.00    -0.237 C  
HETATM   12  C   UNL     1     -11.038  14.910  68.708  1.00  0.00    -0.274 C  
HETATM   13  C   UNL     1      -9.784   8.589  67.535  1.00  0.00    -0.162 A  
HETATM   14  C   UNL     1      -9.209   7.648  66.666  1.00  0.00    -0.211 A  
HETATM   15  C   UNL     1     -11.484  13.853  69.653  1.00  0.00    -0.248 C  
HETATM   16  C   UNL     1     -11.456  16.283  69.082  1.00  0.00    -0.257 C  
HETATM   17  C   UNL     1      -9.297   6.249  66.873  1.00  0.00    -0.148 A  
HETATM   18  O   UNL     1     -12.102  14.135  70.675  1.00  0.00    -0.314 OA 
HETATM   19  O   UNL     1     -11.235  17.280  68.074  1.00  0.00    -0.191 OA 
HETATM   20  C   UNL     1     -10.533  17.093  66.940  1.00  0.00    -0.274 C  
HETATM   21  C   UNL     1      -9.951   5.762  67.996  1.00  0.00    -0.144 A  
HETATM   22  C   UNL     1      -9.947  15.678  66.630  1.00  0.00    -0.258 C  
HETATM   23  H   UNL     1      -8.265  16.446  66.065  1.00  0.00     0.000 HD 
HETATM   24  O   UNL     1     -10.323  18.057  66.205  1.00  0.00    -0.389 OA 
HETATM   25  C   UNL     1     -10.462   6.671  68.912  1.00  0.00    -0.239 A  
HETATM   26  O   UNL     1      -8.511  15.762  66.676  1.00  0.00    -0.239 OA 
HETATM   27  C   UNL     1     -10.463   8.060  68.668  1.00  0.00    -0.196 A  
BRANCH  21  28
HETATM   28  O   UNL     1     -10.052   4.359  68.201  1.00  0.00    -0.051 OA 
BRANCH  28  29
HETATM   29  C   UNL     1      -8.898   3.615  68.539  1.00  0.00    -0.114 C  
HETATM   30  C   UNL     1      -5.567   3.513  67.243  1.00  0.00    -0.021 C  
HETATM   31  N   UNL     1      -8.002   3.417  67.495  1.00  0.00    -0.080 N  
HETATM   32  C   UNL     1      -6.754   2.702  67.756  1.00  0.00    -0.040 C  
HETATM   33  O   UNL     1      -8.670   3.188  69.669  1.00  0.00    -0.062 OA 
HETATM   34  C   UNL     1      -8.234   3.772  66.101  1.00  0.00    -0.101 C  
HETATM   35  C   UNL     1      -7.038   4.542  65.534  1.00  0.00    -0.067 C  
HETATM   36  C   UNL     1      -5.690   3.790  65.726  1.00  0.00    -0.018 C  
BRANCH  36  37
HETATM   37  N   UNL     1      -5.577   2.564  64.888  1.00  0.00    -0.009 NA 
HETATM   38  C   UNL     1      -6.476   1.469  65.310  1.00  0.00    -0.023 C  
HETATM   39  C   UNL     1      -7.959   1.748  65.044  1.00  0.00    -0.073 C  
HETATM   40  C   UNL     1      -8.208   2.095  63.579  1.00  0.00    -0.077 C  
HETATM   41  C   UNL     1      -7.235   3.162  63.087  1.00  0.00    -0.049 C  
HETATM   42  C   UNL     1      -5.792   2.790  63.442  1.00  0.00    -0.010 C  
ENDBRANCH  36  37
ENDBRANCH  28  29
ENDBRANCH  21  28
BRANCH  22  43
HETATM   43  C   UNL     1     -10.316  15.339  65.163  1.00  0.00    -0.413 C  
HETATM   44  C   UNL     1     -11.600  14.537  64.982  1.00  0.00    -0.382 C  
ENDBRANCH  22  43
ENDBRANCH   2   3
TORSDOF 5
ENDMDL
MODEL       74
REMARK 921   NORMALIZED FREE ENERGY PREDICTED BY IDOCK:    1.55 KCAL/MOL
REMARK 922        TOTAL FREE ENERGY PREDICTED BY IDOCK:    0.97 KCAL/MOL
REMARK 923 INTER-LIGAND FREE ENERGY PREDICTED BY IDOCK:   -7.35 KCAL/MOL
REMARK 924 INTRA-LIGAND FREE ENERGY PREDICTED BY IDOCK:    8.32 KCAL/MOL
REMARK 927      BINDING AFFINITY PREDICTED BY RF-SCORE:    0.00 PKD
ROOT
HETATM    1  C   UNL     1     -12.216  13.608  64.524  1.00  0.00    -0.444 C  
HETATM    2  C   UNL     1     -10.857  13.783  65.178  1.00  0.00    -0.349 C  
ENDROOT
BRANCH   2   3
HETATM    3  C   UNL     1     -10.585  12.742  66.239  1.00  0.00    -0.275 A  
HETATM    4  C   UNL     1     -10.035  11.526  65.879  1.00  0.00    -0.267 A  
HETATM    5  C   UNL     1      -9.553  11.092  64.538  1.00  0.00    -0.250 A  
HETATM    6  N   UNL     1      -9.146   9.720  64.778  1.00  0.00    -0.226 N  
HETATM    7  C   UNL     1      -9.342   9.337  66.093  1.00  0.00    -0.212 A  
HETATM    8  C   UNL     1      -9.025   8.087  66.461  1.00  0.00    -0.188 C  
HETATM    9  C   UNL     1      -9.898  10.507  66.816  1.00  0.00    -0.193 A  
HETATM   10  N   UNL     1     -10.275  10.606  68.107  1.00  0.00    -0.162 NA 
HETATM   11  C   UNL     1      -8.544   7.126  65.444  1.00  0.00    -0.046 C  
HETATM   12  C   UNL     1      -8.329   7.539  64.182  1.00  0.00     0.116 C  
HETATM   13  C   UNL     1     -10.788  11.817  68.491  1.00  0.00    -0.224 A  
HETATM   14  C   UNL     1     -11.238  12.034  69.803  1.00  0.00    -0.105 A  
HETATM   15  C   UNL     1      -8.615   8.944  63.788  1.00  0.00    -0.087 C  
HETATM   16  C   UNL     1      -7.838   6.681  63.077  1.00  0.00    -0.103 C  
HETATM   17  C   UNL     1     -11.803  13.260  70.235  1.00  0.00    -0.307 A  
HETATM   18  O   UNL     1      -8.403   9.339  62.646  1.00  0.00    -0.160 OA 
HETATM   19  O   UNL     1      -7.776   5.280  63.379  1.00  0.00    -0.068 OA 
HETATM   20  C   UNL     1      -7.945   4.743  64.603  1.00  0.00    -0.099 C  
HETATM   21  C   UNL     1     -11.898  14.321  69.345  1.00  0.00    -0.326 A  
HETATM   22  C   UNL     1      -8.299   5.678  65.804  1.00  0.00    -0.132 C  
HETATM   23  H   UNL     1      -7.036   4.764  66.949  1.00  0.00     0.000 HD 
HETATM   24  O   UNL     1      -7.760   3.536  64.754  1.00  0.00    -0.076 OA 
HETATM   25  C   UNL     1     -11.390  14.159  68.063  1.00  0.00    -0.324 A  
HETATM   26  O   UNL     1      -7.191   5.673  66.723  1.00  0.00    -0.072 OA 
HETATM   27  C   UNL     1     -10.915  12.917  67.597  1.00  0.00    -0.274 A  
BRANCH  21  28
HETATM   28  O   UNL     1     -12.474  15.549  69.771  1.00  0.00    -0.303 OA 
BRANCH  28  29
HETATM   29  C   UNL     1     -11.643  16.579  70.267  1.00  0.00     0.162 C  
HETATM   30  C   UNL     1     -10.031  19.386  68.748  1.00  0.00    -0.522 C  
HETATM   31  N   UNL     1     -10.767  17.125  69.335  1.00  0.00    -0.213 N  
HETATM   32  C   UNL     1      -9.900  18.231  69.737  1.00  0.00     0.656 C  
HETATM   33  O   UNL     1     -11.688  16.995  71.423  1.00  0.00     0.358 OA 
HETATM   34  C   UNL     1     -10.549  16.624  67.984  1.00  0.00    -0.338 C  
HETATM   35  C   UNL     1     -10.618  17.766  66.967  1.00  0.00    -0.266 C  
HETATM   36  C   UNL     1      -9.661  18.943  67.313  1.00  0.00    -0.307 C  
BRANCH  36  37
HETATM   37  N   UNL     1      -8.222  18.595  67.152  1.00  0.00    -0.248 NA 
HETATM   38  C   UNL     1      -7.538  18.284  68.425  1.00  0.00    -0.290 C  
HETATM   39  C   UNL     1      -7.985  16.964  69.062  1.00  0.00    -0.169 C  
HETATM   40  C   UNL     1      -7.837  15.797  68.090  1.00  0.00    -0.133 C  
HETATM   41  C   UNL     1      -8.458  16.121  66.734  1.00  0.00    -0.289 C  
HETATM   42  C   UNL     1      -7.964  17.476  66.219  1.00  0.00    -0.268 C  
ENDBRANCH  36  37
ENDBRANCH  28  29
ENDBRANCH  21  28
BRANCH  22  43
HETATM   43  C   UNL     1      -9.490   5.031  66.555  1.00  0.00    -0.151 C  
HETATM   44  C   UNL     1     -10.839   5.709  66.345  1.00  0.00    -0.172 C  
ENDBRANCH  22  43
ENDBRANCH   2   3
TORSDOF 5
ENDMDL
MODEL       75
REMARK 921   NORMALIZED FREE ENERGY PREDICTED BY IDOCK:    1.66 KCAL/MOL
REMARK 922        TOTAL FREE ENERGY PREDICTED BY IDOCK:    1.12 KCAL/MOL
REMARK 923 INTER-LIGAND FREE ENERGY PREDICTED BY IDOCK:   -4.65 KCAL/MOL
REMARK 924 INTRA-LIGAND FREE ENERGY PREDICTED BY IDOCK:    5.77 KCAL/MOL
REMARK 927      BINDING AFFINITY PREDICTED BY RF-SCORE:    0.00 PKD
ROOT
HETATM    1  C   UNL     1     -10.973  14.960  68.620  1.00  0.00    -0.263 C  
HETATM    2  C   UNL     1     -10.027  14.248  69.570  1.00  0.00     0.278 C  
ENDROOT
BRANCH   2   3
HETATM    3  C   UNL     1      -8.770  13.766  68.884  1.00  0.00     0.146 A  
HETATM    4  C   UNL     1      -8.761  12.533  68.259  1.00  0.00    -0.171 A  
HETATM    5  C   UNL     1      -9.897  11.590  68.063  1.00  0.00    -0.188 A  
HETATM    6  N   UNL     1      -9.263  10.465  67.401  1.00  0.00    -0.142 N  
HETATM    7  C   UNL     1      -7.909  10.669  67.203  1.00  0.00    -0.117 A  
HETATM    8  C   UNL     1      -7.185   9.706  66.613  1.00  0.00    -0.086 C  
HETATM    9  C   UNL     1      -7.581  12.014  67.737  1.00  0.00    -0.130 A  
HETATM   10  N   UNL     1      -6.387  12.637  67.792  1.00  0.00    -0.113 NA 
HETATM   11  C   UNL     1      -7.830   8.423  66.257  1.00  0.00    -0.098 C  
HETATM   12  C   UNL     1      -9.155   8.270  66.429  1.00  0.00    -0.226 C  
HETATM   13  C   UNL     1      -6.382  13.876  68.376  1.00  0.00    -0.104 A  
HETATM   14  C   UNL     1      -5.195  14.612  68.514  1.00  0.00    -0.103 A  
HETATM   15  C   UNL     1      -9.972   9.363  67.018  1.00  0.00    -0.221 C  
HETATM   16  C   UNL     1      -9.921   7.043  66.100  1.00  0.00     0.249 C  
HETATM   17  C   UNL     1      -5.141  15.884  69.137  1.00  0.00    -0.104 A  
HETATM   18  O   UNL     1     -11.184   9.244  67.160  1.00  0.00     0.137 OA 
HETATM   19  O   UNL     1      -9.120   5.905  65.748  1.00  0.00    -0.154 OA 
HETATM   20  C   UNL     1      -7.792   5.933  65.522  1.00  0.00    -0.103 C  
HETATM   21  C   UNL     1      -6.309  16.463  69.614  1.00  0.00    -0.211 A  
HETATM   22  C   UNL     1      -7.014   7.275  65.707  1.00  0.00    -0.061 C  
HETATM   23  H   UNL     1      -6.021   6.980  64.073  1.00  0.00     0.000 HD 
HETATM   24  O   UNL     1      -7.237   4.911  65.120  1.00  0.00    -0.062 OA 
HETATM   25  C   UNL     1      -7.509  15.792  69.422  1.00  0.00    -0.216 A  
HETATM   26  O   UNL     1      -6.534   7.701  64.419  1.00  0.00    -0.047 OA 
HETATM   27  C   UNL     1      -7.561  14.488  68.890  1.00  0.00    -0.138 A  
BRANCH  21  28
HETATM   28  O   UNL     1      -6.257  17.733  70.250  1.00  0.00    -0.059 OA 
BRANCH  28  29
HETATM   29  C   UNL     1      -6.105  18.902  69.470  1.00  0.00    -0.270 C  
HETATM   30  C   UNL     1      -8.419  21.168  67.955  1.00  0.00     0.416 C  
HETATM   31  N   UNL     1      -7.159  19.170  68.605  1.00  0.00    -0.304 N  
HETATM   32  C   UNL     1      -7.120  20.384  67.791  1.00  0.00    -0.309 C  
HETATM   33  O   UNL     1      -5.136  19.654  69.551  1.00  0.00    -0.175 OA 
HETATM   34  C   UNL     1      -8.287  18.284  68.345  1.00  0.00    -0.307 C  
HETATM   35  C   UNL     1      -9.609  19.050  68.447  1.00  0.00    -0.429 C  
HETATM   36  C   UNL     1      -9.645  20.317  67.545  1.00  0.00    -0.425 C  
BRANCH  36  37
HETATM   37  N   UNL     1      -9.687  20.001  66.091  1.00  0.00    -0.428 NA 
HETATM   38  C   UNL     1      -8.454  19.366  65.582  1.00  0.00     0.354 C  
HETATM   39  C   UNL     1      -8.242  17.934  66.084  1.00  0.00    -0.185 C  
HETATM   40  C   UNL     1      -9.450  17.051  65.778  1.00  0.00     0.007 C  
HETATM   41  C   UNL     1     -10.751  17.720  66.213  1.00  0.00    -0.098 C  
HETATM   42  C   UNL     1     -10.830  19.154  65.683  1.00  0.00    -0.137 C  
ENDBRANCH  36  37
ENDBRANCH  28  29
ENDBRANCH  21  28
BRANCH  22  43
HETATM   43  C   UNL     1      -5.757   6.963  66.559  1.00  0.00    -0.022 C  
HETATM   44  C   UNL     1      -6.001   6.833  68.058  1.00  0.00    -0.031 C  
ENDBRANCH  22  43
ENDBRANCH   2   3
TORSDOF 5
ENDMDL
MODEL       76
REMARK 921   NORMALIZED FREE ENERGY PREDICTED BY IDOCK:    1.70 KCAL/MOL
REMARK 922        TOTAL FREE ENERGY PREDICTED BY IDOCK:    1.18 KCAL/MOL
REMARK 923 INTER-LIGAND FREE ENERGY PREDICTED BY IDOCK:   -2.51 KCAL/MOL
REMARK 924 INTRA-LIGAND FREE ENERGY PREDICTED BY IDOCK:    3.69 KCAL/MOL
REMARK 927      BINDING AFFINITY PREDICTED BY RF-SCORE:    0.00 PKD
ROOT
HETATM    1  C   UNL     1     -12.017  10.471  71.637  1.00  0.00    -0.073 C  
HETATM    2  C   UNL     1     -11.911  11.416  70.455  1.00  0.00    -0.465 C  
ENDROOT
BRANCH   2   3
HETATM    3  C   UNL     1     -11.142  10.818  69.300  1.00  0.00    -0.312 A  
HETATM    4  C   UNL     1     -10.550   9.577  69.442  1.00  0.00    -0.235 A  
HETATM    5  C   UNL     1     -10.639   8.639  70.596  1.00  0.00    -0.211 A  
HETATM    6  N   UNL     1      -9.775   7.549  70.184  1.00  0.00    -0.172 N  
HETATM    7  C   UNL     1      -9.215   7.765  68.937  1.00  0.00    -0.140 A  
HETATM    8  C   UNL     1      -8.381   6.847  68.430  1.00  0.00    -0.120 C  
HETATM    9  C   UNL     1      -9.729   9.066  68.442  1.00  0.00    -0.156 A  
HETATM   10  N   UNL     1      -9.444   9.708  67.291  1.00  0.00    -0.141 NA 
HETATM   11  C   UNL     1      -8.018   5.663  69.240  1.00  0.00    -0.096 C  
HETATM   12  C   UNL     1      -8.606   5.463  70.433  1.00  0.00    -0.127 C  
HETATM   13  C   UNL     1     -10.051  10.924  67.116  1.00  0.00    -0.198 A  
HETATM   14  C   UNL     1      -9.813  11.698  65.969  1.00  0.00    -0.258 A  
HETATM   15  C   UNL     1      -9.586   6.446  70.966  1.00  0.00    -0.175 C  
HETATM   16  C   UNL     1      -8.341   4.314  71.332  1.00  0.00    -0.090 C  
HETATM   17  C   UNL     1     -10.396  12.973  65.762  1.00  0.00    -0.296 A  
HETATM   18  O   UNL     1     -10.145   6.264  72.043  1.00  0.00    -0.182 OA 
HETATM   19  O   UNL     1      -7.238   3.481  70.942  1.00  0.00    -0.033 OA 
HETATM   20  C   UNL     1      -6.584   3.563  69.767  1.00  0.00    -0.033 C  
HETATM   21  C   UNL     1     -11.271  13.488  66.708  1.00  0.00    -0.310 A  
HETATM   22  C   UNL     1      -6.984   4.676  68.746  1.00  0.00    -0.052 C  
HETATM   23  H   UNL     1      -6.903   3.423  67.275  1.00  0.00     0.000 HD 
HETATM   24  O   UNL     1      -5.726   2.721  69.505  1.00  0.00    -0.020 OA 
HETATM   25  C   UNL     1     -11.584  12.711  67.815  1.00  0.00    -0.403 A  
HETATM   26  O   UNL     1      -7.552   4.043  67.585  1.00  0.00    -0.068 OA 
HETATM   27  C   UNL     1     -10.938  11.486  68.077  1.00  0.00    -0.284 A  
BRANCH  21  28
HETATM   28  O   UNL     1     -11.849  14.772  66.509  1.00  0.00    -0.332 OA 
BRANCH  28  29
HETATM   29  C   UNL     1     -11.026  15.862  66.147  1.00  0.00    -0.126 C  
HETATM   30  C   UNL     1      -7.526  16.519  66.468  1.00  0.00    -0.270 C  
HETATM   31  N   UNL     1      -9.880  16.013  66.919  1.00  0.00    -0.239 N  
HETATM   32  C   UNL     1      -8.938  17.083  66.592  1.00  0.00    -0.254 C  
HETATM   33  O   UNL     1     -11.271  16.619  65.210  1.00  0.00    -0.102 OA 
HETATM   34  C   UNL     1      -9.563  15.253  68.121  1.00  0.00    -0.204 C  
HETATM   35  C   UNL     1      -8.130  14.716  68.057  1.00  0.00    -0.135 C  
HETATM   36  C   UNL     1      -7.079  15.828  67.778  1.00  0.00    -0.151 C  
BRANCH  36  37
HETATM   37  N   UNL     1      -6.907  16.772  68.917  1.00  0.00    -0.186 NA 
HETATM   38  C   UNL     1      -8.024  16.747  69.885  1.00  0.00     1.168 C  
HETATM   39  C   UNL     1      -8.100  15.460  70.712  1.00  0.00     2.039 C  
HETATM   40  C   UNL     1      -6.781  15.178  71.427  1.00  0.00     1.251 C  
HETATM   41  C   UNL     1      -5.596  15.282  70.470  1.00  0.00    -0.129 C  
HETATM   42  C   UNL     1      -5.650  16.590  69.676  1.00  0.00    -0.165 C  
ENDBRANCH  36  37
ENDBRANCH  28  29
ENDBRANCH  21  28
BRANCH  22  43
HETATM   43  C   UNL     1      -5.675   5.357  68.273  1.00  0.00    -0.016 C  
HETATM   44  C   UNL     1      -5.274   6.609  69.047  1.00  0.00    -0.013 C  
ENDBRANCH  22  43
ENDBRANCH   2   3
TORSDOF 5
ENDMDL
MODEL       77
REMARK 921   NORMALIZED FREE ENERGY PREDICTED BY IDOCK:    2.24 KCAL/MOL
REMARK 922        TOTAL FREE ENERGY PREDICTED BY IDOCK:    1.87 KCAL/MOL
REMARK 923 INTER-LIGAND FREE ENERGY PREDICTED BY IDOCK:   -4.09 KCAL/MOL
REMARK 924 INTRA-LIGAND FREE ENERGY PREDICTED BY IDOCK:    5.96 KCAL/MOL
REMARK 927      BINDING AFFINITY PREDICTED BY RF-SCORE:    0.00 PKD
ROOT
HETATM    1  C   UNL     1      -9.704  11.854  66.647  1.00  0.00    -0.220 C  
HETATM    2  C   UNL     1      -8.263  11.458  66.380  1.00  0.00    -0.124 C  
ENDROOT
BRANCH   2   3
HETATM    3  C   UNL     1      -7.623  10.766  67.562  1.00  0.00    -0.094 A  
HETATM    4  C   UNL     1      -7.818   9.410  67.748  1.00  0.00    -0.095 A  
HETATM    5  C   UNL     1      -8.527   8.449  66.857  1.00  0.00    -0.117 A  
HETATM    6  N   UNL     1      -8.448   7.209  67.605  1.00  0.00    -0.120 N  
HETATM    7  C   UNL     1      -7.778   7.362  68.806  1.00  0.00    -0.119 A  
HETATM    8  C   UNL     1      -7.639   6.301  69.614  1.00  0.00    -0.094 C  
HETATM    9  C   UNL     1      -7.350   8.780  68.896  1.00  0.00    -0.078 A  
HETATM   10  N   UNL     1      -6.693   9.406  69.892  1.00  0.00    -0.052 NA 
HETATM   11  C   UNL     1      -8.265   5.013  69.242  1.00  0.00    -0.083 C  
HETATM   12  C   UNL     1      -8.877   4.886  68.051  1.00  0.00    -0.112 C  
HETATM   13  C   UNL     1      -6.458  10.744  69.709  1.00  0.00    -0.118 A  
HETATM   14  C   UNL     1      -5.805  11.509  70.688  1.00  0.00    -0.087 A  
HETATM   15  C   UNL     1      -8.971   6.044  67.123  1.00  0.00    -0.114 C  
HETATM   16  C   UNL     1      -9.529   3.649  67.556  1.00  0.00    -0.191 C  
HETATM   17  C   UNL     1      -5.568  12.900  70.552  1.00  0.00    -0.174 A  
HETATM   18  O   UNL     1      -9.508   5.935  66.026  1.00  0.00    -0.144 OA 
HETATM   19  O   UNL     1      -9.648   2.597  68.525  1.00  0.00    -0.176 OA 
HETATM   20  C   UNL     1      -9.063   2.592  69.738  1.00  0.00    -0.116 C  
HETATM   21  C   UNL     1      -5.965  13.552  69.392  1.00  0.00    -0.097 A  
HETATM   22  C   UNL     1      -8.231   3.835  70.190  1.00  0.00    -0.056 C  
HETATM   23  H   UNL     1      -6.830   2.702  70.893  1.00  0.00     0.000 HD 
HETATM   24  O   UNL     1      -9.152   1.583  70.436  1.00  0.00    -0.068 OA 
HETATM   25  C   UNL     1      -6.544  12.805  68.376  1.00  0.00    -0.083 A  
HETATM   26  O   UNL     1      -6.851   3.442  70.297  1.00  0.00    -0.033 OA 
HETATM   27  C   UNL     1      -6.868  11.443  68.539  1.00  0.00    -0.073 A  
BRANCH  21  28
HETATM   28  O   UNL     1      -5.739  14.949  69.257  1.00  0.00    -0.096 OA 
BRANCH  28  29
HETATM   29  C   UNL     1      -6.145  15.614  68.078  1.00  0.00    -0.138 C  
HETATM   30  C   UNL     1      -8.357  18.348  67.431  1.00  0.00    -0.256 C  
HETATM   31  N   UNL     1      -7.400  16.208  68.143  1.00  0.00    -0.129 N  
HETATM   32  C   UNL     1      -7.890  16.964  66.991  1.00  0.00    -0.199 C  
HETATM   33  O   UNL     1      -5.450  15.695  67.067  1.00  0.00    -0.291 OA 
HETATM   34  C   UNL     1      -8.348  16.066  69.240  1.00  0.00    -0.217 C  
HETATM   35  C   UNL     1      -8.881  17.434  69.674  1.00  0.00     0.915 C  
HETATM   36  C   UNL     1      -9.478  18.252  68.493  1.00  0.00    -0.331 C  
BRANCH  36  37
HETATM   37  N   UNL     1     -10.747  17.681  67.965  1.00  0.00    -0.376 NA 
HETATM   38  C   UNL     1     -11.209  18.312  66.711  1.00  0.00     0.636 C  
HETATM   39  C   UNL     1     -10.333  17.991  65.496  1.00  0.00     0.104 C  
HETATM   40  C   UNL     1     -10.183  16.485  65.299  1.00  0.00    -0.062 C  
HETATM   41  C   UNL     1      -9.792  15.790  66.600  1.00  0.00    -0.266 C  
HETATM   42  C   UNL     1     -10.714  16.218  67.745  1.00  0.00    -0.325 C  
ENDBRANCH  36  37
ENDBRANCH  28  29
ENDBRANCH  21  28
BRANCH  22  43
HETATM   43  C   UNL     1      -8.693   4.200  71.624  1.00  0.00    -0.137 C  
HETATM   44  C   UNL     1      -7.572   4.488  72.617  1.00  0.00    -0.085 C  
ENDBRANCH  22  43
ENDBRANCH   2   3
TORSDOF 5
ENDMDL
MODEL       78
REMARK 921   NORMALIZED FREE ENERGY PREDICTED BY IDOCK:    2.42 KCAL/MOL
REMARK 922        TOTAL FREE ENERGY PREDICTED BY IDOCK:    2.10 KCAL/MOL
REMARK 923 INTER-LIGAND FREE ENERGY PREDICTED BY IDOCK:   -5.25 KCAL/MOL
REMARK 924 INTRA-LIGAND FREE ENERGY PREDICTED BY IDOCK:    7.35 KCAL/MOL
REMARK 927      BINDING AFFINITY PREDICTED BY RF-SCORE:    0.00 PKD
ROOT
HETATM    1  C   UNL     1      -6.046  13.103  70.257  1.00  0.00    -0.079 C  
HETATM    2  C   UNL     1      -6.064  11.999  69.215  1.00  0.00    -0.088 C  
ENDROOT
BRANCH   2   3
HETATM    3  C   UNL     1      -7.378  11.255  69.181  1.00  0.00    -0.104 A  
HETATM    4  C   UNL     1      -7.463   9.991  69.736  1.00  0.00    -0.152 A  
HETATM    5  C   UNL     1      -6.420   9.244  70.493  1.00  0.00    -0.067 A  
HETATM    6  N   UNL     1      -7.073   7.977  70.762  1.00  0.00    -0.047 N  
HETATM    7  C   UNL     1      -8.357   7.928  70.248  1.00  0.00    -0.126 A  
HETATM    8  C   UNL     1      -9.081   6.810  70.407  1.00  0.00    -0.153 C  
HETATM    9  C   UNL     1      -8.624   9.236  69.600  1.00  0.00    -0.150 A  
HETATM   10  N   UNL     1      -9.725   9.647  68.941  1.00  0.00    -0.157 NA 
HETATM   11  C   UNL     1      -8.469   5.632  71.060  1.00  0.00    -0.122 C  
HETATM   12  C   UNL     1      -7.233   5.722  71.582  1.00  0.00    -0.086 C  
HETATM   13  C   UNL     1      -9.673  10.911  68.415  1.00  0.00    -0.176 A  
HETATM   14  C   UNL     1     -10.748  11.442  67.685  1.00  0.00    -0.261 A  
HETATM   15  C   UNL     1      -6.455   6.985  71.468  1.00  0.00    -0.041 C  
HETATM   16  C   UNL     1      -6.516   4.622  72.271  1.00  0.00    -0.030 C  
HETATM   17  C   UNL     1     -10.725  12.732  67.100  1.00  0.00    -0.264 A  
HETATM   18  O   UNL     1      -5.336   7.086  71.958  1.00  0.00    -0.035 OA 
HETATM   19  O   UNL     1      -7.154   3.339  72.190  1.00  0.00    -0.036 OA 
HETATM   20  C   UNL     1      -8.395   3.120  71.715  1.00  0.00    -0.062 C  
HETATM   21  C   UNL     1      -9.609  13.540  67.268  1.00  0.00    -0.235 A  
HETATM   22  C   UNL     1      -9.216   4.319  71.141  1.00  0.00    -0.139 C  
HETATM   23  H   UNL     1     -10.814   3.725  72.056  1.00  0.00     0.000 HD 
HETATM   24  O   UNL     1      -8.872   1.989  71.798  1.00  0.00    -0.068 OA 
HETATM   25  C   UNL     1      -8.562  13.071  68.049  1.00  0.00    -0.186 A  
HETATM   26  O   UNL     1     -10.344   4.550  72.005  1.00  0.00    -0.192 OA 
HETATM   27  C   UNL     1      -8.536  11.756  68.555  1.00  0.00    -0.125 A  
BRANCH  21  28
HETATM   28  O   UNL     1      -9.577  14.830  66.672  1.00  0.00    -0.246 OA 
BRANCH  28  29
HETATM   29  C   UNL     1      -8.408  15.620  66.771  1.00  0.00    -0.278 C  
HETATM   30  C   UNL     1      -7.536  18.493  68.712  1.00  0.00    -0.309 C  
HETATM   31  N   UNL     1      -8.622  16.936  67.164  1.00  0.00    -0.192 N  
HETATM   32  C   UNL     1      -7.471  17.820  67.344  1.00  0.00    -0.196 C  
HETATM   33  O   UNL     1      -7.276  15.192  66.555  1.00  0.00     0.274 OA 
HETATM   34  C   UNL     1      -9.924  17.571  67.322  1.00  0.00    -0.312 C  
HETATM   35  C   UNL     1     -10.006  18.305  68.664  1.00  0.00    -0.410 C  
HETATM   36  C   UNL     1      -8.839  19.311  68.875  1.00  0.00    -0.296 C  
BRANCH  36  37
HETATM   37  N   UNL     1      -8.913  20.494  67.974  1.00  0.00    -0.021 NA 
HETATM   38  C   UNL     1      -8.089  20.367  66.754  1.00  0.00    -0.228 C  
HETATM   39  C   UNL     1      -8.616  19.332  65.755  1.00  0.00     0.208 C  
HETATM   40  C   UNL     1     -10.069  19.608  65.379  1.00  0.00     0.236 C  
HETATM   41  C   UNL     1     -10.932  19.832  66.618  1.00  0.00    -0.284 C  
HETATM   42  C   UNL     1     -10.285  20.857  67.555  1.00  0.00     0.240 C  
ENDBRANCH  36  37
ENDBRANCH  28  29
ENDBRANCH  21  28
BRANCH  22  43
HETATM   43  C   UNL     1      -9.797   3.868  69.778  1.00  0.00    -0.118 C  
HETATM   44  C   UNL     1      -8.768   3.407  68.751  1.00  0.00    -0.143 C  
ENDBRANCH  22  43
ENDBRANCH   2   3
TORSDOF 5
ENDMDL
MODEL       79
REMARK 921   NORMALIZED FREE ENERGY PREDICTED BY IDOCK:    2.60 KCAL/MOL
REMARK 922        TOTAL FREE ENERGY PREDICTED BY IDOCK:    2.33 KCAL/MOL
REMARK 923 INTER-LIGAND FREE ENERGY PREDICTED BY IDOCK:   -5.23 KCAL/MOL
REMARK 924 INTRA-LIGAND FREE ENERGY PREDICTED BY IDOCK:    7.56 KCAL/MOL
REMARK 927      BINDING AFFINITY PREDICTED BY RF-SCORE:    0.00 PKD
ROOT
HETATM    1  C   UNL     1     -11.026  15.838  69.769  1.00  0.00    -0.316 C  
HETATM    2  C   UNL     1     -10.049  14.690  69.592  1.00  0.00     0.071 C  
ENDROOT
BRANCH   2   3
HETATM    3  C   UNL     1     -10.226  13.976  68.271  1.00  0.00    -0.249 A  
HETATM    4  C   UNL     1     -10.011  12.612  68.198  1.00  0.00    -0.225 A  
HETATM    5  C   UNL     1      -9.706  11.664  69.306  1.00  0.00     0.359 A  
HETATM    6  N   UNL     1      -9.536  10.405  68.606  1.00  0.00    -0.158 N  
HETATM    7  C   UNL     1      -9.712  10.536  67.239  1.00  0.00    -0.169 A  
HETATM    8  C   UNL     1      -9.571   9.455  66.458  1.00  0.00    -0.267 C  
HETATM    9  C   UNL     1     -10.039  11.957  66.970  1.00  0.00    -0.205 A  
HETATM   10  N   UNL     1     -10.266  12.567  65.789  1.00  0.00    -0.266 NA 
HETATM   11  C   UNL     1      -9.159   8.168  67.061  1.00  0.00    -0.170 C  
HETATM   12  C   UNL     1      -9.033   8.064  68.396  1.00  0.00    -0.133 C  
HETATM   13  C   UNL     1     -10.517  13.913  65.846  1.00  0.00    -0.305 A  
HETATM   14  C   UNL     1     -10.744  14.662  64.681  1.00  0.00    -0.309 A  
HETATM   15  C   UNL     1      -9.257   9.245  69.270  1.00  0.00    -0.152 C  
HETATM   16  C   UNL     1      -8.642   6.831  69.121  1.00  0.00    -0.131 C  
HETATM   17  C   UNL     1     -10.978  16.059  64.692  1.00  0.00    -0.297 A  
HETATM   18  O   UNL     1      -9.166   9.158  70.490  1.00  0.00    -0.200 OA 
HETATM   19  O   UNL     1      -8.201   5.750  68.285  1.00  0.00    -0.106 OA 
HETATM   20  C   UNL     1      -8.298   5.721  66.942  1.00  0.00    -0.108 C  
HETATM   21  C   UNL     1     -11.020  16.737  65.903  1.00  0.00     0.087 A  
HETATM   22  C   UNL     1      -8.871   6.965  66.190  1.00  0.00    -0.147 C  
HETATM   23  H   UNL     1      -9.944   5.836  65.042  1.00  0.00     0.000 HD 
HETATM   24  O   UNL     1      -7.984   4.691  66.346  1.00  0.00    -0.101 OA 
HETATM   25  C   UNL     1     -10.876  16.009  67.076  1.00  0.00    -0.227 A  
HETATM   26  O   UNL     1     -10.125   6.592  65.589  1.00  0.00     0.608 OA 
HETATM   27  C   UNL     1     -10.549  14.637  67.071  1.00  0.00    -0.280 A  
BRANCH  21  28
HETATM   28  O   UNL     1     -11.243  18.140  65.918  1.00  0.00     0.361 OA 
BRANCH  28  29
HETATM   29  C   UNL     1     -10.142  19.026  65.871  1.00  0.00    -0.236 C  
HETATM   30  C   UNL     1      -6.598  18.551  65.898  1.00  0.00    -0.299 C  
HETATM   31  N   UNL     1      -8.981  18.548  66.468  1.00  0.00    -0.296 N  
HETATM   32  C   UNL     1      -7.771  19.370  66.428  1.00  0.00    -0.285 C  
HETATM   33  O   UNL     1     -10.176  20.128  65.328  1.00  0.00    -0.220 OA 
HETATM   34  C   UNL     1      -8.870  17.319  67.241  1.00  0.00    -0.222 C  
HETATM   35  C   UNL     1      -7.668  16.493  66.773  1.00  0.00    -0.294 C  
HETATM   36  C   UNL     1      -6.340  17.304  66.777  1.00  0.00    -0.203 C  
BRANCH  36  37
HETATM   37  N   UNL     1      -5.858  17.635  68.147  1.00  0.00    -0.153 NA 
HETATM   38  C   UNL     1      -6.923  18.114  69.054  1.00  0.00    -0.254 C  
HETATM   39  C   UNL     1      -7.925  17.029  69.460  1.00  0.00     0.430 C  
HETATM   40  C   UNL     1      -7.223  15.819  70.070  1.00  0.00     0.231 C  
HETATM   41  C   UNL     1      -6.060  15.353  69.199  1.00  0.00    -0.108 C  
HETATM   42  C   UNL     1      -5.151  16.529  68.829  1.00  0.00    -0.120 C  
ENDBRANCH  36  37
ENDBRANCH  28  29
ENDBRANCH  21  28
BRANCH  22  43
HETATM   43  C   UNL     1      -7.904   7.281  65.022  1.00  0.00    -0.125 C  
HETATM   44  C   UNL     1      -6.446   7.485  65.418  1.00  0.00    -0.041 C  
ENDBRANCH  22  43
ENDBRANCH   2   3
TORSDOF 5
ENDMDL
MODEL       80
REMARK 921   NORMALIZED FREE ENERGY PREDICTED BY IDOCK:    2.64 KCAL/MOL
REMARK 922        TOTAL FREE ENERGY PREDICTED BY IDOCK:    2.39 KCAL/MOL
REMARK 923 INTER-LIGAND FREE ENERGY PREDICTED BY IDOCK:   -4.19 KCAL/MOL
REMARK 924 INTRA-LIGAND FREE ENERGY PREDICTED BY IDOCK:    6.58 KCAL/MOL
REMARK 927      BINDING AFFINITY PREDICTED BY RF-SCORE:    0.00 PKD
ROOT
HETATM    1  C   UNL     1      -5.650   7.622  68.119  1.00  0.00    -0.028 C  
HETATM    2  C   UNL     1      -5.272   9.091  68.106  1.00  0.00    -0.034 C  
ENDROOT
BRANCH   2   3
HETATM    3  C   UNL     1      -6.105   9.897  67.136  1.00  0.00    -0.058 A  
HETATM    4  C   UNL     1      -6.312  11.244  67.368  1.00  0.00    -0.076 A  
HETATM    5  C   UNL     1      -5.728  12.097  68.440  1.00  0.00    -0.053 A  
HETATM    6  N   UNL     1      -6.356  13.382  68.198  1.00  0.00    -0.099 N  
HETATM    7  C   UNL     1      -7.220  13.349  67.117  1.00  0.00     0.155 A  
HETATM    8  C   UNL     1      -7.885  14.464  66.782  1.00  0.00     0.376 C  
HETATM    9  C   UNL     1      -7.181  11.974  66.563  1.00  0.00     0.276 A  
HETATM   10  N   UNL     1      -7.873  11.457  65.528  1.00  0.00     0.348 NA 
HETATM   11  C   UNL     1      -7.741  15.679  67.614  1.00  0.00    -0.176 C  
HETATM   12  C   UNL     1      -6.866  15.690  68.635  1.00  0.00    -0.120 C  
HETATM   13  C   UNL     1      -7.653  10.131  65.260  1.00  0.00    -0.144 A  
HETATM   14  C   UNL     1      -8.333   9.474  64.223  1.00  0.00    -0.172 A  
HETATM   15  C   UNL     1      -6.075  14.475  68.966  1.00  0.00    -0.090 C  
HETATM   16  C   UNL     1      -6.619  16.845  69.532  1.00  0.00    -0.203 C  
HETATM   17  C   UNL     1      -8.157   8.099  63.931  1.00  0.00    -0.114 A  
HETATM   18  O   UNL     1      -5.258  14.480  69.881  1.00  0.00    -0.092 OA 
HETATM   19  O   UNL     1      -7.531  17.942  69.374  1.00  0.00    -0.056 OA 
HETATM   20  C   UNL     1      -8.433  18.061  68.381  1.00  0.00    -0.298 C  
HETATM   21  C   UNL     1      -7.252   7.352  64.673  1.00  0.00    -0.069 A  
HETATM   22  C   UNL     1      -8.573  16.910  67.334  1.00  0.00    -0.202 C  
HETATM   23  H   UNL     1      -8.664  18.181  65.879  1.00  0.00     0.000 HD 
HETATM   24  O   UNL     1      -9.085  19.101  68.293  1.00  0.00    -0.312 OA 
HETATM   25  C   UNL     1      -6.508   7.994  65.653  1.00  0.00    -0.042 A  
HETATM   26  O   UNL     1      -8.141  17.407  66.055  1.00  0.00    -0.483 OA 
HETATM   27  C   UNL     1      -6.744   9.336  66.014  1.00  0.00    -0.077 A  
BRANCH  21  28
HETATM   28  O   UNL     1      -7.081   5.969  64.390  1.00  0.00    -0.050 OA 
BRANCH  28  29
HETATM   29  C   UNL     1      -8.166   5.080  64.560  1.00  0.00    -0.126 C  
HETATM   30  C   UNL     1     -11.276   5.296  66.311  1.00  0.00     0.354 C  
HETATM   31  N   UNL     1      -8.897   5.263  65.728  1.00  0.00    -0.145 N  
HETATM   32  C   UNL     1     -10.070   4.425  65.972  1.00  0.00    -0.239 C  
HETATM   33  O   UNL     1      -8.475   4.218  63.740  1.00  0.00    -0.095 OA 
HETATM   34  C   UNL     1      -8.542   6.166  66.815  1.00  0.00    -0.111 C  
HETATM   35  C   UNL     1      -9.746   7.021  67.221  1.00  0.00    -0.189 C  
HETATM   36  C   UNL     1     -11.005   6.171  67.558  1.00  0.00    -0.307 C  
BRANCH  36  37
HETATM   37  N   UNL     1     -10.862   5.383  68.815  1.00  0.00    -0.051 NA 
HETATM   38  C   UNL     1      -9.614   4.596  68.886  1.00  0.00    -0.164 C  
HETATM   39  C   UNL     1      -8.352   5.449  69.050  1.00  0.00    -0.100 C  
HETATM   40  C   UNL     1      -8.457   6.375  70.259  1.00  0.00    -0.135 C  
HETATM   41  C   UNL     1      -9.777   7.140  70.260  1.00  0.00    -0.175 C  
HETATM   42  C   UNL     1     -10.959   6.187  70.053  1.00  0.00    -0.372 C  
ENDBRANCH  36  37
ENDBRANCH  28  29
ENDBRANCH  21  28
BRANCH  22  43
HETATM   43  C   UNL     1     -10.085  16.599  67.192  1.00  0.00    -0.276 C  
HETATM   44  C   UNL     1     -11.010  17.451  68.055  1.00  0.00    -0.164 C  
ENDBRANCH  22  43
ENDBRANCH   2   3
TORSDOF 5
ENDMDL
MODEL       81
REMARK 921   NORMALIZED FREE ENERGY PREDICTED BY IDOCK:    2.71 KCAL/MOL
REMARK 922        TOTAL FREE ENERGY PREDICTED BY IDOCK:    2.48 KCAL/MOL
REMARK 923 INTER-LIGAND FREE ENERGY PREDICTED BY IDOCK:   -2.75 KCAL/MOL
REMARK 924 INTRA-LIGAND FREE ENERGY PREDICTED BY IDOCK:    5.23 KCAL/MOL
REMARK 927      BINDING AFFINITY PREDICTED BY RF-SCORE:    0.00 PKD
ROOT
HETATM    1  C   UNL     1      -5.588   9.750  72.045  1.00  0.00     0.058 C  
HETATM    2  C   UNL     1      -6.482  10.809  71.425  1.00  0.00     1.216 C  
ENDROOT
BRANCH   2   3
HETATM    3  C   UNL     1      -6.488  10.751  69.915  1.00  0.00    -0.135 A  
HETATM    4  C   UNL     1      -6.732   9.548  69.278  1.00  0.00    -0.049 A  
HETATM    5  C   UNL     1      -7.106   8.241  69.886  1.00  0.00    -0.055 A  
HETATM    6  N   UNL     1      -7.169   7.362  68.733  1.00  0.00    -0.087 N  
HETATM    7  C   UNL     1      -6.877   8.024  67.553  1.00  0.00    -0.070 A  
HETATM    8  C   UNL     1      -6.882   7.336  66.403  1.00  0.00    -0.061 C  
HETATM    9  C   UNL     1      -6.613   9.443  67.896  1.00  0.00    -0.063 A  
HETATM   10  N   UNL     1      -6.262  10.461  67.084  1.00  0.00    -0.061 NA 
HETATM   11  C   UNL     1      -7.124   5.876  66.426  1.00  0.00    -0.068 C  
HETATM   12  C   UNL     1      -7.442   5.269  67.583  1.00  0.00    -0.083 C  
HETATM   13  C   UNL     1      -6.052  11.670  67.694  1.00  0.00    -0.068 A  
HETATM   14  C   UNL     1      -5.658  12.798  66.957  1.00  0.00     0.323 A  
HETATM   15  C   UNL     1      -7.505   6.045  68.850  1.00  0.00    -0.086 C  
HETATM   16  C   UNL     1      -7.720   3.821  67.737  1.00  0.00    -0.070 C  
HETATM   17  C   UNL     1      -5.401  14.059  67.551  1.00  0.00     0.191 A  
HETATM   18  O   UNL     1      -7.814   5.507  69.908  1.00  0.00    -0.079 OA 
HETATM   19  O   UNL     1      -7.441   3.023  66.577  1.00  0.00    -0.073 OA 
HETATM   20  C   UNL     1      -7.139   3.510  65.357  1.00  0.00    -0.066 C  
HETATM   21  C   UNL     1      -5.571  14.219  68.920  1.00  0.00    -0.083 A  
HETATM   22  C   UNL     1      -7.012   5.055  65.161  1.00  0.00    -0.061 C  
HETATM   23  H   UNL     1      -8.009   4.974  63.506  1.00  0.00     0.000 HD 
HETATM   24  O   UNL     1      -7.027   2.725  64.416  1.00  0.00    -0.046 OA 
HETATM   25  C   UNL     1      -6.034  13.141  69.661  1.00  0.00    -0.116 A  
HETATM   26  O   UNL     1      -8.080   5.490  64.300  1.00  0.00    -0.115 OA 
HETATM   27  C   UNL     1      -6.200  11.860  69.097  1.00  0.00    -0.085 A  
BRANCH  21  28
HETATM   28  O   UNL     1      -5.303  15.479  69.520  1.00  0.00    -0.098 OA 
BRANCH  28  29
HETATM   29  C   UNL     1      -5.919  16.644  69.009  1.00  0.00    -0.156 C  
HETATM   30  C   UNL     1      -9.253  17.929  69.144  1.00  0.00     0.065 C  
HETATM   31  N   UNL     1      -7.281  16.526  68.761  1.00  0.00    -0.184 N  
HETATM   32  C   UNL     1      -8.019  17.692  68.277  1.00  0.00    -0.272 C  
HETATM   33  O   UNL     1      -5.321  17.701  68.814  1.00  0.00    -0.152 OA 
HETATM   34  C   UNL     1      -8.052  15.292  68.839  1.00  0.00    -0.180 C  
HETATM   35  C   UNL     1      -9.329  15.505  69.658  1.00  0.00    -0.224 C  
HETATM   36  C   UNL     1     -10.187  16.695  69.141  1.00  0.00    -0.309 C  
BRANCH  36  37
HETATM   37  N   UNL     1     -10.817  16.432  67.817  1.00  0.00    -0.328 NA 
HETATM   38  C   UNL     1      -9.892  15.853  66.821  1.00  0.00    -0.244 C  
HETATM   39  C   UNL     1      -9.477  14.411  67.125  1.00  0.00    -0.225 C  
HETATM   40  C   UNL     1     -10.693  13.504  67.299  1.00  0.00    -0.272 C  
HETATM   41  C   UNL     1     -11.710  14.117  68.258  1.00  0.00    -0.383 C  
HETATM   42  C   UNL     1     -12.017  15.568  67.873  1.00  0.00     0.138 C  
ENDBRANCH  36  37
ENDBRANCH  28  29
ENDBRANCH  21  28
BRANCH  22  43
HETATM   43  C   UNL     1      -5.695   5.312  64.387  1.00  0.00    -0.017 C  
HETATM   44  C   UNL     1      -5.825   6.208  63.160  1.00  0.00    -0.022 C  
ENDBRANCH  22  43
ENDBRANCH   2   3
TORSDOF 5
ENDMDL
MODEL       82
REMARK 921   NORMALIZED FREE ENERGY PREDICTED BY IDOCK:    3.49 KCAL/MOL
REMARK 922        TOTAL FREE ENERGY PREDICTED BY IDOCK:    3.48 KCAL/MOL
REMARK 923 INTER-LIGAND FREE ENERGY PREDICTED BY IDOCK:   -2.78 KCAL/MOL
REMARK 924 INTRA-LIGAND FREE ENERGY PREDICTED BY IDOCK:    6.27 KCAL/MOL
REMARK 927      BINDING AFFINITY PREDICTED BY RF-SCORE:    0.00 PKD
ROOT
HETATM    1  C   UNL     1      -5.262  12.536  72.042  1.00  0.00     0.139 C  
HETATM    2  C   UNL     1      -6.159  13.611  71.455  1.00  0.00     0.273 C  
ENDROOT
BRANCH   2   3
HETATM    3  C   UNL     1      -6.171  13.595  69.944  1.00  0.00    -0.118 A  
HETATM    4  C   UNL     1      -6.363  12.401  69.274  1.00  0.00    -0.106 A  
HETATM    5  C   UNL     1      -6.673  11.061  69.846  1.00  0.00    -0.125 A  
HETATM    6  N   UNL     1      -6.702  10.214  68.669  1.00  0.00    -0.056 N  
HETATM    7  C   UNL     1      -6.447  10.921  67.507  1.00  0.00    -0.058 A  
HETATM    8  C   UNL     1      -6.427  10.266  66.337  1.00  0.00    -0.087 C  
HETATM    9  C   UNL     1      -6.247  12.341  67.889  1.00  0.00    -0.089 A  
HETATM   10  N   UNL     1      -5.947  13.396  67.105  1.00  0.00    -0.181 NA 
HETATM   11  C   UNL     1      -6.603   8.797  66.320  1.00  0.00    -0.066 C  
HETATM   12  C   UNL     1      -6.886   8.143  67.461  1.00  0.00    -0.070 C  
HETATM   13  C   UNL     1      -5.789  14.596  67.748  1.00  0.00    -0.083 A  
HETATM   14  C   UNL     1      -5.451  15.761  67.042  1.00  0.00     0.432 A  
HETATM   15  C   UNL     1      -6.977   8.879  68.750  1.00  0.00    -0.063 C  
HETATM   16  C   UNL     1      -7.097   6.680  67.575  1.00  0.00    -0.084 C  
HETATM   17  C   UNL     1      -5.249  17.015  67.670  1.00  0.00    -0.137 A  
HETATM   18  O   UNL     1      -7.256   8.298  69.794  1.00  0.00    -0.058 OA 
HETATM   19  O   UNL     1      -6.788   5.929  66.391  1.00  0.00    -0.056 OA 
HETATM   20  C   UNL     1      -6.515   6.463  65.185  1.00  0.00    -0.038 C  
HETATM   21  C   UNL     1      -5.418  17.128  69.043  1.00  0.00    -0.150 A  
HETATM   22  C   UNL     1      -6.460   8.017  65.032  1.00  0.00    -0.048 C  
HETATM   23  H   UNL     1      -7.461   7.938  63.379  1.00  0.00     0.000 HD 
HETATM   24  O   UNL     1      -6.373   5.711  64.221  1.00  0.00    -0.028 OA 
HETATM   25  C   UNL     1      -5.827  16.009  69.756  1.00  0.00    -0.162 A  
HETATM   26  O   UNL     1      -7.551   8.428  64.188  1.00  0.00    -0.110 OA 
HETATM   27  C   UNL     1      -5.938  14.738  69.156  1.00  0.00    -0.100 A  
BRANCH  21  28
HETATM   28  O   UNL     1      -5.206  18.382  69.679  1.00  0.00    -0.183 OA 
BRANCH  28  29
HETATM   29  C   UNL     1      -6.218  19.367  69.642  1.00  0.00    -0.291 C  
HETATM   30  C   UNL     1      -9.790  19.226  69.576  1.00  0.00    -0.054 C  
HETATM   31  N   UNL     1      -7.411  18.960  69.056  1.00  0.00    -0.310 N  
HETATM   32  C   UNL     1      -8.537  19.891  69.014  1.00  0.00     0.085 C  
HETATM   33  O   UNL     1      -6.086  20.498  70.107  1.00  0.00    -0.419 OA 
HETATM   34  C   UNL     1      -7.627  17.693  68.368  1.00  0.00    -0.260 C  
HETATM   35  C   UNL     1      -8.908  17.020  68.868  1.00  0.00    -0.206 C  
HETATM   36  C   UNL     1     -10.153  17.949  68.780  1.00  0.00    -0.384 C  
BRANCH  36  37
HETATM   37  N   UNL     1     -10.582  18.225  67.381  1.00  0.00    -0.413 NA 
HETATM   38  C   UNL     1      -9.494  18.104  66.389  1.00  0.00    -0.278 C  
HETATM   39  C   UNL     1      -9.017  16.666  66.163  1.00  0.00    -0.321 C  
HETATM   40  C   UNL     1     -10.175  15.747  65.784  1.00  0.00    -0.394 C  
HETATM   41  C   UNL     1     -11.353  15.912  66.741  1.00  0.00     0.155 C  
HETATM   42  C   UNL     1     -11.712  17.391  66.913  1.00  0.00     1.832 C  
ENDBRANCH  36  37
ENDBRANCH  28  29
ENDBRANCH  21  28
BRANCH  22  43
HETATM   43  C   UNL     1      -5.160   8.357  64.260  1.00  0.00    -0.040 C  
HETATM   44  C   UNL     1      -5.334   9.294  63.070  1.00  0.00    -0.071 C  
ENDBRANCH  22  43
ENDBRANCH   2   3
TORSDOF 5
ENDMDL
MODEL       83
REMARK 921   NORMALIZED FREE ENERGY PREDICTED BY IDOCK:    4.41 KCAL/MOL
REMARK 922        TOTAL FREE ENERGY PREDICTED BY IDOCK:    4.67 KCAL/MOL
REMARK 923 INTER-LIGAND FREE ENERGY PREDICTED BY IDOCK:    1.65 KCAL/MOL
REMARK 924 INTRA-LIGAND FREE ENERGY PREDICTED BY IDOCK:    3.02 KCAL/MOL
REMARK 927      BINDING AFFINITY PREDICTED BY RF-SCORE:    0.00 PKD
ROOT
HETATM    1  C   UNL     1      -9.988   8.047  65.205  1.00  0.00     1.750 C  
HETATM    2  C   UNL     1     -10.291   9.493  65.554  1.00  0.00     0.308 C  
ENDROOT
BRANCH   2   3
HETATM    3  C   UNL     1      -9.740   9.892  66.904  1.00  0.00    -0.236 A  
HETATM    4  C   UNL     1      -9.037   8.969  67.656  1.00  0.00    -0.144 A  
HETATM    5  C   UNL     1      -8.634   7.586  67.277  1.00  0.00    -0.118 A  
HETATM    6  N   UNL     1      -7.982   7.106  68.482  1.00  0.00    -0.122 N  
HETATM    7  C   UNL     1      -7.972   8.058  69.487  1.00  0.00    -0.115 A  
HETATM    8  C   UNL     1      -7.415   7.751  70.667  1.00  0.00    -0.070 C  
HETATM    9  C   UNL     1      -8.635   9.272  68.952  1.00  0.00    -0.130 A  
HETATM   10  N   UNL     1      -8.885  10.444  69.571  1.00  0.00    -0.139 NA 
HETATM   11  C   UNL     1      -6.892   6.386  70.896  1.00  0.00    -0.063 C  
HETATM   12  C   UNL     1      -6.882   5.496  69.887  1.00  0.00    -0.060 C  
HETATM   13  C   UNL     1      -9.549  11.385  68.828  1.00  0.00    -0.129 A  
HETATM   14  C   UNL     1      -9.887  12.635  69.370  1.00  0.00     0.892 A  
HETATM   15  C   UNL     1      -7.437   5.857  68.556  1.00  0.00    -0.086 C  
HETATM   16  C   UNL     1      -6.375   4.106  69.983  1.00  0.00    -0.028 C  
HETATM   17  C   UNL     1     -10.599  13.625  68.648  1.00  0.00    -0.260 A  
HETATM   18  O   UNL     1      -7.415   5.061  67.623  1.00  0.00    -0.077 OA 
HETATM   19  O   UNL     1      -6.050   3.669  71.311  1.00  0.00    -0.013 OA 
HETATM   20  C   UNL     1      -5.998   4.465  72.397  1.00  0.00    -0.016 C  
HETATM   21  C   UNL     1     -10.962  13.383  67.330  1.00  0.00    -0.272 A  
HETATM   22  C   UNL     1      -6.373   5.975  72.255  1.00  0.00    -0.050 C  
HETATM   23  H   UNL     1      -4.863   6.501  73.344  1.00  0.00     0.000 HD 
HETATM   24  O   UNL     1      -5.601   3.992  73.461  1.00  0.00    -0.003 OA 
HETATM   25  C   UNL     1     -10.573  12.186  66.744  1.00  0.00    -0.256 A  
HETATM   26  O   UNL     1      -5.189   6.759  72.489  1.00  0.00    -0.035 OA 
HETATM   27  C   UNL     1      -9.949  11.159  67.481  1.00  0.00    -0.204 A  
BRANCH  21  28
HETATM   28  O   UNL     1     -11.685  14.369  66.606  1.00  0.00    -0.371 OA 
BRANCH  28  29
HETATM   29  C   UNL     1     -11.000  15.472  66.048  1.00  0.00    -0.251 C  
HETATM   30  C   UNL     1      -8.185  17.410  67.100  1.00  0.00    -0.229 C  
HETATM   31  N   UNL     1     -10.362  16.293  66.971  1.00  0.00    -0.289 N  
HETATM   32  C   UNL     1      -9.584  17.434  66.489  1.00  0.00    -0.280 C  
HETATM   33  O   UNL     1     -10.939  15.697  64.841  1.00  0.00    -0.422 OA 
HETATM   34  C   UNL     1     -10.475  16.186  68.419  1.00  0.00    -0.274 C  
HETATM   35  C   UNL     1      -9.091  16.215  69.073  1.00  0.00    -0.250 C  
HETATM   36  C   UNL     1      -8.246  17.449  68.645  1.00  0.00    -0.264 C  
BRANCH  36  37
HETATM   37  N   UNL     1      -8.769  18.734  69.186  1.00  0.00    -0.071 NA 
HETATM   38  C   UNL     1      -8.490  18.933  70.623  1.00  0.00     3.399 C  
HETATM   39  C   UNL     1      -7.012  19.179  70.940  1.00  0.00     1.428 C  
HETATM   40  C   UNL     1      -6.455  20.348  70.132  1.00  0.00    -0.110 C  
HETATM   41  C   UNL     1      -6.802  20.217  68.652  1.00  0.00    -0.301 C  
HETATM   42  C   UNL     1      -8.297  19.937  68.465  1.00  0.00    -0.140 C  
ENDBRANCH  36  37
ENDBRANCH  28  29
ENDBRANCH  21  28
BRANCH  22  43
HETATM   43  C   UNL     1      -7.354   6.315  73.406  1.00  0.00    -0.087 C  
HETATM   44  C   UNL     1      -7.313   7.758  73.894  1.00  0.00    -0.158 C  
ENDBRANCH  22  43
ENDBRANCH   2   3
TORSDOF 5
ENDMDL
MODEL       84
REMARK 921   NORMALIZED FREE ENERGY PREDICTED BY IDOCK:    4.65 KCAL/MOL
REMARK 922        TOTAL FREE ENERGY PREDICTED BY IDOCK:    4.98 KCAL/MOL
REMARK 923 INTER-LIGAND FREE ENERGY PREDICTED BY IDOCK:   -2.63 KCAL/MOL
REMARK 924 INTRA-LIGAND FREE ENERGY PREDICTED BY IDOCK:    7.61 KCAL/MOL
REMARK 927      BINDING AFFINITY PREDICTED BY RF-SCORE:    0.00 PKD
ROOT
HETATM    1  C   UNL     1      -5.776  10.001  72.018  1.00  0.00     0.245 C  
HETATM    2  C   UNL     1      -6.587  11.178  71.508  1.00  0.00     2.434 C  
ENDROOT
BRANCH   2   3
HETATM    3  C   UNL     1      -6.519  11.321  70.005  1.00  0.00    -0.114 A  
HETATM    4  C   UNL     1      -6.756  10.220  69.202  1.00  0.00    -0.058 A  
HETATM    5  C   UNL     1      -7.186   8.854  69.612  1.00  0.00    -0.055 A  
HETATM    6  N   UNL     1      -7.210   8.139  68.350  1.00  0.00    -0.090 N  
HETATM    7  C   UNL     1      -6.846   8.943  67.284  1.00  0.00    -0.077 A  
HETATM    8  C   UNL     1      -6.808   8.414  66.052  1.00  0.00    -0.064 C  
HETATM    9  C   UNL     1      -6.570  10.296  67.825  1.00  0.00    -0.066 A  
HETATM   10  N   UNL     1      -6.158  11.402  67.174  1.00  0.00    -0.088 NA 
HETATM   11  C   UNL     1      -7.082   6.971  65.869  1.00  0.00    -0.073 C  
HETATM   12  C   UNL     1      -7.469   6.225  66.919  1.00  0.00    -0.087 C  
HETATM   13  C   UNL     1      -5.953  12.514  67.949  1.00  0.00    -0.101 A  
HETATM   14  C   UNL     1      -5.499  13.719  67.389  1.00  0.00     0.289 A  
HETATM   15  C   UNL     1      -7.579   6.827  68.274  1.00  0.00    -0.107 C  
HETATM   16  C   UNL     1      -7.785   4.777  66.864  1.00  0.00    -0.091 C  
HETATM   17  C   UNL     1      -5.247  14.882  68.158  1.00  0.00    -0.119 A  
HETATM   18  O   UNL     1      -7.952   6.162  69.235  1.00  0.00    -0.105 OA 
HETATM   19  O   UNL     1      -7.465   4.133  65.622  1.00  0.00    -0.078 OA 
HETATM   20  C   UNL     1      -7.093   4.768  64.494  1.00  0.00    -0.054 C  
HETATM   21  C   UNL     1      -5.481  14.864  69.526  1.00  0.00    -0.092 A  
HETATM   22  C   UNL     1      -6.924   6.322  64.512  1.00  0.00    -0.048 C  
HETATM   23  H   UNL     1      -7.839   6.489  62.816  1.00  0.00     0.000 HD 
HETATM   24  O   UNL     1      -6.950   4.113  63.463  1.00  0.00    -0.043 OA 
HETATM   25  C   UNL     1      -6.003  13.710  70.094  1.00  0.00    -0.146 A  
HETATM   26  O   UNL     1      -7.938   6.897  63.669  1.00  0.00    -0.119 OA 
HETATM   27  C   UNL     1      -6.167  12.520  69.356  1.00  0.00    -0.113 A  
BRANCH  21  28
HETATM   28  O   UNL     1      -5.218  16.025  70.302  1.00  0.00    -0.137 OA 
BRANCH  28  29
HETATM   29  C   UNL     1      -5.725  17.277  69.884  1.00  0.00    -0.236 C  
HETATM   30  C   UNL     1      -8.992  18.445  69.021  1.00  0.00    -0.065 C  
HETATM   31  N   UNL     1      -6.876  17.213  69.108  1.00  0.00    -0.237 N  
HETATM   32  C   UNL     1      -7.507  18.457  68.669  1.00  0.00    -0.296 C  
HETATM   33  O   UNL     1      -5.218  18.354  70.192  1.00  0.00    -0.202 OA 
HETATM   34  C   UNL     1      -7.480  15.993  68.588  1.00  0.00    -0.166 C  
HETATM   35  C   UNL     1      -8.984  15.971  68.875  1.00  0.00    -0.239 C  
HETATM   36  C   UNL     1      -9.716  17.245  68.365  1.00  0.00    -0.293 C  
BRANCH  36  37
HETATM   37  N   UNL     1      -9.778  17.331  66.879  1.00  0.00    -0.263 NA 
HETATM   38  C   UNL     1     -10.899  18.151  66.376  1.00  0.00     0.040 C  
HETATM   39  C   UNL     1     -10.741  19.650  66.648  1.00  0.00    -0.552 C  
HETATM   40  C   UNL     1      -9.418  20.181  66.102  1.00  0.00    -0.403 C  
HETATM   41  C   UNL     1      -8.247  19.302  66.532  1.00  0.00    -0.319 C  
HETATM   42  C   UNL     1      -8.537  17.826  66.243  1.00  0.00    -0.185 C  
ENDBRANCH  36  37
ENDBRANCH  28  29
ENDBRANCH  21  28
BRANCH  22  43
HETATM   43  C   UNL     1      -5.565   6.644  63.842  1.00  0.00    -0.031 C  
HETATM   44  C   UNL     1      -5.517   6.437  62.332  1.00  0.00    -0.023 C  
ENDBRANCH  22  43
ENDBRANCH   2   3
TORSDOF 5
ENDMDL
MODEL       85
REMARK 921   NORMALIZED FREE ENERGY PREDICTED BY IDOCK:    4.87 KCAL/MOL
REMARK 922        TOTAL FREE ENERGY PREDICTED BY IDOCK:    5.27 KCAL/MOL
REMARK 923 INTER-LIGAND FREE ENERGY PREDICTED BY IDOCK:    4.14 KCAL/MOL
REMARK 924 INTRA-LIGAND FREE ENERGY PREDICTED BY IDOCK:    1.12 KCAL/MOL
REMARK 927      BINDING AFFINITY PREDICTED BY RF-SCORE:    0.00 PKD
ROOT
HETATM    1  C   UNL     1      -7.834   8.806  71.139  1.00  0.00    -0.161 C  
HETATM    2  C   UNL     1      -8.651   9.971  70.609  1.00  0.00     0.582 C  
ENDROOT
BRANCH   2   3
HETATM    3  C   UNL     1      -8.152  10.469  69.273  1.00  0.00    -0.152 A  
HETATM    4  C   UNL     1      -8.535  11.719  68.823  1.00  0.00     0.005 A  
HETATM    5  C   UNL     1      -9.336  12.752  69.538  1.00  0.00     1.576 A  
HETATM    6  N   UNL     1      -9.451  13.805  68.547  1.00  0.00    -0.196 N  
HETATM    7  C   UNL     1      -8.809  13.484  67.363  1.00  0.00    -0.221 A  
HETATM    8  C   UNL     1      -8.842  14.357  66.347  1.00  0.00    -0.033 C  
HETATM    9  C   UNL     1      -8.196  12.144  67.542  1.00  0.00    -0.167 A  
HETATM   10  N   UNL     1      -7.495  11.407  66.658  1.00  0.00    -0.136 NA 
HETATM   11  C   UNL     1      -9.624  15.606  66.483  1.00  0.00    -0.293 C  
HETATM   12  C   UNL     1     -10.205  15.907  67.657  1.00  0.00    -0.263 C  
HETATM   13  C   UNL     1      -7.076  10.179  67.098  1.00  0.00    -0.089 A  
HETATM   14  C   UNL     1      -6.359   9.310  66.261  1.00  0.00    -0.065 A  
HETATM   15  C   UNL     1     -10.110  14.971  68.809  1.00  0.00    -0.231 C  
HETATM   16  C   UNL     1     -11.001  17.129  67.926  1.00  0.00    -0.208 C  
HETATM   17  C   UNL     1      -5.932   8.021  66.666  1.00  0.00    -0.045 A  
HETATM   18  O   UNL     1     -10.619  15.243  69.891  1.00  0.00    -0.263 OA 
HETATM   19  O   UNL     1     -11.295  17.927  66.770  1.00  0.00     0.467 OA 
HETATM   20  C   UNL     1     -10.758  17.747  65.547  1.00  0.00    -0.009 C  
HETATM   21  C   UNL     1      -6.196   7.587  67.958  1.00  0.00    -0.040 A  
HETATM   22  C   UNL     1      -9.782  16.549  65.311  1.00  0.00     0.493 C  
HETATM   23  H   UNL     1      -8.573  17.672  64.303  1.00  0.00     0.000 HD 
HETATM   24  O   UNL     1     -11.007  18.565  64.663  1.00  0.00    -0.163 OA 
HETATM   25  C   UNL     1      -6.836   8.455  68.832  1.00  0.00    -0.061 A  
HETATM   26  O   UNL     1      -8.473  17.080  65.039  1.00  0.00     1.570 OA 
HETATM   27  C   UNL     1      -7.347   9.700  68.411  1.00  0.00    -0.075 A  
BRANCH  21  28
HETATM   28  O   UNL     1      -5.780   6.291  68.365  1.00  0.00    -0.011 OA 
BRANCH  28  29
HETATM   29  C   UNL     1      -6.599   5.172  68.090  1.00  0.00    -0.049 C  
HETATM   30  C   UNL     1      -9.667   3.969  69.479  1.00  0.00    -0.227 C  
HETATM   31  N   UNL     1      -7.358   4.724  69.166  1.00  0.00    -0.053 N  
HETATM   32  C   UNL     1      -8.276   3.603  68.970  1.00  0.00    -0.060 C  
HETATM   33  O   UNL     1      -6.673   4.635  66.987  1.00  0.00    -0.049 OA 
HETATM   34  C   UNL     1      -7.252   5.208  70.536  1.00  0.00    -0.061 C  
HETATM   35  C   UNL     1      -8.638   5.535  71.100  1.00  0.00    -0.127 C  
HETATM   36  C   UNL     1      -9.636   4.349  70.979  1.00  0.00    -0.179 C  
BRANCH  36  37
HETATM   37  N   UNL     1      -9.300   3.205  71.872  1.00  0.00    -0.117 NA 
HETATM   38  C   UNL     1      -8.582   3.600  73.102  1.00  0.00    -0.090 C  
HETATM   39  C   UNL     1      -9.444   4.378  74.101  1.00  0.00    -0.123 C  
HETATM   40  C   UNL     1     -10.713   3.609  74.460  1.00  0.00    -0.092 C  
HETATM   41  C   UNL     1     -11.434   3.110  73.210  1.00  0.00    -0.070 C  
HETATM   42  C   UNL     1     -10.463   2.383  72.275  1.00  0.00    -0.005 C  
ENDBRANCH  36  37
ENDBRANCH  28  29
ENDBRANCH  21  28
BRANCH  22  43
HETATM   43  C   UNL     1     -10.240  15.833  64.015  1.00  0.00     3.173 C  
HETATM   44  C   UNL     1     -10.758  14.411  64.204  1.00  0.00     0.460 C  
ENDBRANCH  22  43
ENDBRANCH   2   3
TORSDOF 5
ENDMDL
MODEL       86
REMARK 921   NORMALIZED FREE ENERGY PREDICTED BY IDOCK:    5.58 KCAL/MOL
REMARK 922        TOTAL FREE ENERGY PREDICTED BY IDOCK:    6.18 KCAL/MOL
REMARK 923 INTER-LIGAND FREE ENERGY PREDICTED BY IDOCK:   -0.63 KCAL/MOL
REMARK 924 INTRA-LIGAND FREE ENERGY PREDICTED BY IDOCK:    6.81 KCAL/MOL
REMARK 927      BINDING AFFINITY PREDICTED BY RF-SCORE:    0.00 PKD
ROOT
HETATM    1  C   UNL     1      -7.683  13.592  66.446  1.00  0.00     1.576 C  
HETATM    2  C   UNL     1      -7.477  12.205  65.867  1.00  0.00     1.407 C  
ENDROOT
BRANCH   2   3
HETATM    3  C   UNL     1      -7.900  11.110  66.819  1.00  0.00    -0.153 A  
HETATM    4  C   UNL     1      -7.518   9.804  66.573  1.00  0.00    -0.095 A  
HETATM    5  C   UNL     1      -6.619   9.292  65.501  1.00  0.00    -0.069 A  
HETATM    6  N   UNL     1      -6.647   7.859  65.724  1.00  0.00    -0.045 N  
HETATM    7  C   UNL     1      -7.453   7.510  66.794  1.00  0.00    -0.093 A  
HETATM    8  C   UNL     1      -7.588   6.214  67.111  1.00  0.00    -0.092 C  
HETATM    9  C   UNL     1      -8.003   8.765  67.361  1.00  0.00    -0.098 A  
HETATM   10  N   UNL     1      -8.858   8.928  68.391  1.00  0.00    -0.134 NA 
HETATM   11  C   UNL     1      -6.937   5.185  66.271  1.00  0.00    -0.067 C  
HETATM   12  C   UNL     1      -6.131   5.557  65.261  1.00  0.00    -0.026 C  
HETATM   13  C   UNL     1      -9.220  10.219  68.673  1.00  0.00    -0.159 A  
HETATM   14  C   UNL     1     -10.123  10.513  69.706  1.00  0.00    -0.126 A  
HETATM   15  C   UNL     1      -5.924   6.997  64.951  1.00  0.00    -0.037 C  
HETATM   16  C   UNL     1      -5.411   4.627  64.357  1.00  0.00    -0.013 C  
HETATM   17  C   UNL     1     -10.547  11.831  70.012  1.00  0.00     0.894 A  
HETATM   18  O   UNL     1      -5.174   7.349  64.047  1.00  0.00    -0.029 OA 
HETATM   19  O   UNL     1      -5.777   3.245  64.494  1.00  0.00    -0.010 OA 
HETATM   20  C   UNL     1      -6.552   2.743  65.474  1.00  0.00    -0.035 C  
HETATM   21  C   UNL     1     -10.035  12.900  69.289  1.00  0.00     0.592 A  
HETATM   22  C   UNL     1      -7.174   3.714  66.529  1.00  0.00    -0.067 C  
HETATM   23  H   UNL     1      -6.731   2.504  67.972  1.00  0.00     0.000 HD 
HETATM   24  O   UNL     1      -6.704   1.524  65.545  1.00  0.00    -0.029 OA 
HETATM   25  C   UNL     1      -9.082  12.645  68.312  1.00  0.00    -0.181 A  
HETATM   26  O   UNL     1      -6.582   3.428  67.810  1.00  0.00    -0.037 OA 
HETATM   27  C   UNL     1      -8.726  11.334  67.938  1.00  0.00    -0.138 A  
BRANCH  21  28
HETATM   28  O   UNL     1     -10.467  14.221  69.585  1.00  0.00    -0.043 OA 
BRANCH  28  29
HETATM   29  C   UNL     1     -10.451  15.207  68.572  1.00  0.00    -0.233 C  
HETATM   30  C   UNL     1      -7.831  16.852  66.778  1.00  0.00    -0.279 C  
HETATM   31  N   UNL     1      -9.304  15.992  68.537  1.00  0.00    -0.206 N  
HETATM   32  C   UNL     1      -9.170  17.008  67.494  1.00  0.00    -0.231 C  
HETATM   33  O   UNL     1     -11.359  15.363  67.758  1.00  0.00    -0.328 OA 
HETATM   34  C   UNL     1      -8.234  15.973  69.526  1.00  0.00    -0.018 C  
HETATM   35  C   UNL     1      -6.868  15.871  68.841  1.00  0.00    -0.138 C  
HETATM   36  C   UNL     1      -6.647  16.975  67.767  1.00  0.00    -0.145 C  
BRANCH  36  37
HETATM   37  N   UNL     1      -6.500  18.338  68.348  1.00  0.00    -0.203 NA 
HETATM   38  C   UNL     1      -6.318  19.401  67.337  1.00  0.00    -0.191 C  
HETATM   39  C   UNL     1      -7.571  19.683  66.502  1.00  0.00    -0.284 C  
HETATM   40  C   UNL     1      -8.772  20.003  67.388  1.00  0.00    -0.417 C  
HETATM   41  C   UNL     1      -8.935  18.969  68.499  1.00  0.00    -0.394 C  
HETATM   42  C   UNL     1      -7.611  18.747  69.236  1.00  0.00    -0.039 C  
ENDBRANCH  36  37
ENDBRANCH  28  29
ENDBRANCH  21  28
BRANCH  22  43
HETATM   43  C   UNL     1      -8.676   3.355  66.654  1.00  0.00    -0.129 C  
HETATM   44  C   UNL     1      -9.417   3.181  65.332  1.00  0.00    -0.091 C  
ENDBRANCH  22  43
ENDBRANCH   2   3
TORSDOF 5
ENDMDL
MODEL       87
REMARK 921   NORMALIZED FREE ENERGY PREDICTED BY IDOCK:    5.79 KCAL/MOL
REMARK 922        TOTAL FREE ENERGY PREDICTED BY IDOCK:    6.46 KCAL/MOL
REMARK 923 INTER-LIGAND FREE ENERGY PREDICTED BY IDOCK:   -1.71 KCAL/MOL
REMARK 924 INTRA-LIGAND FREE ENERGY PREDICTED BY IDOCK:    8.17 KCAL/MOL
REMARK 927      BINDING AFFINITY PREDICTED BY RF-SCORE:    0.00 PKD
ROOT
HETATM    1  C   UNL     1      -9.612  15.996  69.921  1.00  0.00     0.140 C  
HETATM    2  C   UNL     1     -10.253  14.628  69.776  1.00  0.00     0.096 C  
ENDROOT
BRANCH   2   3
HETATM    3  C   UNL     1      -9.283  13.583  69.276  1.00  0.00     0.707 A  
HETATM    4  C   UNL     1      -9.562  12.243  69.471  1.00  0.00     1.281 A  
HETATM    5  C   UNL     1     -10.792  11.630  70.048  1.00  0.00     0.482 A  
HETATM    6  N   UNL     1     -10.472  10.215  70.042  1.00  0.00    -0.277 N  
HETATM    7  C   UNL     1      -9.211   9.964  69.529  1.00  0.00    -0.223 A  
HETATM    8  C   UNL     1      -8.771   8.699  69.474  1.00  0.00    -0.139 C  
HETATM    9  C   UNL     1      -8.625  11.270  69.138  1.00  0.00     0.120 A  
HETATM   10  N   UNL     1      -7.409  11.532  68.620  1.00  0.00    -0.100 NA 
HETATM   11  C   UNL     1      -9.606   7.610  70.028  1.00  0.00    -0.164 C  
HETATM   12  C   UNL     1     -10.841   7.882  70.486  1.00  0.00    -0.242 C  
HETATM   13  C   UNL     1      -7.128  12.853  68.385  1.00  0.00    -0.099 A  
HETATM   14  C   UNL     1      -5.885  13.254  67.871  1.00  0.00    -0.135 A  
HETATM   15  C   UNL     1     -11.358   9.276  70.483  1.00  0.00    -0.258 C  
HETATM   16  C   UNL     1     -11.779   6.882  71.052  1.00  0.00    -0.345 C  
HETATM   17  C   UNL     1      -5.543  14.610  67.641  1.00  0.00     0.026 A  
HETATM   18  O   UNL     1     -12.491   9.533  70.879  1.00  0.00    -0.280 OA 
HETATM   19  O   UNL     1     -11.216   5.580  71.273  1.00  0.00    -0.149 OA 
HETATM   20  C   UNL     1     -10.005   5.177  70.842  1.00  0.00    -0.210 C  
HETATM   21  C   UNL     1      -6.475  15.605  67.902  1.00  0.00    -0.149 A  
HETATM   22  C   UNL     1      -9.083   6.193  70.093  1.00  0.00    -0.152 C  
HETATM   23  H   UNL     1      -8.610   4.862  68.772  1.00  0.00     0.000 HD 
HETATM   24  O   UNL     1      -9.679   4.001  71.001  1.00  0.00    -0.167 OA 
HETATM   25  C   UNL     1      -7.739  15.232  68.339  1.00  0.00    -0.124 A  
HETATM   26  O   UNL     1      -8.938   5.752  68.731  1.00  0.00    -0.116 OA 
HETATM   27  C   UNL     1      -8.057  13.896  68.659  1.00  0.00    -0.097 A  
BRANCH  21  28
HETATM   28  O   UNL     1      -6.132  16.966  67.684  1.00  0.00    -0.124 OA 
BRANCH  28  29
HETATM   29  C   UNL     1      -7.118  17.876  67.238  1.00  0.00    -0.183 C  
HETATM   30  C   UNL     1     -10.647  17.621  66.719  1.00  0.00    -0.224 C  
HETATM   31  N   UNL     1      -8.221  17.290  66.627  1.00  0.00    -0.240 N  
HETATM   32  C   UNL     1      -9.320  18.143  66.176  1.00  0.00    -0.132 C  
HETATM   33  O   UNL     1      -7.041  19.093  67.389  1.00  0.00    -0.208 OA 
HETATM   34  C   UNL     1      -8.352  15.879  66.290  1.00  0.00    -0.200 C  
HETATM   35  C   UNL     1      -9.699  15.332  66.773  1.00  0.00    -0.249 C  
HETATM   36  C   UNL     1     -10.908  16.166  66.262  1.00  0.00    -0.135 C  
BRANCH  36  37
HETATM   37  N   UNL     1     -11.133  16.037  64.796  1.00  0.00    -0.541 NA 
HETATM   38  C   UNL     1     -10.169  15.143  64.122  1.00  0.00     1.977 C  
HETATM   39  C   UNL     1     -10.346  13.663  64.474  1.00  0.00    -0.355 C  
HETATM   40  C   UNL     1     -11.773  13.191  64.206  1.00  0.00    -0.447 C  
HETATM   41  C   UNL     1     -12.797  14.145  64.817  1.00  0.00    -0.085 C  
HETATM   42  C   UNL     1     -12.495  15.594  64.424  1.00  0.00     0.212 C  
ENDBRANCH  36  37
ENDBRANCH  28  29
ENDBRANCH  21  28
BRANCH  22  43
HETATM   43  C   UNL     1      -7.676   6.096  70.735  1.00  0.00    -0.102 C  
HETATM   44  C   UNL     1      -7.596   6.515  72.198  1.00  0.00    -0.097 C  
ENDBRANCH  22  43
ENDBRANCH   2   3
TORSDOF 5
ENDMDL
MODEL       88
REMARK 921   NORMALIZED FREE ENERGY PREDICTED BY IDOCK:    5.99 KCAL/MOL
REMARK 922        TOTAL FREE ENERGY PREDICTED BY IDOCK:    6.72 KCAL/MOL
REMARK 923 INTER-LIGAND FREE ENERGY PREDICTED BY IDOCK:   -3.03 KCAL/MOL
REMARK 924 INTRA-LIGAND FREE ENERGY PREDICTED BY IDOCK:    9.75 KCAL/MOL
REMARK 927      BINDING AFFINITY PREDICTED BY RF-SCORE:    0.00 PKD
ROOT
HETATM    1  C   UNL     1      -6.774   8.795  65.681  1.00  0.00    -0.068 C  
HETATM    2  C   UNL     1      -6.716  10.171  66.320  1.00  0.00    -0.102 C  
ENDROOT
BRANCH   2   3
HETATM    3  C   UNL     1      -8.070  10.650  66.791  1.00  0.00    -0.131 A  
HETATM    4  C   UNL     1      -8.302  12.004  66.941  1.00  0.00    -0.159 A  
HETATM    5  C   UNL     1      -7.399  13.139  66.599  1.00  0.00     1.038 A  
HETATM    6  N   UNL     1      -8.165  14.293  67.030  1.00  0.00    -0.148 N  
HETATM    7  C   UNL     1      -9.389  13.938  67.570  1.00  0.00    -0.217 A  
HETATM    8  C   UNL     1     -10.203  14.902  68.026  1.00  0.00    -0.228 C  
HETATM    9  C   UNL     1      -9.493  12.460  67.497  1.00  0.00    -0.187 A  
HETATM   10  N   UNL     1     -10.488  11.658  67.925  1.00  0.00    -0.187 NA 
HETATM   11  C   UNL     1      -9.748  16.310  68.011  1.00  0.00    -0.230 C  
HETATM   12  C   UNL     1      -8.569  16.626  67.446  1.00  0.00    -0.203 C  
HETATM   13  C   UNL     1     -10.291  10.313  67.750  1.00  0.00    -0.204 A  
HETATM   14  C   UNL     1     -11.245   9.376  68.178  1.00  0.00     0.139 A  
HETATM   15  C   UNL     1      -7.696  15.566  66.877  1.00  0.00    -0.165 C  
HETATM   16  C   UNL     1      -8.008  17.996  67.356  1.00  0.00    -0.221 C  
HETATM   17  C   UNL     1     -11.069   7.976  68.044  1.00  0.00     0.296 A  
HETATM   18  O   UNL     1      -6.628  15.844  66.340  1.00  0.00     0.123 OA 
HETATM   19  O   UNL     1      -8.724  18.994  68.098  1.00  0.00    -0.295 OA 
HETATM   20  C   UNL     1      -9.922  18.811  68.686  1.00  0.00    -0.394 C  
HETATM   21  C   UNL     1      -9.921   7.485  67.437  1.00  0.00    -0.187 A  
HETATM   22  C   UNL     1     -10.591  17.400  68.633  1.00  0.00    -0.318 C  
HETATM   23  H   UNL     1     -12.313  18.180  68.222  1.00  0.00     0.000 HD 
HETATM   24  O   UNL     1     -10.484  19.777  69.201  1.00  0.00    -0.209 OA 
HETATM   25  C   UNL     1      -8.997   8.391  66.935  1.00  0.00    -0.168 A  
HETATM   26  O   UNL     1     -11.783  17.495  67.832  1.00  0.00     0.630 OA 
HETATM   27  C   UNL     1      -9.117   9.779  67.147  1.00  0.00    -0.152 A  
BRANCH  21  28
HETATM   28  O   UNL     1      -9.736   6.082  67.311  1.00  0.00    -0.117 OA 
BRANCH  28  29
HETATM   29  C   UNL     1      -9.413   5.312  68.452  1.00  0.00    -0.124 C  
HETATM   30  C   UNL     1      -8.512   6.146  71.810  1.00  0.00    -0.129 C  
HETATM   31  N   UNL     1      -8.583   5.945  69.369  1.00  0.00    -0.113 N  
HETATM   32  C   UNL     1      -8.231   5.250  70.607  1.00  0.00    -0.109 C  
HETATM   33  O   UNL     1      -9.840   4.177  68.652  1.00  0.00    -0.122 OA 
HETATM   34  C   UNL     1      -7.926   7.231  69.171  1.00  0.00    -0.119 C  
HETATM   35  C   UNL     1      -8.141   8.139  70.384  1.00  0.00    -0.108 C  
HETATM   36  C   UNL     1      -7.717   7.471  71.723  1.00  0.00    -0.085 C  
BRANCH  36  37
HETATM   37  N   UNL     1      -6.244   7.286  71.847  1.00  0.00    -0.040 NA 
HETATM   38  C   UNL     1      -5.837   6.529  73.048  1.00  0.00    -0.042 C  
HETATM   39  C   UNL     1      -6.213   5.045  73.002  1.00  0.00    -0.038 C  
HETATM   40  C   UNL     1      -5.667   4.369  71.747  1.00  0.00    -0.012 C  
HETATM   41  C   UNL     1      -5.995   5.175  70.494  1.00  0.00    -0.018 C  
HETATM   42  C   UNL     1      -5.608   6.646  70.674  1.00  0.00    -0.023 C  
ENDBRANCH  36  37
ENDBRANCH  28  29
ENDBRANCH  21  28
BRANCH  22  43
HETATM   43  C   UNL     1     -11.058  17.059  70.070  1.00  0.00     0.408 C  
HETATM   44  C   UNL     1     -10.770  15.634  70.529  1.00  0.00    -0.295 C  
ENDBRANCH  22  43
ENDBRANCH   2   3
TORSDOF 5
ENDMDL
MODEL       89
REMARK 921   NORMALIZED FREE ENERGY PREDICTED BY IDOCK:    7.68 KCAL/MOL
REMARK 922        TOTAL FREE ENERGY PREDICTED BY IDOCK:    8.90 KCAL/MOL
REMARK 923 INTER-LIGAND FREE ENERGY PREDICTED BY IDOCK:    0.65 KCAL/MOL
REMARK 924 INTRA-LIGAND FREE ENERGY PREDICTED BY IDOCK:    8.25 KCAL/MOL
REMARK 927      BINDING AFFINITY PREDICTED BY RF-SCORE:    0.00 PKD
ROOT
HETATM    1  C   UNL     1      -7.749  14.799  68.558  1.00  0.00    -0.120 C  
HETATM    2  C   UNL     1      -8.816  14.257  69.492  1.00  0.00     0.552 C  
ENDROOT
BRANCH   2   3
HETATM    3  C   UNL     1      -9.755  13.293  68.804  1.00  0.00     0.024 A  
HETATM    4  C   UNL     1      -9.644  11.937  69.050  1.00  0.00     0.192 A  
HETATM    5  C   UNL     1      -8.750  11.245  70.020  1.00  0.00     1.861 A  
HETATM    6  N   UNL     1      -9.047   9.846  69.780  1.00  0.00    -0.225 N  
HETATM    7  C   UNL     1     -10.002   9.674  68.793  1.00  0.00    -0.173 A  
HETATM    8  C   UNL     1     -10.369   8.430  68.452  1.00  0.00    -0.239 C  
HETATM    9  C   UNL     1     -10.408  11.024  68.331  1.00  0.00    -0.183 A  
HETATM   10  N   UNL     1     -11.288  11.362  67.367  1.00  0.00    -0.412 NA 
HETATM   11  C   UNL     1      -9.696   7.272  69.081  1.00  0.00    -0.160 C  
HETATM   12  C   UNL     1      -8.799   7.471  70.062  1.00  0.00    -0.144 C  
HETATM   13  C   UNL     1     -11.438  12.704  67.134  1.00  0.00    -0.346 A  
HETATM   14  C   UNL     1     -12.306  13.178  66.138  1.00  0.00    -0.385 A  
HETATM   15  C   UNL     1      -8.442   8.850  70.490  1.00  0.00    -0.177 C  
HETATM   16  C   UNL     1      -8.068   6.399  70.779  1.00  0.00    -0.120 C  
HETATM   17  C   UNL     1     -12.469  14.555  65.845  1.00  0.00    -0.203 A  
HETATM   18  O   UNL     1      -7.641   9.044  71.399  1.00  0.00    -0.237 OA 
HETATM   19  O   UNL     1      -8.227   5.083  70.227  1.00  0.00    -0.085 OA 
HETATM   20  C   UNL     1      -9.107   4.750  69.263  1.00  0.00    -0.105 C  
HETATM   21  C   UNL     1     -11.771  15.499  66.584  1.00  0.00     0.278 A  
HETATM   22  C   UNL     1     -10.000   5.862  68.626  1.00  0.00    -0.148 C  
HETATM   23  H   UNL     1     -11.560   4.721  68.704  1.00  0.00     0.000 HD 
HETATM   24  O   UNL     1      -9.224   3.565  68.950  1.00  0.00    -0.136 OA 
HETATM   25  C   UNL     1     -10.964  15.063  67.626  1.00  0.00    -0.305 A  
HETATM   26  O   UNL     1     -11.369   5.607  68.989  1.00  0.00     0.008 OA 
HETATM   27  C   UNL     1     -10.723  13.695  67.864  1.00  0.00    -0.257 A  
BRANCH  21  28
HETATM   28  O   UNL     1     -11.923  16.881  66.285  1.00  0.00     1.870 OA 
BRANCH  28  29
HETATM   29  C   UNL     1     -10.822  17.617  65.793  1.00  0.00     0.026 C  
HETATM   30  C   UNL     1      -7.558  18.317  67.075  1.00  0.00    -0.234 C  
HETATM   31  N   UNL     1      -9.982  18.139  66.770  1.00  0.00    -0.332 N  
HETATM   32  C   UNL     1      -8.787  18.875  66.361  1.00  0.00    -0.306 C  
HETATM   33  O   UNL     1     -10.589  17.777  64.596  1.00  0.00     0.048 OA 
HETATM   34  C   UNL     1     -10.235  18.113  68.205  1.00  0.00    -0.389 C  
HETATM   35  C   UNL     1      -9.002  17.609  68.960  1.00  0.00    -0.023 C  
HETATM   36  C   UNL     1      -7.712  18.406  68.612  1.00  0.00    -0.301 C  
BRANCH  36  37
HETATM   37  N   UNL     1      -7.728  19.803  69.126  1.00  0.00    -0.238 NA 
HETATM   38  C   UNL     1      -7.959  20.821  68.080  1.00  0.00     0.292 C  
HETATM   39  C   UNL     1      -9.380  20.811  67.509  1.00  0.00    -0.376 C  
HETATM   40  C   UNL     1     -10.427  20.947  68.612  1.00  0.00     0.572 C  
HETATM   41  C   UNL     1     -10.164  19.966  69.752  1.00  0.00     0.176 C  
HETATM   42  C   UNL     1      -8.705  20.043  70.211  1.00  0.00     1.409 C  
ENDBRANCH  36  37
ENDBRANCH  28  29
ENDBRANCH  21  28
BRANCH  22  43
HETATM   43  C   UNL     1      -9.919   5.691  67.088  1.00  0.00    -0.188 C  
HETATM   44  C   UNL     1      -8.673   4.977  66.576  1.00  0.00    -0.109 C  
ENDBRANCH  22  43
ENDBRANCH   2   3
TORSDOF 5
ENDMDL
MODEL       90
REMARK 921   NORMALIZED FREE ENERGY PREDICTED BY IDOCK:    8.15 KCAL/MOL
REMARK 922        TOTAL FREE ENERGY PREDICTED BY IDOCK:    9.51 KCAL/MOL
REMARK 923 INTER-LIGAND FREE ENERGY PREDICTED BY IDOCK:    5.43 KCAL/MOL
REMARK 924 INTRA-LIGAND FREE ENERGY PREDICTED BY IDOCK:    4.08 KCAL/MOL
REMARK 927      BINDING AFFINITY PREDICTED BY RF-SCORE:    0.00 PKD
ROOT
HETATM    1  C   UNL     1     -11.354  13.576  71.388  1.00  0.00     2.009 C  
HETATM    2  C   UNL     1     -12.306  13.568  70.206  1.00  0.00    -0.370 C  
ENDROOT
BRANCH   2   3
HETATM    3  C   UNL     1     -11.803  12.717  69.062  1.00  0.00    -0.344 A  
HETATM    4  C   UNL     1     -11.728  11.345  69.212  1.00  0.00    -0.404 A  
HETATM    5  C   UNL     1     -12.182  10.516  70.363  1.00  0.00    -0.328 A  
HETATM    6  N   UNL     1     -11.789   9.178  69.963  1.00  0.00     0.137 N  
HETATM    7  C   UNL     1     -11.171   9.161  68.724  1.00  0.00     0.273 A  
HETATM    8  C   UNL     1     -10.739   7.992  68.229  1.00  0.00    -0.081 C  
HETATM    9  C   UNL     1     -11.147  10.557  68.223  1.00  0.00    -0.284 A  
HETATM   10  N   UNL     1     -10.623  11.038  67.078  1.00  0.00    -0.243 NA 
HETATM   11  C   UNL     1     -10.864   6.763  69.043  1.00  0.00    -0.290 C  
HETATM   12  C   UNL     1     -11.502   6.806  70.226  1.00  0.00    -0.414 C  
HETATM   13  C   UNL     1     -10.722  12.393  66.895  1.00  0.00    -0.240 A  
HETATM   14  C   UNL     1     -10.192  13.014  65.753  1.00  0.00    -0.297 A  
HETATM   15  C   UNL     1     -12.043   8.089  70.746  1.00  0.00    -0.076 C  
HETATM   16  C   UNL     1     -11.704   5.646  71.127  1.00  0.00     0.493 C  
HETATM   17  C   UNL     1     -10.246  14.414  65.539  1.00  0.00    -0.386 A  
HETATM   18  O   UNL     1     -12.646   8.137  71.813  1.00  0.00    -0.309 OA 
HETATM   19  O   UNL     1     -10.994   4.456  70.753  1.00  0.00     0.725 OA 
HETATM   20  C   UNL     1     -10.340   4.279  69.588  1.00  0.00     0.547 C  
HETATM   21  C   UNL     1     -10.874  15.226  66.473  1.00  0.00    -0.311 A  
HETATM   22  C   UNL     1     -10.273   5.456  68.563  1.00  0.00    -0.169 C  
HETATM   23  H   UNL     1     -10.651   4.259  67.092  1.00  0.00     0.000 HD 
HETATM   24  O   UNL     1      -9.861   3.174  69.339  1.00  0.00     0.012 OA 
HETATM   25  C   UNL     1     -11.474  14.631  67.573  1.00  0.00    -0.378 A  
HETATM   26  O   UNL     1     -11.022   5.080  67.393  1.00  0.00     0.177 OA 
HETATM   27  C   UNL     1     -11.344  13.253  67.843  1.00  0.00    -0.317 A  
BRANCH  21  28
HETATM   28  O   UNL     1     -10.920  16.632  66.266  1.00  0.00    -0.076 OA 
BRANCH  28  29
HETATM   29  C   UNL     1     -10.412  17.503  67.257  1.00  0.00    -0.327 C  
HETATM   30  C   UNL     1      -7.419  17.526  69.215  1.00  0.00     0.003 C  
HETATM   31  N   UNL     1      -9.549  16.910  68.171  1.00  0.00    -0.249 N  
HETATM   32  C   UNL     1      -8.931  17.738  69.206  1.00  0.00     0.270 C  
HETATM   33  O   UNL     1     -10.678  18.702  67.312  1.00  0.00    -0.424 OA 
HETATM   34  C   UNL     1      -9.268  15.483  68.269  1.00  0.00    -0.188 C  
HETATM   35  C   UNL     1      -7.759  15.234  68.335  1.00  0.00    -0.124 C  
HETATM   36  C   UNL     1      -7.061  16.042  69.466  1.00  0.00    -0.181 C  
BRANCH  36  37
HETATM   37  N   UNL     1      -7.421  15.569  70.832  1.00  0.00     1.578 NA 
HETATM   38  C   UNL     1      -7.902  14.172  70.872  1.00  0.00     3.124 C  
HETATM   39  C   UNL     1      -6.812  13.134  70.590  1.00  0.00     1.497 C  
HETATM   40  C   UNL     1      -5.621  13.305  71.530  1.00  0.00    -0.060 C  
HETATM   41  C   UNL     1      -5.155  14.757  71.578  1.00  0.00    -0.152 C  
HETATM   42  C   UNL     1      -6.336  15.700  71.829  1.00  0.00     1.831 C  
ENDBRANCH  36  37
ENDBRANCH  28  29
ENDBRANCH  21  28
BRANCH  22  43
HETATM   43  C   UNL     1      -8.797   5.588  68.111  1.00  0.00    -0.105 C  
HETATM   44  C   UNL     1      -8.238   7.007  68.117  1.00  0.00    -0.120 C  
ENDBRANCH  22  43
ENDBRANCH   2   3
TORSDOF 5
ENDMDL
MODEL       91
REMARK 921   NORMALIZED FREE ENERGY PREDICTED BY IDOCK:   10.49 KCAL/MOL
REMARK 922        TOTAL FREE ENERGY PREDICTED BY IDOCK:   12.53 KCAL/MOL
REMARK 923 INTER-LIGAND FREE ENERGY PREDICTED BY IDOCK:    2.78 KCAL/MOL
REMARK 924 INTRA-LIGAND FREE ENERGY PREDICTED BY IDOCK:    9.75 KCAL/MOL
REMARK 927      BINDING AFFINITY PREDICTED BY RF-SCORE:    0.00 PKD
ROOT
HETATM    1  C   UNL     1      -7.901   8.823  72.501  1.00  0.00     0.099 C  
HETATM    2  C   UNL     1      -8.220  10.071  71.699  1.00  0.00     2.667 C  
ENDROOT
BRANCH   2   3
HETATM    3  C   UNL     1      -8.316   9.799  70.215  1.00  0.00    -0.172 A  
HETATM    4  C   UNL     1      -8.949  10.712  69.392  1.00  0.00    -0.049 A  
HETATM    5  C   UNL     1      -9.502  12.048  69.749  1.00  0.00     1.994 A  
HETATM    6  N   UNL     1     -10.079  12.496  68.496  1.00  0.00    -0.211 N  
HETATM    7  C   UNL     1      -9.913  11.570  67.481  1.00  0.00    -0.190 A  
HETATM    8  C   UNL     1     -10.409  11.841  66.265  1.00  0.00    -0.259 C  
HETATM    9  C   UNL     1      -9.165  10.422  68.049  1.00  0.00    -0.140 A  
HETATM   10  N   UNL     1      -8.795   9.271  67.451  1.00  0.00    -0.118 NA 
HETATM   11  C   UNL     1     -11.184  13.083  66.053  1.00  0.00    -0.320 C  
HETATM   12  C   UNL     1     -11.296  13.980  67.048  1.00  0.00    -0.346 C  
HETATM   13  C   UNL     1      -8.133   8.369  68.242  1.00  0.00    -0.120 A  
HETATM   14  C   UNL     1      -7.719   7.126  67.740  1.00  0.00    -0.112 A  
HETATM   15  C   UNL     1     -10.687  13.713  68.378  1.00  0.00    -0.258 C  
HETATM   16  C   UNL     1     -12.031  15.265  66.959  1.00  0.00     0.236 C  
HETATM   17  C   UNL     1      -7.059   6.152  68.531  1.00  0.00    -0.082 A  
HETATM   18  O   UNL     1     -10.764  14.533  69.287  1.00  0.00    -0.243 OA 
HETATM   19  O   UNL     1     -12.814  15.434  65.767  1.00  0.00     0.955 OA 
HETATM   20  C   UNL     1     -12.772  14.623  64.692  1.00  0.00     0.012 C  
HETATM   21  C   UNL     1      -6.770   6.431  69.860  1.00  0.00    -0.053 A  
HETATM   22  C   UNL     1     -11.861  13.354  64.728  1.00  0.00    -0.380 C  
HETATM   23  H   UNL     1     -11.231  13.698  62.931  1.00  0.00     0.000 HD 
HETATM   24  O   UNL     1     -13.411  14.935  63.688  1.00  0.00     0.636 OA 
HETATM   25  C   UNL     1      -7.099   7.682  70.362  1.00  0.00    -0.058 A  
HETATM   26  O   UNL     1     -10.806  13.527  63.764  1.00  0.00    -0.084 OA 
HETATM   27  C   UNL     1      -7.839   8.620  69.613  1.00  0.00    -0.094 A  
BRANCH  21  28
HETATM   28  O   UNL     1      -6.118   5.453  70.659  1.00  0.00    -0.020 OA 
BRANCH  28  29
HETATM   29  C   UNL     1      -6.535   4.104  70.596  1.00  0.00    -0.031 C  
HETATM   30  C   UNL     1      -6.362   1.591  68.058  1.00  0.00    -0.025 C  
HETATM   31  N   UNL     1      -6.825   3.641  69.318  1.00  0.00    -0.044 N  
HETATM   32  C   UNL     1      -7.218   2.243  69.140  1.00  0.00    -0.044 C  
HETATM   33  O   UNL     1      -6.619   3.369  71.578  1.00  0.00    -0.021 OA 
HETATM   34  C   UNL     1      -6.878   4.457  68.112  1.00  0.00    -0.055 C  
HETATM   35  C   UNL     1      -6.073   3.806  66.984  1.00  0.00    -0.025 C  
HETATM   36  C   UNL     1      -6.499   2.336  66.708  1.00  0.00    -0.031 C  
BRANCH  36  37
HETATM   37  N   UNL     1      -7.855   2.221  66.104  1.00  0.00    -0.075 NA 
HETATM   38  C   UNL     1      -8.713   3.402  66.336  1.00  0.00    -0.126 C  
HETATM   39  C   UNL     1      -8.268   4.652  65.572  1.00  0.00    -0.115 C  
HETATM   40  C   UNL     1      -8.148   4.379  64.075  1.00  0.00    -0.095 C  
HETATM   41  C   UNL     1      -7.339   3.113  63.804  1.00  0.00    -0.058 C  
HETATM   42  C   UNL     1      -7.855   1.945  64.650  1.00  0.00    -0.069 C  
ENDBRANCH  36  37
ENDBRANCH  28  29
ENDBRANCH  21  28
BRANCH  22  43
HETATM   43  C   UNL     1     -12.715  12.161  64.229  1.00  0.00    -0.366 C  
HETATM   44  C   UNL     1     -11.958  11.104  63.432  1.00  0.00     0.671 C  
ENDBRANCH  22  43
ENDBRANCH   2   3
TORSDOF 5
ENDMDL
MODEL       92
REMARK 921   NORMALIZED FREE ENERGY PREDICTED BY IDOCK:   11.03 KCAL/MOL
REMARK 922        TOTAL FREE ENERGY PREDICTED BY IDOCK:   13.23 KCAL/MOL
REMARK 923 INTER-LIGAND FREE ENERGY PREDICTED BY IDOCK:    3.97 KCAL/MOL
REMARK 924 INTRA-LIGAND FREE ENERGY PREDICTED BY IDOCK:    9.26 KCAL/MOL
REMARK 927      BINDING AFFINITY PREDICTED BY RF-SCORE:    0.00 PKD
ROOT
HETATM    1  C   UNL     1      -7.394   8.485  69.006  1.00  0.00    -0.081 C  
HETATM    2  C   UNL     1      -7.218   9.963  69.301  1.00  0.00    -0.073 C  
ENDROOT
BRANCH   2   3
HETATM    3  C   UNL     1      -8.463  10.767  69.001  1.00  0.00    -0.137 A  
HETATM    4  C   UNL     1      -8.396  12.148  68.983  1.00  0.00     0.319 A  
HETATM    5  C   UNL     1      -7.195  13.016  69.127  1.00  0.00     0.084 A  
HETATM    6  N   UNL     1      -7.762  14.350  69.080  1.00  0.00    -0.121 N  
HETATM    7  C   UNL     1      -9.137  14.331  68.924  1.00  0.00    -0.031 A  
HETATM    8  C   UNL     1      -9.804  15.493  68.878  1.00  0.00    -0.219 C  
HETATM    9  C   UNL     1      -9.552  12.909  68.840  1.00  0.00     0.231 A  
HETATM   10  N   UNL     1     -10.791  12.393  68.715  1.00  0.00    -0.233 NA 
HETATM   11  C   UNL     1      -9.070  16.764  69.068  1.00  0.00    -0.191 C  
HETATM   12  C   UNL     1      -7.730  16.752  69.180  1.00  0.00    -0.165 C  
HETATM   13  C   UNL     1     -10.873  11.025  68.695  1.00  0.00    -0.215 A  
HETATM   14  C   UNL     1     -12.110  10.371  68.593  1.00  0.00     0.416 A  
HETATM   15  C   UNL     1      -6.982  15.467  69.161  1.00  0.00    -0.158 C  
HETATM   16  C   UNL     1      -6.879  17.953  69.360  1.00  0.00    -0.120 C  
HETATM   17  C   UNL     1     -12.242   8.960  68.599  1.00  0.00     3.306 A  
HETATM   18  O   UNL     1      -5.758  15.445  69.241  1.00  0.00    -0.096 OA 
HETATM   19  O   UNL     1      -7.596  19.172  69.609  1.00  0.00    -0.013 OA 
HETATM   20  C   UNL     1      -8.931  19.320  69.504  1.00  0.00     0.292 C  
HETATM   21  C   UNL     1     -11.106   8.166  68.676  1.00  0.00     0.364 A  
HETATM   22  C   UNL     1      -9.811  18.080  69.146  1.00  0.00    -0.150 C  
HETATM   23  H   UNL     1     -10.854  19.122  67.895  1.00  0.00     0.000 HD 
HETATM   24  O   UNL     1      -9.416  20.443  69.638  1.00  0.00     0.469 OA 
HETATM   25  C   UNL     1      -9.864   8.785  68.699  1.00  0.00    -0.180 A  
HETATM   26  O   UNL     1     -10.389  18.296  67.846  1.00  0.00    -0.366 OA 
HETATM   27  C   UNL     1      -9.727  10.185  68.790  1.00  0.00    -0.174 A  
BRANCH  21  28
HETATM   28  O   UNL     1     -11.235   6.751  68.693  1.00  0.00    -0.187 OA 
BRANCH  28  29
HETATM   29  C   UNL     1     -10.208   5.959  69.255  1.00  0.00    -0.213 C  
HETATM   30  C   UNL     1      -9.642   4.618  72.521  1.00  0.00    -0.178 C  
HETATM   31  N   UNL     1     -10.028   6.120  70.624  1.00  0.00    -0.185 N  
HETATM   32  C   UNL     1      -9.023   5.308  71.309  1.00  0.00    -0.140 C  
HETATM   33  O   UNL     1      -9.528   5.165  68.609  1.00  0.00    -0.120 OA 
HETATM   34  C   UNL     1     -10.691   7.117  71.454  1.00  0.00    -0.225 C  
HETATM   35  C   UNL     1     -11.279   6.469  72.711  1.00  0.00    -0.259 C  
HETATM   36  C   UNL     1     -10.231   5.648  73.515  1.00  0.00    -0.212 C  
BRANCH  36  37
HETATM   37  N   UNL     1      -9.198   6.497  74.170  1.00  0.00    -0.162 NA 
HETATM   38  C   UNL     1      -7.914   5.801  74.402  1.00  0.00    -0.103 C  
HETATM   39  C   UNL     1      -7.131   5.501  73.120  1.00  0.00    -0.082 C  
HETATM   40  C   UNL     1      -6.900   6.767  72.298  1.00  0.00    -0.063 C  
HETATM   41  C   UNL     1      -8.194   7.555  72.115  1.00  0.00    -0.118 C  
HETATM   42  C   UNL     1      -8.903   7.759  73.457  1.00  0.00    -0.255 C  
ENDBRANCH  36  37
ENDBRANCH  28  29
ENDBRANCH  21  28
BRANCH  22  43
HETATM   43  C   UNL     1     -10.993  18.050  70.148  1.00  0.00     1.998 C  
HETATM   44  C   UNL     1     -12.003  16.928  69.933  1.00  0.00     1.714 C  
ENDBRANCH  22  43
ENDBRANCH   2   3
TORSDOF 5
ENDMDL
MODEL       93
REMARK 921   NORMALIZED FREE ENERGY PREDICTED BY IDOCK:   11.27 KCAL/MOL
REMARK 922        TOTAL FREE ENERGY PREDICTED BY IDOCK:   13.54 KCAL/MOL
REMARK 923 INTER-LIGAND FREE ENERGY PREDICTED BY IDOCK:    3.34 KCAL/MOL
REMARK 924 INTRA-LIGAND FREE ENERGY PREDICTED BY IDOCK:   10.20 KCAL/MOL
REMARK 927      BINDING AFFINITY PREDICTED BY RF-SCORE:    0.00 PKD
ROOT
HETATM    1  C   UNL     1      -5.129  12.072  66.250  1.00  0.00     0.497 C  
HETATM    2  C   UNL     1      -5.527  11.067  67.315  1.00  0.00    -0.047 C  
ENDROOT
BRANCH   2   3
HETATM    3  C   UNL     1      -6.915  11.317  67.859  1.00  0.00    -0.073 A  
HETATM    4  C   UNL     1      -7.528  12.536  67.634  1.00  0.00    -0.139 A  
HETATM    5  C   UNL     1      -7.041  13.675  66.806  1.00  0.00     1.250 A  
HETATM    6  N   UNL     1      -8.076  14.672  67.001  1.00  0.00    -0.178 N  
HETATM    7  C   UNL     1      -9.085  14.225  67.837  1.00  0.00    -0.190 A  
HETATM    8  C   UNL     1     -10.106  15.046  68.122  1.00  0.00    -0.220 C  
HETATM    9  C   UNL     1      -8.747  12.836  68.234  1.00  0.00    -0.168 A  
HETATM   10  N   UNL     1      -9.413  12.004  69.059  1.00  0.00     0.167 NA 
HETATM   11  C   UNL     1     -10.097  16.431  67.600  1.00  0.00    -0.263 C  
HETATM   12  C   UNL     1      -9.123  16.823  66.760  1.00  0.00    -0.263 C  
HETATM   13  C   UNL     1      -8.839  10.777  69.266  1.00  0.00    -0.023 A  
HETATM   14  C   UNL     1      -9.425   9.833  70.123  1.00  0.00    -0.277 A  
HETATM   15  C   UNL     1      -8.026  15.890  66.388  1.00  0.00    -0.090 C  
HETATM   16  C   UNL     1      -9.009  18.174  66.159  1.00  0.00    -0.091 C  
HETATM   17  C   UNL     1      -8.850   8.565  70.388  1.00  0.00    -0.157 A  
HETATM   18  O   UNL     1      -7.144  16.229  65.606  1.00  0.00     1.210 OA 
HETATM   19  O   UNL     1      -9.922  19.149  66.683  1.00  0.00    -0.327 OA 
HETATM   20  C   UNL     1     -10.953  18.881  67.508  1.00  0.00    -0.236 C  
HETATM   21  C   UNL     1      -7.667   8.205  69.758  1.00  0.00    -0.100 A  
HETATM   22  C   UNL     1     -11.170  17.416  68.007  1.00  0.00     0.150 C  
HETATM   23  H   UNL     1     -13.076  17.545  67.702  1.00  0.00     0.000 HD 
HETATM   24  O   UNL     1     -11.730  19.788  67.802  1.00  0.00     0.735 OA 
HETATM   25  C   UNL     1      -7.105   9.087  68.846  1.00  0.00    -0.069 A  
HETATM   26  O   UNL     1     -12.402  16.926  67.447  1.00  0.00     1.901 OA 
HETATM   27  C   UNL     1      -7.617  10.386  68.648  1.00  0.00    -0.092 A  
BRANCH  21  28
HETATM   28  O   UNL     1      -7.081   6.939  70.030  1.00  0.00    -0.070 OA 
BRANCH  28  29
HETATM   29  C   UNL     1      -6.298   6.301  69.041  1.00  0.00    -0.041 C  
HETATM   30  C   UNL     1      -6.199   6.501  65.473  1.00  0.00    -0.034 C  
HETATM   31  N   UNL     1      -6.907   6.186  67.797  1.00  0.00    -0.061 N  
HETATM   32  C   UNL     1      -6.159   5.586  66.693  1.00  0.00    -0.030 C  
HETATM   33  O   UNL     1      -5.155   5.893  69.235  1.00  0.00    -0.004 OA 
HETATM   34  C   UNL     1      -8.293   6.521  67.498  1.00  0.00    -0.121 C  
HETATM   35  C   UNL     1      -8.377   7.397  66.244  1.00  0.00    -0.132 C  
HETATM   36  C   UNL     1      -7.654   6.769  65.019  1.00  0.00    -0.100 C  
BRANCH  36  37
HETATM   37  N   UNL     1      -8.341   5.560  64.487  1.00  0.00    -0.139 NA 
HETATM   38  C   UNL     1      -7.600   4.303  64.718  1.00  0.00    -0.077 C  
HETATM   39  C   UNL     1      -7.557   3.869  66.187  1.00  0.00    -0.089 C  
HETATM   40  C   UNL     1      -8.960   3.766  66.780  1.00  0.00    -0.150 C  
HETATM   41  C   UNL     1      -9.783   5.016  66.482  1.00  0.00    -0.193 C  
HETATM   42  C   UNL     1      -9.719   5.369  64.992  1.00  0.00     0.459 C  
ENDBRANCH  36  37
ENDBRANCH  28  29
ENDBRANCH  21  28
BRANCH  22  43
HETATM   43  C   UNL     1     -11.383  17.480  69.540  1.00  0.00     1.483 C  
HETATM   44  C   UNL     1     -11.607  16.135  70.224  1.00  0.00    -0.271 C  
ENDBRANCH  22  43
ENDBRANCH   2   3
TORSDOF 5
ENDMDL
MODEL       94
REMARK 921   NORMALIZED FREE ENERGY PREDICTED BY IDOCK:   11.82 KCAL/MOL
REMARK 922        TOTAL FREE ENERGY PREDICTED BY IDOCK:   14.24 KCAL/MOL
REMARK 923 INTER-LIGAND FREE ENERGY PREDICTED BY IDOCK:    7.71 KCAL/MOL
REMARK 924 INTRA-LIGAND FREE ENERGY PREDICTED BY IDOCK:    6.53 KCAL/MOL
REMARK 927      BINDING AFFINITY PREDICTED BY RF-SCORE:    0.00 PKD
ROOT
HETATM    1  C   UNL     1     -10.970  14.811  68.158  1.00  0.00    -0.274 C  
HETATM    2  C   UNL     1     -10.478  14.227  69.470  1.00  0.00     0.027 C  
ENDROOT
BRANCH   2   3
HETATM    3  C   UNL     1      -9.231  13.390  69.302  1.00  0.00     0.767 A  
HETATM    4  C   UNL     1      -9.339  12.017  69.187  1.00  0.00     0.470 A  
HETATM    5  C   UNL     1     -10.576  11.192  69.104  1.00  0.00    -0.204 A  
HETATM    6  N   UNL     1     -10.052   9.840  69.055  1.00  0.00    -0.178 N  
HETATM    7  C   UNL     1      -8.669   9.812  69.099  1.00  0.00    -0.155 A  
HETATM    8  C   UNL     1      -8.041   8.627  69.076  1.00  0.00    -0.121 C  
HETATM    9  C   UNL     1      -8.200  11.218  69.164  1.00  0.00     0.054 A  
HETATM   10  N   UNL     1      -6.940  11.689  69.251  1.00  0.00    -0.105 NA 
HETATM   11  C   UNL     1      -8.836   7.379  69.080  1.00  0.00    -0.132 C  
HETATM   12  C   UNL     1     -10.177   7.440  68.999  1.00  0.00    -0.201 C  
HETATM   13  C   UNL     1      -6.811  13.051  69.328  1.00  0.00    -0.019 A  
HETATM   14  C   UNL     1      -5.551  13.658  69.446  1.00  0.00    -0.087 A  
HETATM   15  C   UNL     1     -10.872   8.754  68.954  1.00  0.00    -0.008 C  
HETATM   16  C   UNL     1     -11.084   6.267  68.980  1.00  0.00    -0.378 C  
HETATM   17  C   UNL     1      -5.375  15.060  69.558  1.00  0.00    -0.089 A  
HETATM   18  O   UNL     1     -12.093   8.822  68.859  1.00  0.00     1.782 OA 
HETATM   19  O   UNL     1     -10.451   5.008  69.253  1.00  0.00    -0.190 OA 
HETATM   20  C   UNL     1      -9.121   4.811  69.331  1.00  0.00    -0.104 C  
HETATM   21  C   UNL     1      -6.484  15.894  69.521  1.00  0.00    -0.186 A  
HETATM   22  C   UNL     1      -8.157   6.032  69.181  1.00  0.00    -0.111 C  
HETATM   23  H   UNL     1      -6.978   5.020  68.029  1.00  0.00     0.000 HD 
HETATM   24  O   UNL     1      -8.697   3.663  69.462  1.00  0.00    -0.067 OA 
HETATM   25  C   UNL     1      -7.736  15.326  69.328  1.00  0.00    -0.214 A  
HETATM   26  O   UNL     1      -7.404   5.867  67.966  1.00  0.00    -0.077 OA 
HETATM   27  C   UNL     1      -7.930  13.930  69.310  1.00  0.00     0.306 A  
BRANCH  21  28
HETATM   28  O   UNL     1      -6.313  17.300  69.645  1.00  0.00    -0.248 OA 
BRANCH  28  29
HETATM   29  C   UNL     1      -6.595  18.141  68.545  1.00  0.00    -0.218 C  
HETATM   30  C   UNL     1      -8.611  21.066  68.136  1.00  0.00     0.604 C  
HETATM   31  N   UNL     1      -7.820  18.795  68.608  1.00  0.00    -0.326 N  
HETATM   32  C   UNL     1      -8.183  19.727  67.541  1.00  0.00    -0.312 C  
HETATM   33  O   UNL     1      -5.823  18.315  67.604  1.00  0.00    -0.155 OA 
HETATM   34  C   UNL     1      -8.853  18.564  69.608  1.00  0.00     0.834 C  
HETATM   35  C   UNL     1      -9.347  19.891  70.190  1.00  0.00     0.892 C  
HETATM   36  C   UNL     1      -9.812  20.896  69.097  1.00  0.00     1.111 C  
BRANCH  36  37
HETATM   37  N   UNL     1     -11.065  20.478  68.411  1.00  0.00     0.844 NA 
HETATM   38  C   UNL     1     -11.271  21.126  67.098  1.00  0.00     4.021 C  
HETATM   39  C   UNL     1     -10.294  20.657  66.016  1.00  0.00     0.262 C  
HETATM   40  C   UNL     1     -10.320  19.138  65.860  1.00  0.00    -0.463 C  
HETATM   41  C   UNL     1     -10.198  18.439  67.210  1.00  0.00    -0.396 C  
HETATM   42  C   UNL     1     -11.198  19.017  68.216  1.00  0.00     0.839 C  
ENDBRANCH  36  37
ENDBRANCH  28  29
ENDBRANCH  21  28
BRANCH  22  43
HETATM   43  C   UNL     1      -7.134   5.955  70.342  1.00  0.00    -0.070 C  
HETATM   44  C   UNL     1      -5.670   5.906  69.918  1.00  0.00    -0.016 C  
ENDBRANCH  22  43
ENDBRANCH   2   3
TORSDOF 5
ENDMDL
MODEL       95
REMARK 921   NORMALIZED FREE ENERGY PREDICTED BY IDOCK:   12.72 KCAL/MOL
REMARK 922        TOTAL FREE ENERGY PREDICTED BY IDOCK:   15.41 KCAL/MOL
REMARK 923 INTER-LIGAND FREE ENERGY PREDICTED BY IDOCK:   10.45 KCAL/MOL
REMARK 924 INTRA-LIGAND FREE ENERGY PREDICTED BY IDOCK:    4.95 KCAL/MOL
REMARK 927      BINDING AFFINITY PREDICTED BY RF-SCORE:    0.00 PKD
ROOT
HETATM    1  C   UNL     1     -13.450  14.677  65.413  1.00  0.00     1.063 C  
HETATM    2  C   UNL     1     -12.637  15.494  66.402  1.00  0.00     1.679 C  
ENDROOT
BRANCH   2   3
HETATM    3  C   UNL     1     -11.263  14.913  66.643  1.00  0.00    -0.340 A  
HETATM    4  C   UNL     1     -10.854  13.803  65.927  1.00  0.00    -0.283 A  
HETATM    5  C   UNL     1     -11.566  13.106  64.819  1.00  0.00    -0.333 A  
HETATM    6  N   UNL     1     -10.676  12.001  64.518  1.00  0.00    -0.294 N  
HETATM    7  C   UNL     1      -9.550  11.999  65.324  1.00  0.00    -0.100 A  
HETATM    8  C   UNL     1      -8.641  11.026  65.170  1.00  0.00    -0.015 C  
HETATM    9  C   UNL     1      -9.649  13.174  66.224  1.00  0.00    -0.234 A  
HETATM   10  N   UNL     1      -8.806  13.570  67.198  1.00  0.00    -0.221 NA 
HETATM   11  C   UNL     1      -8.893   9.938  64.199  1.00  0.00    -0.251 C  
HETATM   12  C   UNL     1      -9.977   9.988  63.405  1.00  0.00     0.427 C  
HETATM   13  C   UNL     1      -9.176  14.691  67.895  1.00  0.00    -0.197 A  
HETATM   14  C   UNL     1      -8.392  15.186  68.948  1.00  0.00    -0.190 A  
HETATM   15  C   UNL     1     -10.952  11.104  63.526  1.00  0.00    -0.115 C  
HETATM   16  C   UNL     1     -10.334   8.971  62.386  1.00  0.00     4.097 C  
HETATM   17  C   UNL     1      -8.753  16.323  69.713  1.00  0.00     0.514 A  
HETATM   18  O   UNL     1     -11.933  11.172  62.793  1.00  0.00     0.574 OA 
HETATM   19  O   UNL     1      -9.535   7.779  62.413  1.00  0.00     1.240 OA 
HETATM   20  C   UNL     1      -8.415   7.615  63.142  1.00  0.00     0.232 C  
HETATM   21  C   UNL     1      -9.917  17.014  69.405  1.00  0.00    -0.090 A  
HETATM   22  C   UNL     1      -7.947   8.763  64.093  1.00  0.00    -0.154 C  
HETATM   23  H   UNL     1      -6.111   8.550  63.525  1.00  0.00     0.000 HD 
HETATM   24  O   UNL     1      -7.758   6.585  62.997  1.00  0.00    -0.083 OA 
HETATM   25  C   UNL     1     -10.672  16.593  68.320  1.00  0.00    -0.351 A  
HETATM   26  O   UNL     1      -6.705   9.288  63.592  1.00  0.00    -0.090 OA 
HETATM   27  C   UNL     1     -10.372  15.410  67.613  1.00  0.00    -0.262 A  
BRANCH  21  28
HETATM   28  O   UNL     1     -10.288  18.148  70.178  1.00  0.00     0.657 OA 
BRANCH  28  29
HETATM   29  C   UNL     1      -9.342  19.170  70.423  1.00  0.00     1.727 C  
HETATM   30  C   UNL     1      -7.492  21.374  68.301  1.00  0.00     1.307 C  
HETATM   31  N   UNL     1      -8.441  19.395  69.389  1.00  0.00    -0.019 N  
HETATM   32  C   UNL     1      -7.454  20.465  69.526  1.00  0.00     0.539 C  
HETATM   33  O   UNL     1      -9.313  19.839  71.455  1.00  0.00     1.937 OA 
HETATM   34  C   UNL     1      -8.312  18.581  68.187  1.00  0.00    -0.296 C  
HETATM   35  C   UNL     1      -8.291  19.465  66.937  1.00  0.00    -0.308 C  
HETATM   36  C   UNL     1      -7.209  20.580  67.003  1.00  0.00    -0.317 C  
BRANCH  36  37
HETATM   37  N   UNL     1      -5.818  20.054  66.921  1.00  0.00    -0.171 NA 
HETATM   38  C   UNL     1      -5.716  18.599  67.158  1.00  0.00    -0.140 C  
HETATM   39  C   UNL     1      -6.310  17.745  66.034  1.00  0.00    -0.269 C  
HETATM   40  C   UNL     1      -5.699  18.100  64.681  1.00  0.00     0.181 C  
HETATM   41  C   UNL     1      -5.709  19.607  64.444  1.00  0.00    -0.299 C  
HETATM   42  C   UNL     1      -5.126  20.352  65.648  1.00  0.00    -0.169 C  
ENDBRANCH  36  37
ENDBRANCH  28  29
ENDBRANCH  21  28
BRANCH  22  43
HETATM   43  C   UNL     1      -7.625   8.120  65.466  1.00  0.00    -0.087 C  
HETATM   44  C   UNL     1      -6.146   7.872  65.740  1.00  0.00    -0.038 C  
ENDBRANCH  22  43
ENDBRANCH   2   3
TORSDOF 5
ENDMDL
MODEL       96
REMARK 921   NORMALIZED FREE ENERGY PREDICTED BY IDOCK:   13.47 KCAL/MOL
REMARK 922        TOTAL FREE ENERGY PREDICTED BY IDOCK:   16.38 KCAL/MOL
REMARK 923 INTER-LIGAND FREE ENERGY PREDICTED BY IDOCK:    5.39 KCAL/MOL
REMARK 924 INTRA-LIGAND FREE ENERGY PREDICTED BY IDOCK:   10.99 KCAL/MOL
REMARK 927      BINDING AFFINITY PREDICTED BY RF-SCORE:    0.00 PKD
ROOT
HETATM    1  C   UNL     1     -12.624  15.179  69.207  1.00  0.00     0.112 C  
HETATM    2  C   UNL     1     -12.013  13.799  69.363  1.00  0.00    -0.397 C  
ENDROOT
BRANCH   2   3
HETATM    3  C   UNL     1     -10.556  13.760  68.962  1.00  0.00    -0.161 A  
HETATM    4  C   UNL     1     -10.041  12.623  68.369  1.00  0.00    -0.222 A  
HETATM    5  C   UNL     1     -10.765  11.390  67.952  1.00  0.00    -0.200 A  
HETATM    6  N   UNL     1      -9.694  10.548  67.453  1.00  0.00    -0.162 N  
HETATM    7  C   UNL     1      -8.458  11.165  67.539  1.00  0.00    -0.126 A  
HETATM    8  C   UNL     1      -7.369  10.501  67.127  1.00  0.00    -0.093 C  
HETATM    9  C   UNL     1      -8.678  12.516  68.112  1.00  0.00    -0.190 A  
HETATM   10  N   UNL     1      -7.772  13.469  68.407  1.00  0.00    -0.130 NA 
HETATM   11  C   UNL     1      -7.499   9.102  66.661  1.00  0.00    -0.086 C  
HETATM   12  C   UNL     1      -8.718   8.544  66.553  1.00  0.00    -0.149 C  
HETATM   13  C   UNL     1      -8.269  14.619  68.962  1.00  0.00    -0.110 A  
HETATM   14  C   UNL     1      -7.421  15.674  69.336  1.00  0.00    -0.221 A  
HETATM   15  C   UNL     1      -9.934   9.304  66.945  1.00  0.00    -0.233 C  
HETATM   16  C   UNL     1      -8.983   7.161  66.088  1.00  0.00    -0.140 C  
HETATM   17  C   UNL     1      -7.890  16.867  69.940  1.00  0.00     1.184 A  
HETATM   18  O   UNL     1     -11.053   8.813  66.832  1.00  0.00     0.114 OA 
HETATM   19  O   UNL     1      -7.816   6.341  65.926  1.00  0.00    -0.097 OA 
HETATM   20  C   UNL     1      -6.545   6.784  65.983  1.00  0.00    -0.051 C  
HETATM   21  C   UNL     1      -9.251  17.037  70.154  1.00  0.00     1.931 A  
HETATM   22  C   UNL     1      -6.274   8.288  66.309  1.00  0.00    -0.046 C  
HETATM   23  H   UNL     1      -4.929   8.396  64.923  1.00  0.00     0.000 HD 
HETATM   24  O   UNL     1      -5.632   6.003  65.720  1.00  0.00    -0.015 OA 
HETATM   25  C   UNL     1     -10.120  16.043  69.725  1.00  0.00    -0.212 A  
HETATM   26  O   UNL     1      -5.699   8.907  65.144  1.00  0.00    -0.050 OA 
HETATM   27  C   UNL     1      -9.657  14.815  69.211  1.00  0.00    -0.082 A  
BRANCH  21  28
HETATM   28  O   UNL     1      -9.724  18.227  70.770  1.00  0.00     2.630 OA 
BRANCH  28  29
HETATM   29  C   UNL     1      -9.546  19.471  70.122  1.00  0.00     0.801 C  
HETATM   30  C   UNL     1     -10.230  20.642  66.814  1.00  0.00    -0.102 C  
HETATM   31  N   UNL     1      -9.382  19.394  68.744  1.00  0.00    -0.385 N  
HETATM   32  C   UNL     1      -9.240  20.630  67.975  1.00  0.00     0.106 C  
HETATM   33  O   UNL     1      -9.557  20.552  70.707  1.00  0.00     1.037 OA 
HETATM   34  C   UNL     1      -9.230  18.165  67.976  1.00  0.00    -0.279 C  
HETATM   35  C   UNL     1     -10.171  18.165  66.768  1.00  0.00    -0.379 C  
HETATM   36  C   UNL     1     -10.011  19.430  65.877  1.00  0.00    -0.264 C  
BRANCH  36  37
HETATM   37  N   UNL     1      -8.715  19.473  65.145  1.00  0.00     0.716 NA 
HETATM   38  C   UNL     1      -7.769  20.481  65.667  1.00  0.00     0.165 C  
HETATM   39  C   UNL     1      -7.198  20.140  67.047  1.00  0.00    -0.295 C  
HETATM   40  C   UNL     1      -6.550  18.758  67.057  1.00  0.00    -0.205 C  
HETATM   41  C   UNL     1      -7.470  17.707  66.443  1.00  0.00    -0.324 C  
HETATM   42  C   UNL     1      -8.004  18.177  65.086  1.00  0.00     2.071 C  
ENDBRANCH  36  37
ENDBRANCH  28  29
ENDBRANCH  21  28
BRANCH  22  43
HETATM   43  C   UNL     1      -5.183   8.331  67.408  1.00  0.00    -0.033 C  
HETATM   44  C   UNL     1      -5.698   8.251  68.841  1.00  0.00    -0.039 C  
ENDBRANCH  22  43
ENDBRANCH   2   3
TORSDOF 5
ENDMDL
MODEL       97
REMARK 921   NORMALIZED FREE ENERGY PREDICTED BY IDOCK:   13.89 KCAL/MOL
REMARK 922        TOTAL FREE ENERGY PREDICTED BY IDOCK:   16.93 KCAL/MOL
REMARK 923 INTER-LIGAND FREE ENERGY PREDICTED BY IDOCK:   10.66 KCAL/MOL
REMARK 924 INTRA-LIGAND FREE ENERGY PREDICTED BY IDOCK:    6.27 KCAL/MOL
REMARK 927      BINDING AFFINITY PREDICTED BY RF-SCORE:    0.00 PKD
ROOT
HETATM    1  C   UNL     1     -10.991  10.755  72.524  1.00  0.00     6.874 C  
HETATM    2  C   UNL     1     -11.876   9.935  71.602  1.00  0.00    -0.374 C  
ENDROOT
BRANCH   2   3
HETATM    3  C   UNL     1     -11.409   9.971  70.165  1.00  0.00    -0.357 A  
HETATM    4  C   UNL     1     -11.184  11.188  69.550  1.00  0.00    -0.341 A  
HETATM    5  C   UNL     1     -11.243  12.550  70.149  1.00  0.00     0.454 A  
HETATM    6  N   UNL     1     -10.971  13.408  69.011  1.00  0.00    -0.249 N  
HETATM    7  C   UNL     1     -10.765  12.687  67.847  1.00  0.00    -0.218 A  
HETATM    8  C   UNL     1     -10.517  13.347  66.707  1.00  0.00    -0.275 C  
HETATM    9  C   UNL     1     -10.881  11.249  68.193  1.00  0.00    -0.217 A  
HETATM   10  N   UNL     1     -10.786  10.172  67.387  1.00  0.00    -0.277 NA 
HETATM   11  C   UNL     1     -10.542  14.827  66.700  1.00  0.00    -0.299 C  
HETATM   12  C   UNL     1     -10.708  15.498  67.853  1.00  0.00    -0.294 C  
HETATM   13  C   UNL     1     -10.970   8.954  67.987  1.00  0.00     0.105 A  
HETATM   14  C   UNL     1     -10.919   7.762  67.248  1.00  0.00    -0.065 A  
HETATM   15  C   UNL     1     -10.914  14.766  69.131  1.00  0.00    -0.267 C  
HETATM   16  C   UNL     1     -10.738  16.975  67.982  1.00  0.00    -0.365 C  
HETATM   17  C   UNL     1     -11.133   6.485  67.823  1.00  0.00    -0.366 A  
HETATM   18  O   UNL     1     -11.046  15.368  70.192  1.00  0.00    -0.261 OA 
HETATM   19  O   UNL     1     -10.771  17.692  66.739  1.00  0.00    -0.262 OA 
HETATM   20  C   UNL     1     -10.591  17.141  65.523  1.00  0.00    -0.150 C  
HETATM   21  C   UNL     1     -11.375   6.379  69.185  1.00  0.00    -0.296 A  
HETATM   22  C   UNL     1     -10.390  15.595  65.407  1.00  0.00    -0.393 C  
HETATM   23  H   UNL     1      -8.954  15.830  64.132  1.00  0.00     0.000 HD 
HETATM   24  O   UNL     1     -10.534  17.878  64.539  1.00  0.00     0.889 OA 
HETATM   25  C   UNL     1     -11.354   7.534  69.954  1.00  0.00    -0.054 A  
HETATM   26  O   UNL     1      -9.050  15.347  64.945  1.00  0.00     0.871 OA 
HETATM   27  C   UNL     1     -11.237   8.816  69.379  1.00  0.00     0.163 A  
BRANCH  21  28
HETATM   28  O   UNL     1     -11.601   5.101  69.764  1.00  0.00     1.643 OA 
BRANCH  28  29
HETATM   29  C   UNL     1     -10.741   4.025  69.446  1.00  0.00     2.247 C  
HETATM   30  C   UNL     1      -8.161   2.322  71.243  1.00  0.00    -0.053 C  
HETATM   31  N   UNL     1      -9.531   4.021  70.130  1.00  0.00    -0.172 N  
HETATM   32  C   UNL     1      -8.592   2.922  69.908  1.00  0.00    -0.058 C  
HETATM   33  O   UNL     1     -11.028   3.135  68.648  1.00  0.00     3.962 OA 
HETATM   34  C   UNL     1      -9.045   5.087  70.996  1.00  0.00    -0.141 C  
HETATM   35  C   UNL     1      -8.551   4.516  72.329  1.00  0.00    -0.118 C  
HETATM   36  C   UNL     1      -7.497   3.387  72.149  1.00  0.00    -0.056 C  
BRANCH  36  37
HETATM   37  N   UNL     1      -6.192   3.879  71.626  1.00  0.00    -0.014 NA 
HETATM   38  C   UNL     1      -5.147   2.837  71.554  1.00  0.00     0.000 C  
HETATM   39  C   UNL     1      -5.400   1.780  70.475  1.00  0.00    -0.004 C  
HETATM   40  C   UNL     1      -5.598   2.418  69.103  1.00  0.00    -0.021 C  
HETATM   41  C   UNL     1      -6.609   3.560  69.161  1.00  0.00    -0.034 C  
HETATM   42  C   UNL     1      -6.272   4.528  70.299  1.00  0.00    -0.022 C  
ENDBRANCH  36  37
ENDBRANCH  28  29
ENDBRANCH  21  28
BRANCH  22  43
HETATM   43  C   UNL     1     -11.337  15.091  64.288  1.00  0.00    -0.087 C  
HETATM   44  C   UNL     1     -12.507  14.236  64.761  1.00  0.00    -0.390 C  
ENDBRANCH  22  43
ENDBRANCH   2   3
TORSDOF 5
ENDMDL
MODEL       98
REMARK 921   NORMALIZED FREE ENERGY PREDICTED BY IDOCK:   17.17 KCAL/MOL
REMARK 922        TOTAL FREE ENERGY PREDICTED BY IDOCK:   21.16 KCAL/MOL
REMARK 923 INTER-LIGAND FREE ENERGY PREDICTED BY IDOCK:   15.33 KCAL/MOL
REMARK 924 INTRA-LIGAND FREE ENERGY PREDICTED BY IDOCK:    5.83 KCAL/MOL
REMARK 927      BINDING AFFINITY PREDICTED BY RF-SCORE:    0.00 PKD
ROOT
HETATM    1  C   UNL     1      -7.827  13.193  72.213  1.00  0.00    12.136 C  
HETATM    2  C   UNL     1      -6.957  13.109  70.972  1.00  0.00     2.850 C  
ENDROOT
BRANCH   2   3
HETATM    3  C   UNL     1      -7.472  12.102  69.968  1.00  0.00     1.528 A  
HETATM    4  C   UNL     1      -7.323  10.751  70.218  1.00  0.00     0.483 A  
HETATM    5  C   UNL     1      -6.786  10.092  71.441  1.00  0.00     0.690 A  
HETATM    6  N   UNL     1      -6.830   8.686  71.087  1.00  0.00    -0.064 N  
HETATM    7  C   UNL     1      -7.330   8.481  69.813  1.00  0.00    -0.056 A  
HETATM    8  C   UNL     1      -7.416   7.228  69.341  1.00  0.00    -0.092 C  
HETATM    9  C   UNL     1      -7.670   9.811  69.252  1.00  0.00    -0.101 A  
HETATM   10  N   UNL     1      -8.159  10.119  68.034  1.00  0.00    -0.111 NA 
HETATM   11  C   UNL     1      -6.910   6.104  70.159  1.00  0.00    -0.057 C  
HETATM   12  C   UNL     1      -6.465   6.331  71.407  1.00  0.00    -0.050 C  
HETATM   13  C   UNL     1      -8.348  11.453  67.782  1.00  0.00    -0.127 A  
HETATM   14  C   UNL     1      -8.829  11.898  66.541  1.00  0.00    -0.178 A  
HETATM   15  C   UNL     1      -6.433   7.712  71.958  1.00  0.00    -0.043 C  
HETATM   16  C   UNL     1      -5.947   5.292  72.329  1.00  0.00    -0.026 C  
HETATM   17  C   UNL     1      -9.010  13.269  66.228  1.00  0.00     0.106 A  
HETATM   18  O   UNL     1      -6.050   7.929  73.102  1.00  0.00    -0.059 OA 
HETATM   19  O   UNL     1      -5.756   3.998  71.739  1.00  0.00    -0.007 OA 
HETATM   20  C   UNL     1      -6.178   3.637  70.511  1.00  0.00    -0.019 C  
HETATM   21  C   UNL     1      -8.735  14.232  67.188  1.00  0.00    -0.227 A  
HETATM   22  C   UNL     1      -6.880   4.698  69.603  1.00  0.00    -0.048 C  
HETATM   23  H   UNL     1      -8.233   3.420  69.076  1.00  0.00     0.000 HD 
HETATM   24  O   UNL     1      -6.050   2.465  70.160  1.00  0.00    -0.022 OA 
HETATM   25  C   UNL     1      -8.331  13.816  68.450  1.00  0.00    -0.152 A  
HETATM   26  O   UNL     1      -8.252   4.304  69.425  1.00  0.00    -0.063 OA 
HETATM   27  C   UNL     1      -8.058  12.464  68.740  1.00  0.00     0.074 A  
BRANCH  21  28
HETATM   28  O   UNL     1      -8.905  15.608  66.875  1.00  0.00    -0.212 OA 
BRANCH  28  29
HETATM   29  C   UNL     1      -8.400  16.595  67.752  1.00  0.00    -0.178 C  
HETATM   30  C   UNL     1      -8.060  20.148  67.526  1.00  0.00    -0.356 C  
HETATM   31  N   UNL     1      -7.905  17.735  67.128  1.00  0.00    -0.206 N  
HETATM   32  C   UNL     1      -7.406  18.836  67.951  1.00  0.00    -0.241 C  
HETATM   33  O   UNL     1      -8.409  16.488  68.976  1.00  0.00    -0.235 OA 
HETATM   34  C   UNL     1      -7.736  17.908  65.691  1.00  0.00     0.231 C  
HETATM   35  C   UNL     1      -8.332  19.242  65.235  1.00  0.00     1.248 C  
HETATM   36  C   UNL     1      -7.781  20.457  66.035  1.00  0.00    -0.074 C  
BRANCH  36  37
HETATM   37  N   UNL     1      -6.349  20.748  65.748  1.00  0.00    -0.237 NA 
HETATM   38  C   UNL     1      -5.429  19.660  66.141  1.00  0.00    -0.159 C  
HETATM   39  C   UNL     1      -5.548  18.404  65.271  1.00  0.00    -0.230 C  
HETATM   40  C   UNL     1      -5.370  18.731  63.791  1.00  0.00    -0.164 C  
HETATM   41  C   UNL     1      -6.244  19.911  63.373  1.00  0.00     0.162 C  
HETATM   42  C   UNL     1      -6.066  21.089  64.336  1.00  0.00    -0.277 C  
ENDBRANCH  36  37
ENDBRANCH  28  29
ENDBRANCH  21  28
BRANCH  22  43
HETATM   43  C   UNL     1      -6.218   4.614  68.204  1.00  0.00    -0.035 C  
HETATM   44  C   UNL     1      -7.185   4.496  67.031  1.00  0.00    -0.073 C  
ENDBRANCH  22  43
ENDBRANCH   2   3
TORSDOF 5
ENDMDL
MODEL       99
REMARK 921   NORMALIZED FREE ENERGY PREDICTED BY IDOCK:   17.40 KCAL/MOL
REMARK 922        TOTAL FREE ENERGY PREDICTED BY IDOCK:   21.46 KCAL/MOL
REMARK 923 INTER-LIGAND FREE ENERGY PREDICTED BY IDOCK:    6.49 KCAL/MOL
REMARK 924 INTRA-LIGAND FREE ENERGY PREDICTED BY IDOCK:   14.97 KCAL/MOL
REMARK 927      BINDING AFFINITY PREDICTED BY RF-SCORE:    0.00 PKD
ROOT
HETATM    1  C   UNL     1      -8.788  16.501  70.557  1.00  0.00     2.971 C  
HETATM    2  C   UNL     1      -9.495  15.240  70.095  1.00  0.00     0.272 C  
ENDROOT
BRANCH   2   3
HETATM    3  C   UNL     1      -8.670  14.436  69.117  1.00  0.00     0.093 A  
HETATM    4  C   UNL     1      -8.994  13.115  68.874  1.00  0.00     0.300 A  
HETATM    5  C   UNL     1     -10.159  12.340  69.386  1.00  0.00     0.636 A  
HETATM    6  N   UNL     1      -9.925  11.018  68.837  1.00  0.00    -0.200 N  
HETATM    7  C   UNL     1      -8.769  10.962  68.078  1.00  0.00    -0.132 A  
HETATM    8  C   UNL     1      -8.414   9.797  67.517  1.00  0.00    -0.122 C  
HETATM    9  C   UNL     1      -8.172  12.320  68.080  1.00  0.00    -0.168 A  
HETATM   10  N   UNL     1      -7.031  12.747  67.502  1.00  0.00    -0.143 NA 
HETATM   11  C   UNL     1      -9.220   8.584  67.780  1.00  0.00    -0.146 C  
HETATM   12  C   UNL     1     -10.358   8.679  68.491  1.00  0.00    -0.228 C  
HETATM   13  C   UNL     1      -6.713  14.064  67.703  1.00  0.00    -0.173 A  
HETATM   14  C   UNL     1      -5.537  14.618  67.172  1.00  0.00     0.847 A  
HETATM   15  C   UNL     1     -10.789   9.985  69.056  1.00  0.00    -0.222 C  
HETATM   16  C   UNL     1     -11.259   7.545  68.812  1.00  0.00     0.340 C  
HETATM   17  C   UNL     1      -5.155  15.967  67.379  1.00  0.00    -0.054 A  
HETATM   18  O   UNL     1     -11.836  10.088  69.688  1.00  0.00    -0.115 OA 
HETATM   19  O   UNL     1     -10.745   6.248  68.474  1.00  0.00    -0.231 OA 
HETATM   20  C   UNL     1      -9.634   6.021  67.746  1.00  0.00    -0.112 C  
HETATM   21  C   UNL     1      -5.981  16.808  68.113  1.00  0.00    -0.125 A  
HETATM   22  C   UNL     1      -8.775   7.234  67.264  1.00  0.00    -0.121 C  
HETATM   23  H   UNL     1      -8.576   6.455  65.505  1.00  0.00     0.000 HD 
HETATM   24  O   UNL     1      -9.357   4.864  67.432  1.00  0.00    -0.121 OA 
HETATM   25  C   UNL     1      -7.187  16.307  68.584  1.00  0.00    -0.166 A  
HETATM   26  O   UNL     1      -8.856   7.303  65.829  1.00  0.00    -0.144 OA 
HETATM   27  C   UNL     1      -7.531  14.945  68.465  1.00  0.00    -0.118 A  
BRANCH  21  28
HETATM   28  O   UNL     1      -5.596  18.158  68.333  1.00  0.00    -0.163 OA 
BRANCH  28  29
HETATM   29  C   UNL     1      -6.587  19.155  68.483  1.00  0.00    -0.255 C  
HETATM   30  C   UNL     1     -10.161  19.079  68.567  1.00  0.00    -0.422 C  
HETATM   31  N   UNL     1      -7.814  18.853  67.903  1.00  0.00    -0.258 N  
HETATM   32  C   UNL     1      -8.920  19.799  68.046  1.00  0.00    -0.311 C  
HETATM   33  O   UNL     1      -6.410  20.205  69.097  1.00  0.00    -0.306 OA 
HETATM   34  C   UNL     1      -8.088  17.701  67.054  1.00  0.00    -0.222 C  
HETATM   35  C   UNL     1      -9.361  16.983  67.513  1.00  0.00    -0.233 C  
HETATM   36  C   UNL     1     -10.587  17.934  67.617  1.00  0.00    -0.387 C  
BRANCH  36  37
HETATM   37  N   UNL     1     -11.072  18.413  66.292  1.00  0.00     0.297 NA 
HETATM   38  C   UNL     1     -11.750  19.725  66.344  1.00  0.00     1.585 C  
HETATM   39  C   UNL     1     -10.809  20.897  66.639  1.00  0.00     1.788 C  
HETATM   40  C   UNL     1      -9.649  20.946  65.647  1.00  0.00     1.073 C  
HETATM   41  C   UNL     1      -8.982  19.581  65.505  1.00  0.00     0.617 C  
HETATM   42  C   UNL     1     -10.025  18.488  65.249  1.00  0.00     1.241 C  
ENDBRANCH  36  37
ENDBRANCH  28  29
ENDBRANCH  21  28
BRANCH  22  43
HETATM   43  C   UNL     1      -7.298   6.914  67.603  1.00  0.00    -0.096 C  
HETATM   44  C   UNL     1      -6.981   6.789  69.089  1.00  0.00    -0.078 C  
ENDBRANCH  22  43
ENDBRANCH   2   3
TORSDOF 5
ENDMDL
MODEL      100
REMARK 921   NORMALIZED FREE ENERGY PREDICTED BY IDOCK:   19.35 KCAL/MOL
REMARK 922        TOTAL FREE ENERGY PREDICTED BY IDOCK:   23.98 KCAL/MOL
REMARK 923 INTER-LIGAND FREE ENERGY PREDICTED BY IDOCK:   18.14 KCAL/MOL
REMARK 924 INTRA-LIGAND FREE ENERGY PREDICTED BY IDOCK:    5.84 KCAL/MOL
REMARK 927      BINDING AFFINITY PREDICTED BY RF-SCORE:    0.00 PKD
ROOT
HETATM    1  C   UNL     1     -10.504  10.635  71.986  1.00  0.00     5.525 C  
HETATM    2  C   UNL     1     -10.721  11.956  71.270  1.00  0.00     5.132 C  
ENDROOT
BRANCH   2   3
HETATM    3  C   UNL     1     -10.681  11.813  69.765  1.00  0.00     0.307 A  
HETATM    4  C   UNL     1     -10.106  10.690  69.200  1.00  0.00    -0.234 A  
HETATM    5  C   UNL     1      -9.572   9.481  69.888  1.00  0.00    -0.223 A  
HETATM    6  N   UNL     1      -9.060   8.691  68.784  1.00  0.00    -0.142 N  
HETATM    7  C   UNL     1      -9.245   9.314  67.562  1.00  0.00    -0.124 A  
HETATM    8  C   UNL     1      -8.807   8.708  66.450  1.00  0.00    -0.167 C  
HETATM    9  C   UNL     1      -9.939  10.599  67.822  1.00  0.00    -0.167 A  
HETATM   10  N   UNL     1     -10.305  11.557  66.947  1.00  0.00    -0.216 NA 
HETATM   11  C   UNL     1      -8.072   7.427  66.556  1.00  0.00    -0.117 C  
HETATM   12  C   UNL     1      -7.942   6.829  67.754  1.00  0.00    -0.113 C  
HETATM   13  C   UNL     1     -10.910  12.663  67.486  1.00  0.00    -0.239 A  
HETATM   14  C   UNL     1     -11.314  13.738  66.679  1.00  0.00    -0.340 A  
HETATM   15  C   UNL     1      -8.488   7.467  68.981  1.00  0.00    -0.133 C  
HETATM   16  C   UNL     1      -7.243   5.543  67.992  1.00  0.00    -0.072 C  
HETATM   17  C   UNL     1     -11.916  14.912  67.198  1.00  0.00    -0.136 A  
HETATM   18  O   UNL     1      -8.394   6.922  70.075  1.00  0.00    -0.134 OA 
HETATM   19  O   UNL     1      -6.516   5.031  66.865  1.00  0.00    -0.039 OA 
HETATM   20  C   UNL     1      -6.582   5.522  65.613  1.00  0.00    -0.041 C  
HETATM   21  C   UNL     1     -12.156  15.013  68.561  1.00  0.00    -0.142 A  
HETATM   22  C   UNL     1      -7.459   6.785  65.333  1.00  0.00    -0.084 C  
HETATM   23  H   UNL     1      -8.171   5.991  63.719  1.00  0.00     0.000 HD 
HETATM   24  O   UNL     1      -5.994   4.928  64.710  1.00  0.00    -0.020 OA 
HETATM   25  C   UNL     1     -11.837  13.933  69.373  1.00  0.00    -0.384 A  
HETATM   26  O   UNL     1      -8.557   6.395  64.488  1.00  0.00     0.043 OA 
HETATM   27  C   UNL     1     -11.153  12.802  68.882  1.00  0.00    -0.310 A  
BRANCH  21  28
HETATM   28  O   UNL     1     -12.748  16.193  69.087  1.00  0.00     0.314 OA 
BRANCH  28  29
HETATM   29  C   UNL     1     -12.259  17.459  68.693  1.00  0.00     3.087 C  
HETATM   30  C   UNL     1      -9.874  18.525  66.251  1.00  0.00    -0.352 C  
HETATM   31  N   UNL     1     -10.976  17.450  68.157  1.00  0.00    -0.265 N  
HETATM   32  C   UNL     1     -10.399  18.703  67.673  1.00  0.00    -0.412 C  
HETATM   33  O   UNL     1     -12.907  18.499  68.785  1.00  0.00     7.464 OA 
HETATM   34  C   UNL     1     -10.082  16.300  68.119  1.00  0.00    -0.244 C  
HETATM   35  C   UNL     1      -9.492  16.121  66.718  1.00  0.00    -0.256 C  
HETATM   36  C   UNL     1      -8.804  17.409  66.183  1.00  0.00    -0.145 C  
BRANCH  36  37
HETATM   37  N   UNL     1      -7.547  17.748  66.908  1.00  0.00    -0.200 NA 
HETATM   38  C   UNL     1      -6.445  16.793  66.669  1.00  0.00    -0.141 C  
HETATM   39  C   UNL     1      -5.870  16.853  65.250  1.00  0.00     2.584 C  
HETATM   40  C   UNL     1      -5.426  18.268  64.887  1.00  0.00    -0.105 C  
HETATM   41  C   UNL     1      -6.512  19.291  65.206  1.00  0.00    -0.307 C  
HETATM   42  C   UNL     1      -7.032  19.108  66.635  1.00  0.00    -0.205 C  
ENDBRANCH  36  37
ENDBRANCH  28  29
ENDBRANCH  21  28
BRANCH  22  43
HETATM   43  C   UNL     1      -6.597   7.767  64.501  1.00  0.00    -0.048 C  
HETATM   44  C   UNL     1      -6.071   8.979  65.262  1.00  0.00    -0.059 C  
ENDBRANCH  22  43
ENDBRANCH   2   3
TORSDOF 5
ENDMDL
MODEL      101
REMARK 921   NORMALIZED FREE ENERGY PREDICTED BY IDOCK:   23.41 KCAL/MOL
REMARK 922        TOTAL FREE ENERGY PREDICTED BY IDOCK:   29.22 KCAL/MOL
REMARK 923 INTER-LIGAND FREE ENERGY PREDICTED BY IDOCK:   14.77 KCAL/MOL
REMARK 924 INTRA-LIGAND FREE ENERGY PREDICTED BY IDOCK:   14.45 KCAL/MOL
REMARK 927      BINDING AFFINITY PREDICTED BY RF-SCORE:    0.00 PKD
ROOT
HETATM    1  C   UNL     1     -11.316  15.836  68.037  1.00  0.00    -0.310 C  
HETATM    2  C   UNL     1     -11.539  14.447  67.468  1.00  0.00    -0.398 C  
ENDROOT
BRANCH   2   3
HETATM    3  C   UNL     1     -11.097  13.355  68.415  1.00  0.00    -0.301 A  
HETATM    4  C   UNL     1     -10.593  12.172  67.906  1.00  0.00    -0.230 A  
HETATM    5  C   UNL     1     -10.313  11.824  66.485  1.00  0.00    -0.223 A  
HETATM    6  N   UNL     1      -9.858  10.450  66.580  1.00  0.00    -0.194 N  
HETATM    7  C   UNL     1      -9.848   9.990  67.886  1.00  0.00    -0.145 A  
HETATM    8  C   UNL     1      -9.463   8.728  68.129  1.00  0.00    -0.152 C  
HETATM    9  C   UNL     1     -10.303  11.106  68.751  1.00  0.00    -0.205 A  
HETATM   10  N   UNL     1     -10.482  11.125  70.087  1.00  0.00     0.459 NA 
HETATM   11  C   UNL     1      -9.130   7.836  66.997  1.00  0.00    -0.162 C  
HETATM   12  C   UNL     1      -9.113   8.323  65.743  1.00  0.00    -0.169 C  
HETATM   13  C   UNL     1     -10.946  12.301  70.614  1.00  0.00     2.190 A  
HETATM   14  C   UNL     1     -11.195  12.436  71.989  1.00  0.00     6.085 A  
HETATM   15  C   UNL     1      -9.473   9.741  65.479  1.00  0.00    -0.262 C  
HETATM   16  C   UNL     1      -8.784   7.538  64.529  1.00  0.00     0.436 C  
HETATM   17  C   UNL     1     -11.703  13.624  72.571  1.00  0.00     2.067 A  
HETATM   18  O   UNL     1      -9.441  10.203  64.343  1.00  0.00    -0.269 OA 
HETATM   19  O   UNL     1      -8.659   6.123  64.736  1.00  0.00    -0.062 OA 
HETATM   20  C   UNL     1      -8.635   5.517  65.939  1.00  0.00    -0.141 C  
HETATM   21  C   UNL     1     -11.945  14.730  71.769  1.00  0.00    -0.339 A  
HETATM   22  C   UNL     1      -8.814   6.376  67.232  1.00  0.00    -0.108 C  
HETATM   23  H   UNL     1      -7.382   5.426  68.119  1.00  0.00     0.000 HD 
HETATM   24  O   UNL     1      -8.414   4.307  65.989  1.00  0.00    -0.112 OA 
HETATM   25  C   UNL     1     -11.635  14.651  70.418  1.00  0.00    -0.326 A  
HETATM   26  O   UNL     1      -7.580   6.343  67.971  1.00  0.00    -0.098 OA 
HETATM   27  C   UNL     1     -11.220  13.447  69.814  1.00  0.00    -0.044 A  
BRANCH  21  28
HETATM   28  O   UNL     1     -12.465  15.920  72.347  1.00  0.00    -0.410 OA 
BRANCH  28  29
HETATM   29  C   UNL     1     -11.766  17.138  72.194  1.00  0.00     1.013 C  
HETATM   30  C   UNL     1      -9.836  18.552  69.536  1.00  0.00     0.211 C  
HETATM   31  N   UNL     1     -10.698  17.093  71.305  1.00  0.00     1.379 N  
HETATM   32  C   UNL     1      -9.941  18.315  71.040  1.00  0.00     3.679 C  
HETATM   33  O   UNL     1     -12.073  18.178  72.773  1.00  0.00     3.109 OA 
HETATM   34  C   UNL     1     -10.177  15.890  70.668  1.00  0.00     0.479 C  
HETATM   35  C   UNL     1     -10.007  16.108  69.162  1.00  0.00    -0.251 C  
HETATM   36  C   UNL     1      -9.149  17.361  68.826  1.00  0.00    -0.227 C  
BRANCH  36  37
HETATM   37  N   UNL     1      -7.713  17.204  69.188  1.00  0.00    -0.162 NA 
HETATM   38  C   UNL     1      -7.308  15.803  69.428  1.00  0.00    -0.217 C  
HETATM   39  C   UNL     1      -7.283  14.940  68.164  1.00  0.00    -0.124 C  
HETATM   40  C   UNL     1      -6.403  15.560  67.081  1.00  0.00     0.147 C  
HETATM   41  C   UNL     1      -6.738  17.034  66.870  1.00  0.00    -0.252 C  
HETATM   42  C   UNL     1      -6.769  17.783  68.206  1.00  0.00    -0.206 C  
ENDBRANCH  36  37
ENDBRANCH  28  29
ENDBRANCH  21  28
BRANCH  22  43
HETATM   43  C   UNL     1      -9.870   5.663  68.114  1.00  0.00    -0.170 C  
HETATM   44  C   UNL     1      -9.326   4.568  69.026  1.00  0.00    -0.211 C  
ENDBRANCH  22  43
ENDBRANCH   2   3
TORSDOF 5
ENDMDL
MODEL      102
REMARK 921   NORMALIZED FREE ENERGY PREDICTED BY IDOCK:   23.62 KCAL/MOL
REMARK 922        TOTAL FREE ENERGY PREDICTED BY IDOCK:   29.50 KCAL/MOL
REMARK 923 INTER-LIGAND FREE ENERGY PREDICTED BY IDOCK:   16.55 KCAL/MOL
REMARK 924 INTRA-LIGAND FREE ENERGY PREDICTED BY IDOCK:   12.95 KCAL/MOL
REMARK 927      BINDING AFFINITY PREDICTED BY RF-SCORE:    0.00 PKD
ROOT
HETATM    1  C   UNL     1     -10.993  10.760  72.526  1.00  0.00     6.874 C  
HETATM    2  C   UNL     1     -11.918   9.946  71.640  1.00  0.00    -0.427 C  
ENDROOT
BRANCH   2   3
HETATM    3  C   UNL     1     -11.484   9.947  70.192  1.00  0.00    -0.309 A  
HETATM    4  C   UNL     1     -11.232  11.148  69.555  1.00  0.00    -0.341 A  
HETATM    5  C   UNL     1     -11.230  12.519  70.137  1.00  0.00     0.454 A  
HETATM    6  N   UNL     1     -10.957  13.352  68.981  1.00  0.00    -0.249 N  
HETATM    7  C   UNL     1     -10.803  12.609  67.823  1.00  0.00    -0.221 A  
HETATM    8  C   UNL     1     -10.560  13.246  66.668  1.00  0.00    -0.283 C  
HETATM    9  C   UNL     1     -10.960  11.181  68.191  1.00  0.00    -0.238 A  
HETATM   10  N   UNL     1     -10.921  10.091  67.397  1.00  0.00    -0.256 NA 
HETATM   11  C   UNL     1     -10.534  14.725  66.642  1.00  0.00    -0.286 C  
HETATM   12  C   UNL     1     -10.649  15.417  67.789  1.00  0.00    -0.274 C  
HETATM   13  C   UNL     1     -11.132   8.888  68.018  1.00  0.00     0.268 A  
HETATM   14  C   UNL     1     -11.140   7.686  67.294  1.00  0.00     0.091 A  
HETATM   15  C   UNL     1     -10.850  14.709  69.081  1.00  0.00    -0.259 C  
HETATM   16  C   UNL     1     -10.626  16.896  67.898  1.00  0.00    -0.361 C  
HETATM   17  C   UNL     1     -11.384   6.424  67.891  1.00  0.00    -0.073 A  
HETATM   18  O   UNL     1     -10.936  15.328  70.137  1.00  0.00    -0.261 OA 
HETATM   19  O   UNL     1     -10.664  17.597  66.646  1.00  0.00    -0.254 OA 
HETATM   20  C   UNL     1     -10.532  17.024  65.434  1.00  0.00    -0.112 C  
HETATM   21  C   UNL     1     -11.597   6.344  69.261  1.00  0.00    -0.096 A  
HETATM   22  C   UNL     1     -10.387  15.472  65.335  1.00  0.00    -0.394 C  
HETATM   23  H   UNL     1      -8.975  15.640  64.024  1.00  0.00     0.000 HD 
HETATM   24  O   UNL     1     -10.473  17.746  64.440  1.00  0.00     1.177 OA 
HETATM   25  C   UNL     1     -11.518   7.508  70.013  1.00  0.00    -0.049 A  
HETATM   26  O   UNL     1      -9.067  15.172  64.845  1.00  0.00     1.024 OA 
HETATM   27  C   UNL     1     -11.371   8.777  69.417  1.00  0.00     0.300 A  
BRANCH  21  28
HETATM   28  O   UNL     1     -11.853   5.082  69.861  1.00  0.00     3.116 OA 
BRANCH  28  29
HETATM   29  C   UNL     1     -11.043   3.971  69.532  1.00  0.00     4.385 C  
HETATM   30  C   UNL     1      -7.574   3.601  68.746  1.00  0.00    -0.053 C  
HETATM   31  N   UNL     1      -9.932   4.268  68.751  1.00  0.00    -0.042 N  
HETATM   32  C   UNL     1      -9.004   3.194  68.398  1.00  0.00    -0.138 C  
HETATM   33  O   UNL     1     -11.269   2.825  69.915  1.00  0.00     5.105 OA 
HETATM   34  C   UNL     1      -9.643   5.561  68.146  1.00  0.00    -0.119 C  
HETATM   35  C   UNL     1      -8.197   5.978  68.428  1.00  0.00    -0.110 C  
HETATM   36  C   UNL     1      -7.163   4.896  68.006  1.00  0.00    -0.066 C  
BRANCH  36  37
HETATM   37  N   UNL     1      -7.058   4.727  66.530  1.00  0.00    -0.073 NA 
HETATM   38  C   UNL     1      -6.006   3.777  66.112  1.00  0.00    -0.023 C  
HETATM   39  C   UNL     1      -6.321   2.317  66.450  1.00  0.00    -0.024 C  
HETATM   40  C   UNL     1      -7.670   1.889  65.878  1.00  0.00    -0.071 C  
HETATM   41  C   UNL     1      -8.763   2.898  66.219  1.00  0.00    -0.134 C  
HETATM   42  C   UNL     1      -8.319   4.322  65.870  1.00  0.00    -0.109 C  
ENDBRANCH  36  37
ENDBRANCH  28  29
ENDBRANCH  21  28
BRANCH  22  43
HETATM   43  C   UNL     1     -11.376  14.987  64.246  1.00  0.00    -0.087 C  
HETATM   44  C   UNL     1     -11.970  13.601  64.475  1.00  0.00    -0.454 C  
ENDBRANCH  22  43
ENDBRANCH   2   3
TORSDOF 5
ENDMDL
MODEL      103
REMARK 921   NORMALIZED FREE ENERGY PREDICTED BY IDOCK:   24.09 KCAL/MOL
REMARK 922        TOTAL FREE ENERGY PREDICTED BY IDOCK:   30.11 KCAL/MOL
REMARK 923 INTER-LIGAND FREE ENERGY PREDICTED BY IDOCK:   13.66 KCAL/MOL
REMARK 924 INTRA-LIGAND FREE ENERGY PREDICTED BY IDOCK:   16.44 KCAL/MOL
REMARK 927      BINDING AFFINITY PREDICTED BY RF-SCORE:    0.00 PKD
ROOT
HETATM    1  C   UNL     1     -13.081   9.040  69.783  1.00  0.00     2.498 C  
HETATM    2  C   UNL     1     -12.405   7.736  69.401  1.00  0.00     2.172 C  
ENDROOT
BRANCH   2   3
HETATM    3  C   UNL     1     -10.934   7.911  69.100  1.00  0.00     0.046 A  
HETATM    4  C   UNL     1     -10.376   9.176  69.129  1.00  0.00    -0.223 A  
HETATM    5  C   UNL     1     -11.019  10.459  69.527  1.00  0.00    -0.262 A  
HETATM    6  N   UNL     1      -9.963  11.426  69.297  1.00  0.00     0.019 N  
HETATM    7  C   UNL     1      -8.805  10.836  68.820  1.00  0.00    -0.163 A  
HETATM    8  C   UNL     1      -7.744  11.609  68.547  1.00  0.00    -0.134 C  
HETATM    9  C   UNL     1      -9.059   9.377  68.728  1.00  0.00    -0.132 A  
HETATM   10  N   UNL     1      -8.241   8.399  68.291  1.00  0.00    -0.122 NA 
HETATM   11  C   UNL     1      -7.856  13.078  68.690  1.00  0.00    -0.050 C  
HETATM   12  C   UNL     1      -8.980  13.618  69.191  1.00  0.00     0.488 C  
HETATM   13  C   UNL     1      -8.764   7.133  68.290  1.00  0.00    -0.128 A  
HETATM   14  C   UNL     1      -8.017   6.036  67.835  1.00  0.00    -0.106 A  
HETATM   15  C   UNL     1     -10.134  12.755  69.559  1.00  0.00     0.962 C  
HETATM   16  C   UNL     1      -9.211  15.069  69.395  1.00  0.00    -0.111 C  
HETATM   17  C   UNL     1      -8.529   4.715  67.789  1.00  0.00    -0.103 A  
HETATM   18  O   UNL     1     -11.157  13.234  70.037  1.00  0.00     0.102 OA 
HETATM   19  O   UNL     1      -8.206  15.927  68.835  1.00  0.00    -0.182 OA 
HETATM   20  C   UNL     1      -7.029  15.513  68.329  1.00  0.00    -0.115 C  
HETATM   21  C   UNL     1      -9.818   4.465  68.240  1.00  0.00    -0.064 A  
HETATM   22  C   UNL     1      -6.718  13.982  68.270  1.00  0.00    -0.109 C  
HETATM   23  H   UNL     1      -4.916  14.275  68.907  1.00  0.00     0.000 HD 
HETATM   24  O   UNL     1      -6.204  16.355  67.977  1.00  0.00    -0.112 OA 
HETATM   25  C   UNL     1     -10.553   5.518  68.768  1.00  0.00    -0.236 A  
HETATM   26  O   UNL     1      -5.630  13.707  69.171  1.00  0.00    -0.073 OA 
HETATM   27  C   UNL     1     -10.088   6.849  68.730  1.00  0.00    -0.168 A  
BRANCH  21  28
HETATM   28  O   UNL     1     -10.340   3.144  68.185  1.00  0.00     1.038 OA 
BRANCH  28  29
HETATM   29  C   UNL     1     -10.316   2.431  66.966  1.00  0.00     2.643 C  
HETATM   30  C   UNL     1      -7.736   1.666  64.611  1.00  0.00    -0.064 C  
HETATM   31  N   UNL     1      -9.322   2.823  66.077  1.00  0.00    -0.075 N  
HETATM   32  C   UNL     1      -9.182   2.112  64.807  1.00  0.00    -0.129 C  
HETATM   33  O   UNL     1     -11.089   1.513  66.697  1.00  0.00     4.958 OA 
HETATM   34  C   UNL     1      -8.442   3.972  66.245  1.00  0.00    -0.109 C  
HETATM   35  C   UNL     1      -6.983   3.575  66.002  1.00  0.00    -0.062 C  
HETATM   36  C   UNL     1      -6.768   2.874  64.630  1.00  0.00    -0.040 C  
BRANCH  36  37
HETATM   37  N   UNL     1      -6.941   3.790  63.469  1.00  0.00    -0.044 NA 
HETATM   38  C   UNL     1      -8.346   3.949  63.039  1.00  0.00    -0.086 C  
HETATM   39  C   UNL     1      -9.213   4.730  64.031  1.00  0.00     0.004 C  
HETATM   40  C   UNL     1      -8.606   6.094  64.350  1.00  0.00     0.182 C  
HETATM   41  C   UNL     1      -7.129   5.973  64.713  1.00  0.00    -0.060 C  
HETATM   42  C   UNL     1      -6.377   5.143  63.669  1.00  0.00    -0.022 C  
ENDBRANCH  36  37
ENDBRANCH  28  29
ENDBRANCH  21  28
BRANCH  22  43
HETATM   43  C   UNL     1      -6.194  13.674  66.845  1.00  0.00     1.397 C  
HETATM   44  C   UNL     1      -5.662  12.260  66.638  1.00  0.00     0.441 C  
ENDBRANCH  22  43
ENDBRANCH   2   3
TORSDOF 5
ENDMDL
MODEL      104
REMARK 921   NORMALIZED FREE ENERGY PREDICTED BY IDOCK:   30.03 KCAL/MOL
REMARK 922        TOTAL FREE ENERGY PREDICTED BY IDOCK:   37.78 KCAL/MOL
REMARK 923 INTER-LIGAND FREE ENERGY PREDICTED BY IDOCK:   19.59 KCAL/MOL
REMARK 924 INTRA-LIGAND FREE ENERGY PREDICTED BY IDOCK:   18.19 KCAL/MOL
REMARK 927      BINDING AFFINITY PREDICTED BY RF-SCORE:    0.00 PKD
ROOT
HETATM    1  C   UNL     1      -8.820  16.572  70.520  1.00  0.00     2.971 C  
HETATM    2  C   UNL     1      -9.522  15.267  70.192  1.00  0.00     0.272 C  
ENDROOT
BRANCH   2   3
HETATM    3  C   UNL     1      -8.768  14.442  69.173  1.00  0.00     0.093 A  
HETATM    4  C   UNL     1      -8.939  13.071  69.142  1.00  0.00     0.694 A  
HETATM    5  C   UNL     1      -9.880  12.240  69.944  1.00  0.00     2.215 A  
HETATM    6  N   UNL     1      -9.558  10.893  69.511  1.00  0.00     0.033 N  
HETATM    7  C   UNL     1      -8.551  10.873  68.563  1.00  0.00    -0.152 A  
HETATM    8  C   UNL     1      -8.135   9.693  68.079  1.00  0.00    -0.105 C  
HETATM    9  C   UNL     1      -8.159  12.280  68.304  1.00  0.00    -0.166 A  
HETATM   10  N   UNL     1      -7.204  12.757  67.482  1.00  0.00    -0.147 NA 
HETATM   11  C   UNL     1      -8.707   8.440  68.620  1.00  0.00    -0.133 C  
HETATM   12  C   UNL     1      -9.711   8.494  69.514  1.00  0.00    -0.176 C  
HETATM   13  C   UNL     1      -7.044  14.118  67.472  1.00  0.00    -0.163 A  
HETATM   14  C   UNL     1      -6.065  14.732  66.675  1.00  0.00     2.435 A  
HETATM   15  C   UNL     1     -10.220   9.803  70.000  1.00  0.00    -0.263 C  
HETATM   16  C   UNL     1     -10.376   7.315  70.119  1.00  0.00    -0.212 C  
HETATM   17  C   UNL     1      -5.847  16.132  66.657  1.00  0.00     0.622 A  
HETATM   18  O   UNL     1     -11.149   9.866  70.799  1.00  0.00    -0.303 OA 
HETATM   19  O   UNL     1      -9.749   6.054  69.839  1.00  0.00    -0.158 OA 
HETATM   20  C   UNL     1      -8.756   5.865  68.949  1.00  0.00    -0.116 C  
HETATM   21  C   UNL     1      -6.648  16.959  67.433  1.00  0.00    -0.162 A  
HETATM   22  C   UNL     1      -8.170   7.095  68.184  1.00  0.00    -0.124 C  
HETATM   23  H   UNL     1      -8.162   6.116  66.517  1.00  0.00     0.000 HD 
HETATM   24  O   UNL     1      -8.375   4.717  68.719  1.00  0.00    -0.082 OA 
HETATM   25  C   UNL     1      -7.674  16.387  68.171  1.00  0.00    -0.161 A  
HETATM   26  O   UNL     1      -8.500   6.961  66.790  1.00  0.00    -0.113 OA 
HETATM   27  C   UNL     1      -7.838  14.991  68.269  1.00  0.00    -0.119 A  
BRANCH  21  28
HETATM   28  O   UNL     1      -6.425  18.363  67.426  1.00  0.00    -0.187 OA 
BRANCH  28  29
HETATM   29  C   UNL     1      -7.490  19.244  67.723  1.00  0.00    -0.257 C  
HETATM   30  C   UNL     1     -10.695  18.805  69.245  1.00  0.00     0.904 C  
HETATM   31  N   UNL     1      -8.745  18.649  67.770  1.00  0.00    -0.276 N  
HETATM   32  C   UNL     1      -9.907  19.467  68.119  1.00  0.00    -0.393 C  
HETATM   33  O   UNL     1      -7.340  20.443  67.949  1.00  0.00    -0.292 OA 
HETATM   34  C   UNL     1      -9.045  17.273  67.398  1.00  0.00    -0.226 C  
HETATM   35  C   UNL     1      -9.884  16.591  68.483  1.00  0.00    -0.243 C  
HETATM   36  C   UNL     1     -11.170  17.389  68.842  1.00  0.00     0.512 C  
BRANCH  36  37
HETATM   37  N   UNL     1     -12.184  17.392  67.751  1.00  0.00     2.159 NA 
HETATM   38  C   UNL     1     -11.665  16.909  66.454  1.00  0.00     1.742 C  
HETATM   39  C   UNL     1     -11.360  15.408  66.429  1.00  0.00    -0.087 C  
HETATM   40  C   UNL     1     -12.575  14.584  66.846  1.00  0.00     0.336 C  
HETATM   41  C   UNL     1     -13.188  15.113  68.139  1.00  0.00     3.295 C  
HETATM   42  C   UNL     1     -13.412  16.626  68.057  1.00  0.00     6.216 C  
ENDBRANCH  36  37
ENDBRANCH  28  29
ENDBRANCH  21  28
BRANCH  22  43
HETATM   43  C   UNL     1      -6.626   7.001  68.278  1.00  0.00    -0.059 C  
HETATM   44  C   UNL     1      -6.049   7.116  69.685  1.00  0.00    -0.030 C  
ENDBRANCH  22  43
ENDBRANCH   2   3
TORSDOF 5
ENDMDL
MODEL      105
REMARK 921   NORMALIZED FREE ENERGY PREDICTED BY IDOCK:   30.45 KCAL/MOL
REMARK 922        TOTAL FREE ENERGY PREDICTED BY IDOCK:   38.32 KCAL/MOL
REMARK 923 INTER-LIGAND FREE ENERGY PREDICTED BY IDOCK:   22.13 KCAL/MOL
REMARK 924 INTRA-LIGAND FREE ENERGY PREDICTED BY IDOCK:   16.19 KCAL/MOL
REMARK 927      BINDING AFFINITY PREDICTED BY RF-SCORE:    0.00 PKD
ROOT
HETATM    1  C   UNL     1      -8.134   8.645  67.590  1.00  0.00    -0.107 C  
HETATM    2  C   UNL     1      -7.577  10.043  67.785  1.00  0.00    -0.090 C  
ENDROOT
BRANCH   2   3
HETATM    3  C   UNL     1      -8.489  11.114  67.233  1.00  0.00    -0.137 A  
HETATM    4  C   UNL     1      -8.281  12.436  67.581  1.00  0.00    -0.169 A  
HETATM    5  C   UNL     1      -7.170  13.013  68.389  1.00  0.00    -0.110 A  
HETATM    6  N   UNL     1      -7.525  14.418  68.454  1.00  0.00    -0.110 N  
HETATM    7  C   UNL     1      -8.700  14.695  67.777  1.00  0.00    -0.171 A  
HETATM    8  C   UNL     1      -9.162  15.953  67.763  1.00  0.00    -0.201 C  
HETATM    9  C   UNL     1      -9.184  13.420  67.193  1.00  0.00    -0.240 A  
HETATM   10  N   UNL     1     -10.301  13.186  66.475  1.00  0.00    -0.278 NA 
HETATM   11  C   UNL     1      -8.451  17.001  68.528  1.00  0.00    -0.257 C  
HETATM   12  C   UNL     1      -7.292  16.709  69.144  1.00  0.00    -0.217 C  
HETATM   13  C   UNL     1     -10.506  11.887  66.089  1.00  0.00    -0.237 A  
HETATM   14  C   UNL     1     -11.645  11.515  65.359  1.00  0.00     0.012 A  
HETATM   15  C   UNL     1      -6.742  15.329  69.103  1.00  0.00    -0.135 C  
HETATM   16  C   UNL     1      -6.479  17.669  69.929  1.00  0.00     0.056 C  
HETATM   17  C   UNL     1     -11.910  10.179  64.967  1.00  0.00     4.677 A  
HETATM   18  O   UNL     1      -5.675  15.055  69.643  1.00  0.00    -0.098 OA 
HETATM   19  O   UNL     1      -7.105  18.938  70.171  1.00  0.00     0.333 OA 
HETATM   20  C   UNL     1      -8.248  19.359  69.597  1.00  0.00     0.400 C  
HETATM   21  C   UNL     1     -11.000   9.179  65.281  1.00  0.00     3.906 A  
HETATM   22  C   UNL     1      -9.018  18.400  68.633  1.00  0.00    -0.286 C  
HETATM   23  H   UNL     1      -9.324  19.834  67.372  1.00  0.00     0.000 HD 
HETATM   24  O   UNL     1      -8.627  20.512  69.803  1.00  0.00     1.022 OA 
HETATM   25  C   UNL     1      -9.828   9.531  65.935  1.00  0.00    -0.360 A  
HETATM   26  O   UNL     1      -8.968  18.956  67.306  1.00  0.00    -0.276 OA 
HETATM   27  C   UNL     1      -9.599  10.837  66.412  1.00  0.00    -0.226 A  
BRANCH  21  28
HETATM   28  O   UNL     1     -11.269   7.837  64.899  1.00  0.00     8.280 OA 
BRANCH  28  29
HETATM   29  C   UNL     1     -10.542   6.780  65.493  1.00  0.00     2.754 C  
HETATM   30  C   UNL     1     -10.912   4.946  68.540  1.00  0.00     1.102 C  
HETATM   31  N   UNL     1     -10.619   6.723  66.880  1.00  0.00    -0.301 N  
HETATM   32  C   UNL     1      -9.942   5.636  67.585  1.00  0.00    -0.150 C  
HETATM   33  O   UNL     1      -9.903   5.947  64.852  1.00  0.00     0.851 OA 
HETATM   34  C   UNL     1     -11.241   7.725  67.735  1.00  0.00     0.494 C  
HETATM   35  C   UNL     1     -12.182   7.064  68.745  1.00  0.00     2.254 C  
HETATM   36  C   UNL     1     -11.490   5.943  69.572  1.00  0.00     0.155 C  
BRANCH  36  37
HETATM   37  N   UNL     1     -10.474   6.462  70.529  1.00  0.00    -0.211 NA 
HETATM   38  C   UNL     1      -9.318   5.560  70.718  1.00  0.00    -0.163 C  
HETATM   39  C   UNL     1      -8.400   5.465  69.495  1.00  0.00    -0.100 C  
HETATM   40  C   UNL     1      -7.921   6.843  69.047  1.00  0.00    -0.116 C  
HETATM   41  C   UNL     1      -9.084   7.824  68.927  1.00  0.00    -0.141 C  
HETATM   42  C   UNL     1      -9.947   7.803  70.192  1.00  0.00    -0.186 C  
ENDBRANCH  36  37
ENDBRANCH  28  29
ENDBRANCH  21  28
BRANCH  22  43
HETATM   43  C   UNL     1     -10.508  18.419  69.058  1.00  0.00     0.088 C  
HETATM   44  C   UNL     1     -11.483  17.831  68.044  1.00  0.00     0.819 C  
ENDBRANCH  22  43
ENDBRANCH   2   3
TORSDOF 5
ENDMDL
MODEL      106
REMARK 921   NORMALIZED FREE ENERGY PREDICTED BY IDOCK:   32.86 KCAL/MOL
REMARK 922        TOTAL FREE ENERGY PREDICTED BY IDOCK:   41.43 KCAL/MOL
REMARK 923 INTER-LIGAND FREE ENERGY PREDICTED BY IDOCK:   10.26 KCAL/MOL
REMARK 924 INTRA-LIGAND FREE ENERGY PREDICTED BY IDOCK:   31.17 KCAL/MOL
REMARK 927      BINDING AFFINITY PREDICTED BY RF-SCORE:    0.00 PKD
ROOT
HETATM    1  C   UNL     1      -9.015  15.559  67.226  1.00  0.00    -0.216 C  
HETATM    2  C   UNL     1      -9.307  14.252  66.510  1.00  0.00    -0.292 C  
ENDROOT
BRANCH   2   3
HETATM    3  C   UNL     1      -9.440  13.086  67.462  1.00  0.00    -0.198 A  
HETATM    4  C   UNL     1      -8.771  11.906  67.194  1.00  0.00    -0.176 A  
HETATM    5  C   UNL     1      -7.807  11.620  66.095  1.00  0.00     0.211 A  
HETATM    6  N   UNL     1      -7.496  10.219  66.305  1.00  0.00    -0.112 N  
HETATM    7  C   UNL     1      -8.171   9.688  67.390  1.00  0.00    -0.114 A  
HETATM    8  C   UNL     1      -7.993   8.395  67.698  1.00  0.00    -0.110 C  
HETATM    9  C   UNL     1      -8.982  10.779  67.983  1.00  0.00    -0.139 A  
HETATM   10  N   UNL     1      -9.823  10.736  69.035  1.00  0.00    -0.203 NA 
HETATM   11  C   UNL     1      -7.144   7.548  66.832  1.00  0.00    -0.084 C  
HETATM   12  C   UNL     1      -6.473   8.101  65.807  1.00  0.00    -0.052 C  
HETATM   13  C   UNL     1     -10.467  11.906  69.339  1.00  0.00     0.203 A  
HETATM   14  C   UNL     1     -11.386  11.979  70.397  1.00  0.00     0.416 A  
HETATM   15  C   UNL     1      -6.614   9.550  65.506  1.00  0.00    -0.073 C  
HETATM   16  C   UNL     1      -5.582   7.366  64.876  1.00  0.00    -0.033 C  
HETATM   17  C   UNL     1     -12.096  13.161  70.726  1.00  0.00    -0.290 A  
HETATM   18  O   UNL     1      -5.991  10.071  64.586  1.00  0.00    -0.096 OA 
HETATM   19  O   UNL     1      -5.613   5.937  65.008  1.00  0.00    -0.019 OA 
HETATM   20  C   UNL     1      -6.225   5.265  66.003  1.00  0.00    -0.034 C  
HETATM   21  C   UNL     1     -11.865  14.323  70.001  1.00  0.00    -0.314 A  
HETATM   22  C   UNL     1      -7.027   6.061  67.082  1.00  0.00    -0.069 C  
HETATM   23  H   UNL     1      -6.278   4.982  68.502  1.00  0.00     0.000 HD 
HETATM   24  O   UNL     1      -6.089   4.044  66.066  1.00  0.00    -0.029 OA 
HETATM   25  C   UNL     1     -10.905  14.299  68.999  1.00  0.00    -0.274 A  
HETATM   26  O   UNL     1      -6.352   5.916  68.345  1.00  0.00    -0.040 OA 
HETATM   27  C   UNL     1     -10.265  13.108  68.603  1.00  0.00    -0.177 A  
BRANCH  21  28
HETATM   28  O   UNL     1     -12.583  15.507  70.321  1.00  0.00    -0.403 OA 
BRANCH  28  29
HETATM   29  C   UNL     1     -13.073  16.331  69.283  1.00  0.00     2.551 C  
HETATM   30  C   UNL     1     -12.154  16.785  65.857  1.00  0.00     2.817 C  
HETATM   31  N   UNL     1     -12.142  16.656  68.304  1.00  0.00     0.686 N  
HETATM   32  C   UNL     1     -12.564  17.464  67.160  1.00  0.00     5.091 C  
HETATM   33  O   UNL     1     -14.237  16.724  69.215  1.00  0.00     5.297 OA 
HETATM   34  C   UNL     1     -10.718  16.348  68.354  1.00  0.00    -0.327 C  
HETATM   35  C   UNL     1     -10.257  15.713  67.039  1.00  0.00    -0.274 C  
HETATM   36  C   UNL     1     -10.623  16.569  65.793  1.00  0.00    -0.296 C  
BRANCH  36  37
HETATM   37  N   UNL     1      -9.849  17.839  65.705  1.00  0.00    -0.543 NA 
HETATM   38  C   UNL     1     -10.628  19.039  66.076  1.00  0.00    -0.423 C  
HETATM   39  C   UNL     1     -10.966  19.122  67.567  1.00  0.00    -0.405 C  
HETATM   40  C   UNL     1      -9.711  19.026  68.430  1.00  0.00    -0.442 C  
HETATM   41  C   UNL     1      -8.838  17.845  68.014  1.00  0.00    -0.268 C  
HETATM   42  C   UNL     1      -8.602  17.850  66.501  1.00  0.00    -0.255 C  
ENDBRANCH  36  37
ENDBRANCH  28  29
ENDBRANCH  21  28
BRANCH  22  43
HETATM   43  C   UNL     1      -8.401   5.364  67.241  1.00  0.00    -0.107 C  
HETATM   44  C   UNL     1      -8.943   4.696  65.981  1.00  0.00    -0.123 C  
ENDBRANCH  22  43
ENDBRANCH   2   3
TORSDOF 5
ENDMDL
MODEL      107
REMARK 921   NORMALIZED FREE ENERGY PREDICTED BY IDOCK:   33.69 KCAL/MOL
REMARK 922        TOTAL FREE ENERGY PREDICTED BY IDOCK:   42.51 KCAL/MOL
REMARK 923 INTER-LIGAND FREE ENERGY PREDICTED BY IDOCK:   20.88 KCAL/MOL
REMARK 924 INTRA-LIGAND FREE ENERGY PREDICTED BY IDOCK:   21.63 KCAL/MOL
REMARK 927      BINDING AFFINITY PREDICTED BY RF-SCORE:    0.00 PKD
ROOT
HETATM    1  C   UNL     1     -10.101  14.841  69.165  1.00  0.00    -0.201 C  
HETATM    2  C   UNL     1      -9.085  13.803  69.606  1.00  0.00     1.299 C  
ENDROOT
BRANCH   2   3
HETATM    3  C   UNL     1      -9.020  12.619  68.670  1.00  0.00     0.047 A  
HETATM    4  C   UNL     1      -9.091  11.337  69.182  1.00  0.00     0.106 A  
HETATM    5  C   UNL     1      -9.332  10.919  70.591  1.00  0.00     2.993 A  
HETATM    6  N   UNL     1      -9.241   9.473  70.511  1.00  0.00    -0.253 N  
HETATM    7  C   UNL     1      -8.980   9.034  69.225  1.00  0.00    -0.144 A  
HETATM    8  C   UNL     1      -8.854   7.718  68.999  1.00  0.00    -0.138 C  
HETATM    9  C   UNL     1      -8.902  10.234  68.356  1.00  0.00    -0.129 A  
HETATM   10  N   UNL     1      -8.639  10.310  67.036  1.00  0.00    -0.129 NA 
HETATM   11  C   UNL     1      -8.922   6.773  70.135  1.00  0.00    -0.149 C  
HETATM   12  C   UNL     1      -9.214   7.227  71.367  1.00  0.00    -0.145 C  
HETATM   13  C   UNL     1      -8.601  11.571  66.502  1.00  0.00    -0.172 A  
HETATM   14  C   UNL     1      -8.313  11.780  65.145  1.00  0.00     0.926 A  
HETATM   15  C   UNL     1      -9.423   8.679  71.607  1.00  0.00    -0.269 C  
HETATM   16  C   UNL     1      -9.325   6.383  72.582  1.00  0.00    -0.141 C  
HETATM   17  C   UNL     1      -8.234  13.068  64.559  1.00  0.00     5.629 A  
HETATM   18  O   UNL     1      -9.711   9.103  72.721  1.00  0.00     0.256 OA 
HETATM   19  O   UNL     1      -8.904   5.021  72.415  1.00  0.00    -0.126 OA 
HETATM   20  C   UNL     1      -8.610   4.441  71.235  1.00  0.00    -0.106 C  
HETATM   21  C   UNL     1      -8.479  14.190  65.338  1.00  0.00     3.194 A  
HETATM   22  C   UNL     1      -8.659   5.298  69.929  1.00  0.00    -0.102 C  
HETATM   23  H   UNL     1      -9.568   3.881  68.977  1.00  0.00     0.000 HD 
HETATM   24  O   UNL     1      -8.365   3.236  71.211  1.00  0.00    -0.062 OA 
HETATM   25  C   UNL     1      -8.842  14.010  66.666  1.00  0.00    -0.117 A  
HETATM   26  O   UNL     1      -9.733   4.807  69.107  1.00  0.00    -0.160 OA 
HETATM   27  C   UNL     1      -8.831  12.742  67.280  1.00  0.00    -0.198 A  
BRANCH  21  28
HETATM   28  O   UNL     1      -8.390  15.484  64.757  1.00  0.00     3.936 OA 
BRANCH  28  29
HETATM   29  C   UNL     1      -7.595  16.477  65.374  1.00  0.00     2.707 C  
HETATM   30  C   UNL     1      -5.322  16.445  68.135  1.00  0.00    -0.113 C  
HETATM   31  N   UNL     1      -7.309  16.248  66.715  1.00  0.00    -0.223 N  
HETATM   32  C   UNL     1      -6.452  17.192  67.431  1.00  0.00    -0.147 C  
HETATM   33  O   UNL     1      -7.156  17.463  64.785  1.00  0.00     1.932 OA 
HETATM   34  C   UNL     1      -7.878  15.184  67.532  1.00  0.00    -0.181 C  
HETATM   35  C   UNL     1      -6.777  14.445  68.298  1.00  0.00    -0.114 C  
HETATM   36  C   UNL     1      -5.876  15.400  69.132  1.00  0.00    -0.104 C  
BRANCH  36  37
HETATM   37  N   UNL     1      -6.582  16.007  70.295  1.00  0.00     0.139 NA 
HETATM   38  C   UNL     1      -5.981  17.274  70.762  1.00  0.00     0.550 C  
HETATM   39  C   UNL     1      -6.169  18.444  69.792  1.00  0.00    -0.190 C  
HETATM   40  C   UNL     1      -7.643  18.656  69.452  1.00  0.00     0.086 C  
HETATM   41  C   UNL     1      -8.315  17.347  69.050  1.00  0.00    -0.066 C  
HETATM   42  C   UNL     1      -8.025  16.247  70.076  1.00  0.00     1.043 C  
ENDBRANCH  36  37
ENDBRANCH  28  29
ENDBRANCH  21  28
BRANCH  22  43
HETATM   43  C   UNL     1      -7.350   5.020  69.148  1.00  0.00    -0.057 C  
HETATM   44  C   UNL     1      -6.098   5.676  69.719  1.00  0.00    -0.025 C  
ENDBRANCH  22  43
ENDBRANCH   2   3
TORSDOF 5
ENDMDL
MODEL      108
REMARK 921   NORMALIZED FREE ENERGY PREDICTED BY IDOCK:   35.01 KCAL/MOL
REMARK 922        TOTAL FREE ENERGY PREDICTED BY IDOCK:   44.22 KCAL/MOL
REMARK 923 INTER-LIGAND FREE ENERGY PREDICTED BY IDOCK:   33.83 KCAL/MOL
REMARK 924 INTRA-LIGAND FREE ENERGY PREDICTED BY IDOCK:   10.39 KCAL/MOL
REMARK 927      BINDING AFFINITY PREDICTED BY RF-SCORE:    0.00 PKD
ROOT
HETATM    1  C   UNL     1      -8.808   7.316  73.008  1.00  0.00    -0.165 C  
HETATM    2  C   UNL     1      -7.902   7.800  71.891  1.00  0.00    -0.106 C  
ENDROOT
BRANCH   2   3
HETATM    3  C   UNL     1      -8.666   8.143  70.632  1.00  0.00    -0.136 A  
HETATM    4  C   UNL     1      -9.119   7.129  69.809  1.00  0.00    -0.141 A  
HETATM    5  C   UNL     1      -9.049   5.658  70.034  1.00  0.00    -0.137 A  
HETATM    6  N   UNL     1      -9.628   5.125  68.815  1.00  0.00    -0.134 N  
HETATM    7  C   UNL     1     -10.014   6.123  67.938  1.00  0.00    -0.134 A  
HETATM    8  C   UNL     1     -10.554   5.780  66.759  1.00  0.00    -0.373 C  
HETATM    9  C   UNL     1      -9.706   7.423  68.583  1.00  0.00    -0.152 A  
HETATM   10  N   UNL     1      -9.879   8.670  68.103  1.00  0.00    -0.160 NA 
HETATM   11  C   UNL     1     -10.657   4.351  66.391  1.00  0.00     0.206 C  
HETATM   12  C   UNL     1     -10.308   3.404  67.280  1.00  0.00     1.560 C  
HETATM   13  C   UNL     1      -9.469   9.691  68.920  1.00  0.00    -0.157 A  
HETATM   14  C   UNL     1      -9.574  11.032  68.520  1.00  0.00    -0.187 A  
HETATM   15  C   UNL     1      -9.773   3.783  68.615  1.00  0.00    -0.019 C  
HETATM   16  C   UNL     1     -10.376   1.943  67.040  1.00  0.00     2.582 C  
HETATM   17  C   UNL     1      -9.135  12.115  69.322  1.00  0.00     0.808 A  
HETATM   18  O   UNL     1      -9.471   2.929  69.442  1.00  0.00    -0.150 OA 
HETATM   19  O   UNL     1     -10.670   1.564  65.687  1.00  0.00     2.188 OA 
HETATM   20  C   UNL     1     -11.056   2.410  64.712  1.00  0.00     1.963 C  
HETATM   21  C   UNL     1      -8.601  11.865  70.578  1.00  0.00     5.673 A  
HETATM   22  C   UNL     1     -11.145   3.940  65.020  1.00  0.00     0.481 C  
HETATM   23  H   UNL     1     -12.833   4.077  64.086  1.00  0.00     0.000 HD 
HETATM   24  O   UNL     1     -11.383   1.948  63.620  1.00  0.00    -0.133 OA 
HETATM   25  C   UNL     1      -8.556  10.554  71.031  1.00  0.00     3.134 A  
HETATM   26  O   UNL     1     -12.527   4.335  64.947  1.00  0.00     2.756 OA 
HETATM   27  C   UNL     1      -8.902   9.464  70.206  1.00  0.00    -0.269 A  
BRANCH  21  28
HETATM   28  O   UNL     1      -8.150  12.948  71.380  1.00  0.00     8.332 OA 
BRANCH  28  29
HETATM   29  C   UNL     1      -8.045  14.241  70.818  1.00  0.00     2.920 C  
HETATM   30  C   UNL     1     -10.391  16.446  69.261  1.00  0.00    -0.292 C  
HETATM   31  N   UNL     1      -8.977  14.526  69.827  1.00  0.00     0.466 N  
HETATM   32  C   UNL     1      -8.984  15.856  69.218  1.00  0.00    -0.251 C  
HETATM   33  O   UNL     1      -7.218  15.076  71.178  1.00  0.00     0.966 OA 
HETATM   34  C   UNL     1      -9.912  13.572  69.245  1.00  0.00     0.424 C  
HETATM   35  C   UNL     1     -11.329  14.152  69.221  1.00  0.00    -0.324 C  
HETATM   36  C   UNL     1     -11.403  15.539  68.520  1.00  0.00    -0.351 C  
BRANCH  36  37
HETATM   37  N   UNL     1     -11.170  15.468  67.051  1.00  0.00    -0.239 NA 
HETATM   38  C   UNL     1     -12.008  16.402  66.269  1.00  0.00     1.811 C  
HETATM   39  C   UNL     1     -11.631  17.875  66.452  1.00  0.00     1.961 C  
HETATM   40  C   UNL     1     -10.154  18.116  66.148  1.00  0.00    -0.338 C  
HETATM   41  C   UNL     1      -9.266  17.109  66.873  1.00  0.00    -0.255 C  
HETATM   42  C   UNL     1      -9.763  15.679  66.645  1.00  0.00    -0.249 C  
ENDBRANCH  36  37
ENDBRANCH  28  29
ENDBRANCH  21  28
BRANCH  22  43
HETATM   43  C   UNL     1     -10.418   4.683  63.871  1.00  0.00     0.501 C  
HETATM   44  C   UNL     1      -8.931   4.933  64.094  1.00  0.00    -0.048 C  
ENDBRANCH  22  43
ENDBRANCH   2   3
TORSDOF 5
ENDMDL
MODEL      109
REMARK 921   NORMALIZED FREE ENERGY PREDICTED BY IDOCK:   35.21 KCAL/MOL
REMARK 922        TOTAL FREE ENERGY PREDICTED BY IDOCK:   44.48 KCAL/MOL
REMARK 923 INTER-LIGAND FREE ENERGY PREDICTED BY IDOCK:   38.39 KCAL/MOL
REMARK 924 INTRA-LIGAND FREE ENERGY PREDICTED BY IDOCK:    6.09 KCAL/MOL
REMARK 927      BINDING AFFINITY PREDICTED BY RF-SCORE:    0.00 PKD
ROOT
HETATM    1  C   UNL     1     -13.433  11.514  71.068  1.00  0.00     0.564 C  
HETATM    2  C   UNL     1     -12.546  12.742  70.968  1.00  0.00    -0.362 C  
ENDROOT
BRANCH   2   3
HETATM    3  C   UNL     1     -11.295  12.491  70.159  1.00  0.00     0.170 A  
HETATM    4  C   UNL     1     -11.112  11.265  69.545  1.00  0.00    -0.299 A  
HETATM    5  C   UNL     1     -12.059  10.118  69.476  1.00  0.00     0.139 A  
HETATM    6  N   UNL     1     -11.290   9.117  68.761  1.00  0.00     0.293 N  
HETATM    7  C   UNL     1     -10.027   9.570  68.420  1.00  0.00    -0.164 A  
HETATM    8  C   UNL     1      -9.195   8.746  67.766  1.00  0.00    -0.146 C  
HETATM    9  C   UNL     1      -9.913  10.966  68.907  1.00  0.00    -0.196 A  
HETATM   10  N   UNL     1      -8.861  11.807  68.833  1.00  0.00     0.043 NA 
HETATM   11  C   UNL     1      -9.614   7.354  67.489  1.00  0.00    -0.171 C  
HETATM   12  C   UNL     1     -10.860   6.956  67.799  1.00  0.00    -0.312 C  
HETATM   13  C   UNL     1      -9.037  13.040  69.404  1.00  0.00     1.247 A  
HETATM   14  C   UNL     1      -8.006  13.992  69.412  1.00  0.00     0.364 A  
HETATM   15  C   UNL     1     -11.808   7.890  68.462  1.00  0.00     2.147 C  
HETATM   16  C   UNL     1     -11.404   5.597  67.561  1.00  0.00     0.965 C  
HETATM   17  C   UNL     1      -8.135  15.268  70.017  1.00  0.00     0.297 A  
HETATM   18  O   UNL     1     -12.955   7.545  68.730  1.00  0.00     5.075 OA 
HETATM   19  O   UNL     1     -10.439   4.624  67.135  1.00  0.00    -0.099 OA 
HETATM   20  C   UNL     1      -9.171   4.898  66.773  1.00  0.00    -0.122 C  
HETATM   21  C   UNL     1      -9.338  15.626  70.608  1.00  0.00     1.494 A  
HETATM   22  C   UNL     1      -8.651   6.369  66.866  1.00  0.00    -0.110 C  
HETATM   23  H   UNL     1      -7.790   6.223  65.140  1.00  0.00     0.000 HD 
HETATM   24  O   UNL     1      -8.473   3.990  66.323  1.00  0.00    -0.108 OA 
HETATM   25  C   UNL     1     -10.399  14.734  70.547  1.00  0.00     0.402 A  
HETATM   26  O   UNL     1      -8.394   6.843  65.531  1.00  0.00    -0.137 OA 
HETATM   27  C   UNL     1     -10.253  13.430  70.033  1.00  0.00     1.695 A  
BRANCH  21  28
HETATM   28  O   UNL     1      -9.468  16.900  71.226  1.00  0.00     4.543 OA 
BRANCH  28  29
HETATM   29  C   UNL     1     -10.106  17.954  70.533  1.00  0.00     2.096 C  
HETATM   30  C   UNL     1     -11.317  18.323  67.189  1.00  0.00     0.712 C  
HETATM   31  N   UNL     1      -9.906  17.956  69.157  1.00  0.00    -0.219 N  
HETATM   32  C   UNL     1     -10.565  18.977  68.344  1.00  0.00    -0.068 C  
HETATM   33  O   UNL     1     -10.809  18.801  71.079  1.00  0.00     1.978 OA 
HETATM   34  C   UNL     1      -8.996  17.077  68.433  1.00  0.00    -0.247 C  
HETATM   35  C   UNL     1      -9.702  16.443  67.231  1.00  0.00    -0.239 C  
HETATM   36  C   UNL     1     -10.364  17.494  66.295  1.00  0.00    -0.335 C  
BRANCH  36  37
HETATM   37  N   UNL     1      -9.375  18.325  65.554  1.00  0.00     0.141 NA 
HETATM   38  C   UNL     1      -9.744  18.577  64.145  1.00  0.00     9.117 C  
HETATM   39  C   UNL     1     -10.946  19.512  63.976  1.00  0.00     6.699 C  
HETATM   40  C   UNL     1     -10.730  20.836  64.705  1.00  0.00     1.919 C  
HETATM   41  C   UNL     1     -10.262  20.611  66.140  1.00  0.00     0.128 C  
HETATM   42  C   UNL     1      -9.084  19.633  66.182  1.00  0.00    -0.332 C  
ENDBRANCH  36  37
ENDBRANCH  28  29
ENDBRANCH  21  28
BRANCH  22  43
HETATM   43  C   UNL     1      -7.279   6.326  67.584  1.00  0.00    -0.083 C  
HETATM   44  C   UNL     1      -7.335   6.436  69.104  1.00  0.00    -0.093 C  
ENDBRANCH  22  43
ENDBRANCH   2   3
TORSDOF 5
ENDMDL
MODEL      110
REMARK 921   NORMALIZED FREE ENERGY PREDICTED BY IDOCK:   37.27 KCAL/MOL
REMARK 922        TOTAL FREE ENERGY PREDICTED BY IDOCK:   47.13 KCAL/MOL
REMARK 923 INTER-LIGAND FREE ENERGY PREDICTED BY IDOCK:   36.97 KCAL/MOL
REMARK 924 INTRA-LIGAND FREE ENERGY PREDICTED BY IDOCK:   10.16 KCAL/MOL
REMARK 927      BINDING AFFINITY PREDICTED BY RF-SCORE:    0.00 PKD
ROOT
HETATM    1  C   UNL     1      -5.985  12.615  66.299  1.00  0.00     2.260 C  
HETATM    2  C   UNL     1      -6.053  11.613  67.436  1.00  0.00    -0.097 C  
ENDROOT
BRANCH   2   3
HETATM    3  C   UNL     1      -7.318  11.746  68.253  1.00  0.00    -0.095 A  
HETATM    4  C   UNL     1      -8.062  12.909  68.176  1.00  0.00    -0.158 A  
HETATM    5  C   UNL     1      -7.847  14.085  67.287  1.00  0.00    -0.122 A  
HETATM    6  N   UNL     1      -8.900  14.992  67.704  1.00  0.00    -0.174 N  
HETATM    7  C   UNL     1      -9.678  14.461  68.718  1.00  0.00    -0.190 A  
HETATM    8  C   UNL     1     -10.685  15.194  69.217  1.00  0.00    -0.250 C  
HETATM    9  C   UNL     1      -9.154  13.105  69.015  1.00  0.00     0.480 A  
HETATM   10  N   UNL     1      -9.570  12.219  69.942  1.00  0.00     2.144 NA 
HETATM   11  C   UNL     1     -10.896  16.574  68.728  1.00  0.00    -0.342 C  
HETATM   12  C   UNL     1     -10.147  17.047  67.716  1.00  0.00    -0.302 C  
HETATM   13  C   UNL     1      -8.867  11.045  70.008  1.00  0.00     1.377 A  
HETATM   14  C   UNL     1      -9.189  10.055  70.949  1.00  0.00     0.846 A  
HETATM   15  C   UNL     1      -9.075  16.210  67.115  1.00  0.00    -0.203 C  
HETATM   16  C   UNL     1     -10.267  18.403  67.128  1.00  0.00    -0.374 C  
HETATM   17  C   UNL     1      -8.470   8.840  71.071  1.00  0.00    -0.219 A  
HETATM   18  O   UNL     1      -8.399  16.623  66.177  1.00  0.00    -0.310 OA 
HETATM   19  O   UNL     1     -11.133  19.299  67.842  1.00  0.00    -0.238 OA 
HETATM   20  C   UNL     1     -11.950  18.944  68.852  1.00  0.00     5.417 C  
HETATM   21  C   UNL     1      -7.413   8.580  70.210  1.00  0.00    -0.064 A  
HETATM   22  C   UNL     1     -11.941  17.466  69.359  1.00  0.00     3.130 C  
HETATM   23  H   UNL     1     -13.873  17.434  69.447  1.00  0.00     0.000 HD 
HETATM   24  O   UNL     1     -12.724  19.782  69.312  1.00  0.00     8.367 OA 
HETATM   25  C   UNL     1      -7.121   9.507  69.219  1.00  0.00    -0.058 A  
HETATM   26  O   UNL     1     -13.216  16.874  69.050  1.00  0.00     3.156 OA 
HETATM   27  C   UNL     1      -7.767  10.758  69.150  1.00  0.00    -0.138 A  
BRANCH  21  28
HETATM   28  O   UNL     1      -6.682   7.368  70.336  1.00  0.00    -0.046 OA 
BRANCH  28  29
HETATM   29  C   UNL     1      -6.836   6.352  69.365  1.00  0.00    -0.065 C  
HETATM   30  C   UNL     1      -8.871   6.026  66.443  1.00  0.00    -0.137 C  
HETATM   31  N   UNL     1      -8.078   6.319  68.743  1.00  0.00    -0.108 N  
HETATM   32  C   UNL     1      -8.319   5.336  67.688  1.00  0.00    -0.106 C  
HETATM   33  O   UNL     1      -5.945   5.561  69.059  1.00  0.00    -0.021 OA 
HETATM   34  C   UNL     1      -9.234   7.124  69.117  1.00  0.00    -0.139 C  
HETATM   35  C   UNL     1      -9.849   7.791  67.883  1.00  0.00    -0.194 C  
HETATM   36  C   UNL     1     -10.188   6.776  66.754  1.00  0.00    -0.202 C  
BRANCH  36  37
HETATM   37  N   UNL     1     -11.319   5.870  67.100  1.00  0.00     0.171 NA 
HETATM   38  C   UNL     1     -10.907   4.657  67.837  1.00  0.00     1.091 C  
HETATM   39  C   UNL     1     -10.437   4.932  69.269  1.00  0.00     0.016 C  
HETATM   40  C   UNL     1     -11.491   5.697  70.065  1.00  0.00     0.462 C  
HETATM   41  C   UNL     1     -12.003   6.909  69.291  1.00  0.00     0.557 C  
HETATM   42  C   UNL     1     -12.406   6.515  67.867  1.00  0.00     4.702 C  
ENDBRANCH  36  37
ENDBRANCH  28  29
ENDBRANCH  21  28
BRANCH  22  43
HETATM   43  C   UNL     1     -11.845  17.511  70.905  1.00  0.00     3.848 C  
HETATM   44  C   UNL     1     -10.882  18.550  71.469  1.00  0.00     3.304 C  
ENDBRANCH  22  43
ENDBRANCH   2   3
TORSDOF 5
ENDMDL
MODEL      111
REMARK 921   NORMALIZED FREE ENERGY PREDICTED BY IDOCK:   42.63 KCAL/MOL
REMARK 922        TOTAL FREE ENERGY PREDICTED BY IDOCK:   54.07 KCAL/MOL
REMARK 923 INTER-LIGAND FREE ENERGY PREDICTED BY IDOCK:   45.77 KCAL/MOL
REMARK 924 INTRA-LIGAND FREE ENERGY PREDICTED BY IDOCK:    8.29 KCAL/MOL
REMARK 927      BINDING AFFINITY PREDICTED BY RF-SCORE:    0.00 PKD
ROOT
HETATM    1  C   UNL     1      -7.733   8.657  63.791  1.00  0.00    -0.136 C  
HETATM    2  C   UNL     1      -7.508   9.535  65.009  1.00  0.00    -0.110 C  
ENDROOT
BRANCH   2   3
HETATM    3  C   UNL     1      -8.798   9.906  65.704  1.00  0.00    -0.184 A  
HETATM    4  C   UNL     1      -9.396  11.122  65.431  1.00  0.00    -0.243 A  
HETATM    5  C   UNL     1      -8.992  12.145  64.427  1.00  0.00     0.914 A  
HETATM    6  N   UNL     1      -9.957  13.205  64.650  1.00  0.00    -0.193 N  
HETATM    7  C   UNL     1     -10.854  12.895  65.657  1.00  0.00    -0.273 A  
HETATM    8  C   UNL     1     -11.799  13.788  65.986  1.00  0.00    -0.415 C  
HETATM    9  C   UNL     1     -10.509  11.540  66.154  1.00  0.00    -0.251 A  
HETATM   10  N   UNL     1     -11.081  10.829  67.146  1.00  0.00    -0.287 NA 
HETATM   11  C   UNL     1     -11.818  15.109  65.320  1.00  0.00    -0.062 C  
HETATM   12  C   UNL     1     -10.957  15.366  64.319  1.00  0.00     0.158 C  
HETATM   13  C   UNL     1     -10.524   9.604  67.406  1.00  0.00    -0.257 A  
HETATM   14  C   UNL     1     -11.017   8.783  68.432  1.00  0.00     0.101 A  
HETATM   15  C   UNL     1      -9.953  14.350  63.906  1.00  0.00     3.046 C  
HETATM   16  C   UNL     1     -10.884  16.641  63.565  1.00  0.00     4.640 C  
HETATM   17  C   UNL     1     -10.452   7.523  68.754  1.00  0.00    -0.212 A  
HETATM   18  O   UNL     1      -9.177  14.564  62.981  1.00  0.00     9.838 OA 
HETATM   19  O   UNL     1     -11.683  17.707  64.098  1.00  0.00     0.882 OA 
HETATM   20  C   UNL     1     -12.598  17.574  65.078  1.00  0.00     7.429 C  
HETATM   21  C   UNL     1      -9.380   7.045  68.013  1.00  0.00    -0.127 A  
HETATM   22  C   UNL     1     -12.791  16.180  65.758  1.00  0.00     3.493 C  
HETATM   23  H   UNL     1     -14.716  16.366  65.700  1.00  0.00     0.000 HD 
HETATM   24  O   UNL     1     -13.297  18.542  65.373  1.00  0.00    12.979 OA 
HETATM   25  C   UNL     1      -8.921   7.801  66.944  1.00  0.00    -0.153 A  
HETATM   26  O   UNL     1     -14.104  15.693  65.425  1.00  0.00     2.387 OA 
HETATM   27  C   UNL     1      -9.413   9.095  66.676  1.00  0.00    -0.242 A  
BRANCH  21  28
HETATM   28  O   UNL     1      -8.803   5.787  68.340  1.00  0.00    -0.111 OA 
BRANCH  28  29
HETATM   29  C   UNL     1      -9.188   4.632  67.624  1.00  0.00    -0.129 C  
HETATM   30  C   UNL     1      -7.389   2.222  65.689  1.00  0.00    -0.066 C  
HETATM   31  N   UNL     1      -8.356   4.297  66.562  1.00  0.00    -0.102 N  
HETATM   32  C   UNL     1      -8.641   3.089  65.788  1.00  0.00    -0.116 C  
HETATM   33  O   UNL     1     -10.166   3.944  67.913  1.00  0.00     0.167 OA 
HETATM   34  C   UNL     1      -7.253   5.107  66.063  1.00  0.00    -0.073 C  
HETATM   35  C   UNL     1      -5.990   4.257  65.898  1.00  0.00    -0.023 C  
HETATM   36  C   UNL     1      -6.224   2.991  65.024  1.00  0.00    -0.023 C  
BRANCH  36  37
HETATM   37  N   UNL     1      -6.464   3.306  63.588  1.00  0.00    -0.029 NA 
HETATM   38  C   UNL     1      -7.603   2.570  63.000  1.00  0.00    -0.061 C  
HETATM   39  C   UNL     1      -8.969   3.020  63.526  1.00  0.00    -0.092 C  
HETATM   40  C   UNL     1      -9.169   4.523  63.350  1.00  0.00    -0.086 C  
HETATM   41  C   UNL     1      -7.968   5.308  63.869  1.00  0.00    -0.105 C  
HETATM   42  C   UNL     1      -6.662   4.744  63.303  1.00  0.00    -0.037 C  
ENDBRANCH  36  37
ENDBRANCH  28  29
ENDBRANCH  21  28
BRANCH  22  43
HETATM   43  C   UNL     1     -12.788  16.412  67.290  1.00  0.00     3.990 C  
HETATM   44  C   UNL     1     -11.928  15.443  68.094  1.00  0.00    -0.052 C  
ENDBRANCH  22  43
ENDBRANCH   2   3
TORSDOF 5
ENDMDL
MODEL      112
REMARK 921   NORMALIZED FREE ENERGY PREDICTED BY IDOCK:   46.76 KCAL/MOL
REMARK 922        TOTAL FREE ENERGY PREDICTED BY IDOCK:   59.40 KCAL/MOL
REMARK 923 INTER-LIGAND FREE ENERGY PREDICTED BY IDOCK:   51.29 KCAL/MOL
REMARK 924 INTRA-LIGAND FREE ENERGY PREDICTED BY IDOCK:    8.11 KCAL/MOL
REMARK 927      BINDING AFFINITY PREDICTED BY RF-SCORE:    0.00 PKD
ROOT
HETATM    1  C   UNL     1     -11.302  14.421  69.068  1.00  0.00    -0.297 C  
HETATM    2  C   UNL     1     -11.390  14.055  67.598  1.00  0.00    -0.336 C  
ENDROOT
BRANCH   2   3
HETATM    3  C   UNL     1     -10.169  13.308  67.111  1.00  0.00    -0.246 A  
HETATM    4  C   UNL     1     -10.185  11.926  67.069  1.00  0.00    -0.233 A  
HETATM    5  C   UNL     1     -11.322  11.007  67.356  1.00  0.00    -0.230 A  
HETATM    6  N   UNL     1     -10.717   9.698  67.200  1.00  0.00    -0.228 N  
HETATM    7  C   UNL     1      -9.378   9.777  66.858  1.00  0.00    -0.149 A  
HETATM    8  C   UNL     1      -8.681   8.643  66.693  1.00  0.00    -0.137 C  
HETATM    9  C   UNL     1      -9.033  11.215  66.751  1.00  0.00    -0.165 A  
HETATM   10  N   UNL     1      -7.843  11.784  66.470  1.00  0.00    -0.048 NA 
HETATM   11  C   UNL     1      -9.333   7.340  66.951  1.00  0.00    -0.192 C  
HETATM   12  C   UNL     1     -10.644   7.296  67.246  1.00  0.00    -0.395 C  
HETATM   13  C   UNL     1      -7.816  13.154  66.471  1.00  0.00     0.841 A  
HETATM   14  C   UNL     1      -6.630  13.860  66.217  1.00  0.00     4.294 A  
HETATM   15  C   UNL     1     -11.436   8.549  67.361  1.00  0.00     1.689 C  
HETATM   16  C   UNL     1     -11.416   6.058  67.512  1.00  0.00     0.703 C  
HETATM   17  C   UNL     1      -6.552  15.275  66.238  1.00  0.00     3.138 A  
HETATM   18  O   UNL     1     -12.637   8.520  67.608  1.00  0.00     6.323 OA 
HETATM   19  O   UNL     1     -10.626   4.865  67.632  1.00  0.00    -0.023 OA 
HETATM   20  C   UNL     1      -9.314   4.773  67.341  1.00  0.00    -0.137 C  
HETATM   21  C   UNL     1      -7.696  16.020  66.489  1.00  0.00    -0.132 A  
HETATM   22  C   UNL     1      -8.539   6.055  66.896  1.00  0.00    -0.108 C  
HETATM   23  H   UNL     1      -7.640   5.079  65.489  1.00  0.00     0.000 HD 
HETATM   24  O   UNL     1      -8.773   3.669  67.380  1.00  0.00    -0.103 OA 
HETATM   25  C   UNL     1      -8.898  15.350  66.668  1.00  0.00    -0.330 A  
HETATM   26  O   UNL     1      -8.138   5.886  65.524  1.00  0.00    -0.117 OA 
HETATM   27  C   UNL     1      -8.969  13.944  66.743  1.00  0.00    -0.206 A  
BRANCH  21  28
HETATM   28  O   UNL     1      -7.619  17.439  66.522  1.00  0.00    -0.228 OA 
BRANCH  28  29
HETATM   29  C   UNL     1      -7.327  18.097  67.738  1.00  0.00    -0.215 C  
HETATM   30  C   UNL     1      -7.951  17.316  71.171  1.00  0.00     7.102 C  
HETATM   31  N   UNL     1      -8.196  17.808  68.784  1.00  0.00    -0.267 N  
HETATM   32  C   UNL     1      -7.950  18.401  70.098  1.00  0.00     2.025 C  
HETATM   33  O   UNL     1      -6.370  18.853  67.892  1.00  0.00    -0.201 OA 
HETATM   34  C   UNL     1      -9.423  17.030  68.674  1.00  0.00    -0.274 C  
HETATM   35  C   UNL     1      -9.486  15.964  69.772  1.00  0.00    -0.036 C  
HETATM   36  C   UNL     1      -9.297  16.554  71.199  1.00  0.00     4.739 C  
BRANCH  36  37
HETATM   37  N   UNL     1     -10.444  17.393  71.643  1.00  0.00     2.894 NA 
HETATM   38  C   UNL     1     -10.499  17.601  73.105  1.00  0.00     5.307 C  
HETATM   39  C   UNL     1      -9.383  18.501  73.645  1.00  0.00     8.231 C  
HETATM   40  C   UNL     1      -9.353  19.846  72.925  1.00  0.00     3.592 C  
HETATM   41  C   UNL     1      -9.384  19.667  71.410  1.00  0.00     2.934 C  
HETATM   42  C   UNL     1     -10.516  18.721  70.997  1.00  0.00     2.644 C  
ENDBRANCH  36  37
ENDBRANCH  28  29
ENDBRANCH  21  28
BRANCH  22  43
HETATM   43  C   UNL     1      -7.233   6.114  67.727  1.00  0.00    -0.083 C  
HETATM   44  C   UNL     1      -6.867   4.827  68.459  1.00  0.00    -0.051 C  
ENDBRANCH  22  43
ENDBRANCH   2   3
TORSDOF 5
ENDMDL
MODEL      113
REMARK 921   NORMALIZED FREE ENERGY PREDICTED BY IDOCK:   51.51 KCAL/MOL
REMARK 922        TOTAL FREE ENERGY PREDICTED BY IDOCK:   65.54 KCAL/MOL
REMARK 923 INTER-LIGAND FREE ENERGY PREDICTED BY IDOCK:   52.23 KCAL/MOL
REMARK 924 INTRA-LIGAND FREE ENERGY PREDICTED BY IDOCK:   13.31 KCAL/MOL
REMARK 927      BINDING AFFINITY PREDICTED BY RF-SCORE:    0.00 PKD
ROOT
HETATM    1  C   UNL     1      -7.906   8.840  72.508  1.00  0.00     0.099 C  
HETATM    2  C   UNL     1      -8.275  10.123  71.786  1.00  0.00     3.633 C  
ENDROOT
BRANCH   2   3
HETATM    3  C   UNL     1      -8.428   9.928  70.296  1.00  0.00    -0.074 A  
HETATM    4  C   UNL     1      -8.495  11.031  69.465  1.00  0.00     0.300 A  
HETATM    5  C   UNL     1      -8.336  12.468  69.824  1.00  0.00     2.192 A  
HETATM    6  N   UNL     1      -8.565  13.136  68.557  1.00  0.00    -0.110 N  
HETATM    7  C   UNL     1      -8.830  12.244  67.532  1.00  0.00    -0.182 A  
HETATM    8  C   UNL     1      -9.076  12.719  66.303  1.00  0.00    -0.033 C  
HETATM    9  C   UNL     1      -8.767  10.879  68.109  1.00  0.00    -0.133 A  
HETATM   10  N   UNL     1      -8.982   9.692  67.505  1.00  0.00    -0.128 NA 
HETATM   11  C   UNL     1      -9.133  14.181  66.083  1.00  0.00     0.016 C  
HETATM   12  C   UNL     1      -8.833  15.021  67.089  1.00  0.00    -0.233 C  
HETATM   13  C   UNL     1      -8.883   8.585  68.306  1.00  0.00    -0.142 A  
HETATM   14  C   UNL     1      -9.111   7.296  67.798  1.00  0.00    -0.124 A  
HETATM   15  C   UNL     1      -8.492  14.494  68.437  1.00  0.00    -0.163 C  
HETATM   16  C   UNL     1      -8.840  16.501  66.994  1.00  0.00    -0.195 C  
HETATM   17  C   UNL     1      -9.048   6.127  68.597  1.00  0.00    -0.125 A  
HETATM   18  O   UNL     1      -8.197  15.250  69.357  1.00  0.00    -0.227 OA 
HETATM   19  O   UNL     1      -9.386  17.028  65.775  1.00  0.00    -0.524 OA 
HETATM   20  C   UNL     1      -9.700  16.297  64.688  1.00  0.00     2.165 C  
HETATM   21  C   UNL     1      -8.717   6.233  69.941  1.00  0.00    -0.141 A  
HETATM   22  C   UNL     1      -9.531  14.744  64.737  1.00  0.00     1.311 C  
HETATM   23  H   UNL     1      -8.737  14.728  62.973  1.00  0.00     0.000 HD 
HETATM   24  O   UNL     1     -10.060  16.878  63.665  1.00  0.00     4.519 OA 
HETATM   25  C   UNL     1      -8.412   7.487  70.452  1.00  0.00    -0.141 A  
HETATM   26  O   UNL     1      -8.486  14.375  63.819  1.00  0.00     8.924 OA 
HETATM   27  C   UNL     1      -8.564   8.663  69.691  1.00  0.00    -0.131 A  
BRANCH  21  28
HETATM   28  O   UNL     1      -8.665   5.064  70.747  1.00  0.00    -0.121 OA 
BRANCH  28  29
HETATM   29  C   UNL     1      -9.683   4.090  70.639  1.00  0.00    -0.196 C  
HETATM   30  C   UNL     1     -10.384   1.516  68.257  1.00  0.00     1.525 C  
HETATM   31  N   UNL     1      -9.957   3.671  69.342  1.00  0.00     0.147 N  
HETATM   32  C   UNL     1     -10.960   2.629  69.128  1.00  0.00     5.723 C  
HETATM   33  O   UNL     1     -10.279   3.616  71.604  1.00  0.00    -0.112 OA 
HETATM   34  C   UNL     1      -9.400   4.255  68.128  1.00  0.00    -0.152 C  
HETATM   35  C   UNL     1      -8.859   3.161  67.203  1.00  0.00    -0.155 C  
HETATM   36  C   UNL     1      -9.913   2.061  66.888  1.00  0.00     1.165 C  
BRANCH  36  37
HETATM   37  N   UNL     1     -11.027   2.544  66.027  1.00  0.00     4.255 NA 
HETATM   38  C   UNL     1     -12.077   3.277  66.766  1.00  0.00    14.438 C  
HETATM   39  C   UNL     1     -11.628   4.646  67.286  1.00  0.00     4.820 C  
HETATM   40  C   UNL     1     -11.075   5.517  66.160  1.00  0.00     0.191 C  
HETATM   41  C   UNL     1     -10.051   4.758  65.322  1.00  0.00    -0.054 C  
HETATM   42  C   UNL     1     -10.600   3.394  64.893  1.00  0.00     0.340 C  
ENDBRANCH  36  37
ENDBRANCH  28  29
ENDBRANCH  21  28
BRANCH  22  43
HETATM   43  C   UNL     1     -10.838  14.122  64.183  1.00  0.00     0.151 C  
HETATM   44  C   UNL     1     -10.662  12.825  63.401  1.00  0.00    -0.089 C  
ENDBRANCH  22  43
ENDBRANCH   2   3
TORSDOF 5
ENDMDL
MODEL      114
REMARK 921   NORMALIZED FREE ENERGY PREDICTED BY IDOCK:   52.20 KCAL/MOL
REMARK 922        TOTAL FREE ENERGY PREDICTED BY IDOCK:   66.43 KCAL/MOL
REMARK 923 INTER-LIGAND FREE ENERGY PREDICTED BY IDOCK:   66.84 KCAL/MOL
REMARK 924 INTRA-LIGAND FREE ENERGY PREDICTED BY IDOCK:   -0.41 KCAL/MOL
REMARK 927      BINDING AFFINITY PREDICTED BY RF-SCORE:    0.00 PKD
ROOT
HETATM    1  C   UNL     1     -10.969  14.844  68.169  1.00  0.00    -0.276 C  
HETATM    2  C   UNL     1     -10.613  14.751  69.642  1.00  0.00    -0.167 C  
ENDROOT
BRANCH   2   3
HETATM    3  C   UNL     1      -9.317  14.010  69.879  1.00  0.00     1.474 A  
HETATM    4  C   UNL     1      -9.346  12.735  70.414  1.00  0.00     5.532 A  
HETATM    5  C   UNL     1     -10.534  11.891  70.722  1.00  0.00     3.947 A  
HETATM    6  N   UNL     1      -9.936  10.704  71.304  1.00  0.00     2.868 N  
HETATM    7  C   UNL     1      -8.555  10.785  71.356  1.00  0.00     6.177 A  
HETATM    8  C   UNL     1      -7.863   9.764  71.883  1.00  0.00     1.865 C  
HETATM    9  C   UNL     1      -8.166  12.087  70.763  1.00  0.00     6.931 A  
HETATM   10  N   UNL     1      -6.936  12.621  70.621  1.00  0.00     1.319 NA 
HETATM   11  C   UNL     1      -8.588   8.613  72.464  1.00  0.00    -0.115 C  
HETATM   12  C   UNL     1      -9.928   8.547  72.365  1.00  0.00    -0.365 C  
HETATM   13  C   UNL     1      -6.884  13.870  70.059  1.00  0.00     0.176 A  
HETATM   14  C   UNL     1      -5.663  14.539  69.882  1.00  0.00    -0.114 A  
HETATM   15  C   UNL     1     -10.692   9.646  71.718  1.00  0.00     0.260 C  
HETATM   16  C   UNL     1     -10.768   7.445  72.892  1.00  0.00    -0.339 C  
HETATM   17  C   UNL     1      -5.567  15.842  69.332  1.00  0.00    -0.118 A  
HETATM   18  O   UNL     1     -11.912   9.588  71.602  1.00  0.00    -0.362 OA 
HETATM   19  O   UNL     1     -10.075   6.495  73.716  1.00  0.00    -0.217 OA 
HETATM   20  C   UNL     1      -8.739   6.439  73.876  1.00  0.00    -0.125 C  
HETATM   21  C   UNL     1      -6.719  16.495  68.914  1.00  0.00    -0.179 A  
HETATM   22  C   UNL     1      -7.840   7.509  73.177  1.00  0.00    -0.102 C  
HETATM   23  H   UNL     1      -6.575   6.154  72.624  1.00  0.00     0.000 HD 
HETATM   24  O   UNL     1      -8.257   5.510  74.523  1.00  0.00    -0.106 OA 
HETATM   25  C   UNL     1      -7.932  15.827  69.006  1.00  0.00    -0.214 A  
HETATM   26  O   UNL     1      -7.045   6.848  72.176  1.00  0.00    -0.072 OA 
HETATM   27  C   UNL     1      -8.049  14.571  69.636  1.00  0.00     0.276 A  
BRANCH  21  28
HETATM   28  O   UNL     1      -6.628  17.807  68.373  1.00  0.00    -0.190 OA 
BRANCH  28  29
HETATM   29  C   UNL     1      -6.735  17.999  66.977  1.00  0.00    -0.180 C  
HETATM   30  C   UNL     1      -8.737  20.145  64.934  1.00  0.00     1.840 C  
HETATM   31  N   UNL     1      -7.972  18.463  66.543  1.00  0.00    -0.262 N  
HETATM   32  C   UNL     1      -8.167  18.741  65.121  1.00  0.00     1.982 C  
HETATM   33  O   UNL     1      -5.813  17.800  66.189  1.00  0.00    -0.178 OA 
HETATM   34  C   UNL     1      -9.160  18.610  67.374  1.00  0.00    -0.279 C  
HETATM   35  C   UNL     1      -9.792  19.990  67.172  1.00  0.00    -0.563 C  
HETATM   36  C   UNL     1     -10.084  20.308  65.677  1.00  0.00    -0.063 C  
BRANCH  36  37
HETATM   37  N   UNL     1     -11.181  19.479  65.104  1.00  0.00    -0.009 NA 
HETATM   38  C   UNL     1     -12.124  18.957  66.116  1.00  0.00     4.384 C  
HETATM   39  C   UNL     1     -13.009  20.033  66.751  1.00  0.00     5.722 C  
HETATM   40  C   UNL     1     -13.766  20.832  65.693  1.00  0.00    10.715 C  
HETATM   41  C   UNL     1     -12.831  21.312  64.585  1.00  0.00     9.104 C  
HETATM   42  C   UNL     1     -11.975  20.157  64.056  1.00  0.00     7.060 C  
ENDBRANCH  36  37
ENDBRANCH  28  29
ENDBRANCH  21  28
BRANCH  22  43
HETATM   43  C   UNL     1      -6.847   8.040  74.241  1.00  0.00    -0.154 C  
HETATM   44  C   UNL     1      -5.371   7.891  73.888  1.00  0.00    -0.049 C  
ENDBRANCH  22  43
ENDBRANCH   2   3
TORSDOF 5
ENDMDL
MODEL      115
REMARK 921   NORMALIZED FREE ENERGY PREDICTED BY IDOCK:   61.56 KCAL/MOL
REMARK 922        TOTAL FREE ENERGY PREDICTED BY IDOCK:   78.53 KCAL/MOL
REMARK 923 INTER-LIGAND FREE ENERGY PREDICTED BY IDOCK:   72.62 KCAL/MOL
REMARK 924 INTRA-LIGAND FREE ENERGY PREDICTED BY IDOCK:    5.91 KCAL/MOL
REMARK 927      BINDING AFFINITY PREDICTED BY RF-SCORE:    0.00 PKD
ROOT
HETATM    1  C   UNL     1      -8.825  11.146  69.655  1.00  0.00     0.694 C  
HETATM    2  C   UNL     1     -10.199  10.682  70.101  1.00  0.00     0.222 C  
ENDROOT
BRANCH   2   3
HETATM    3  C   UNL     1     -10.910  11.708  70.953  1.00  0.00     2.633 A  
HETATM    4  C   UNL     1     -10.660  13.054  70.755  1.00  0.00     3.732 A  
HETATM    5  C   UNL     1      -9.819  13.690  69.703  1.00  0.00     1.060 A  
HETATM    6  N   UNL     1      -9.901  15.098  70.043  1.00  0.00    -0.078 N  
HETATM    7  C   UNL     1     -10.689  15.324  71.158  1.00  0.00     0.063 A  
HETATM    8  C   UNL     1     -10.847  16.580  71.601  1.00  0.00     1.108 C  
HETATM    9  C   UNL     1     -11.200  14.007  71.612  1.00  0.00     1.859 A  
HETATM   10  N   UNL     1     -11.982  13.720  72.672  1.00  0.00     0.860 NA 
HETATM   11  C   UNL     1     -10.119  17.684  70.937  1.00  0.00     3.037 C  
HETATM   12  C   UNL     1      -9.391  17.438  69.834  1.00  0.00     1.280 C  
HETATM   13  C   UNL     1     -12.271  12.394  72.863  1.00  0.00     4.162 A  
HETATM   14  C   UNL     1     -13.054  11.969  73.947  1.00  0.00    10.339 A  
HETATM   15  C   UNL     1      -9.272  16.056  69.300  1.00  0.00    -0.243 C  
HETATM   16  C   UNL     1      -8.629  18.457  69.072  1.00  0.00    -0.035 C  
HETATM   17  C   UNL     1     -13.352  10.606  74.199  1.00  0.00    11.810 A  
HETATM   18  O   UNL     1      -8.628  15.822  68.283  1.00  0.00    -0.164 OA 
HETATM   19  O   UNL     1      -8.545  19.746  69.698  1.00  0.00     0.157 OA 
HETATM   20  C   UNL     1      -9.241  20.124  70.787  1.00  0.00     1.773 C  
HETATM   21  C   UNL     1     -12.883   9.631  73.330  1.00  0.00     2.462 A  
HETATM   22  C   UNL     1     -10.178  19.090  71.491  1.00  0.00     3.327 C  
HETATM   23  H   UNL     1     -11.576  20.414  71.679  1.00  0.00     0.000 HD 
HETATM   24  O   UNL     1      -9.164  21.292  71.165  1.00  0.00     2.189 OA 
HETATM   25  C   UNL     1     -12.171  10.029  72.207  1.00  0.00     0.283 A  
HETATM   26  O   UNL     1     -11.539  19.531  71.331  1.00  0.00     6.312 OA 
HETATM   27  C   UNL     1     -11.790  11.370  71.999  1.00  0.00     2.201 A  
BRANCH  21  28
HETATM   28  O   UNL     1     -13.170   8.262  73.586  1.00  0.00     1.201 OA 
BRANCH  28  29
HETATM   29  C   UNL     1     -13.269   7.353  72.508  1.00  0.00     0.467 C  
HETATM   30  C   UNL     1     -11.196   4.683  71.342  1.00  0.00     0.933 C  
HETATM   31  N   UNL     1     -12.054   6.870  72.036  1.00  0.00    -0.308 N  
HETATM   32  C   UNL     1     -12.052   5.886  70.955  1.00  0.00     0.747 C  
HETATM   33  O   UNL     1     -14.337   6.983  72.024  1.00  0.00    -0.328 OA 
HETATM   34  C   UNL     1     -10.738   7.336  72.453  1.00  0.00    -0.246 C  
HETATM   35  C   UNL     1      -9.831   6.152  72.799  1.00  0.00    -0.176 C  
HETATM   36  C   UNL     1      -9.740   5.105  71.651  1.00  0.00    -0.163 C  
BRANCH  36  37
HETATM   37  N   UNL     1      -9.002   5.605  70.458  1.00  0.00    -0.136 NA 
HETATM   38  C   UNL     1      -8.676   4.551  69.475  1.00  0.00    -0.082 C  
HETATM   39  C   UNL     1      -9.896   4.001  68.729  1.00  0.00    -0.045 C  
HETATM   40  C   UNL     1     -10.690   5.118  68.056  1.00  0.00     0.114 C  
HETATM   41  C   UNL     1     -10.968   6.264  69.025  1.00  0.00    -0.437 C  
HETATM   42  C   UNL     1      -9.683   6.701  69.734  1.00  0.00    -0.159 C  
ENDBRANCH  36  37
ENDBRANCH  28  29
ENDBRANCH  21  28
BRANCH  22  43
HETATM   43  C   UNL     1      -9.875  19.156  73.010  1.00  0.00     4.628 C  
HETATM   44  C   UNL     1     -11.011  19.685  73.879  1.00  0.00     5.569 C  
ENDBRANCH  22  43
ENDBRANCH   2   3
TORSDOF 5
ENDMDL
MODEL      116
REMARK 921   NORMALIZED FREE ENERGY PREDICTED BY IDOCK:   62.21 KCAL/MOL
REMARK 922        TOTAL FREE ENERGY PREDICTED BY IDOCK:   79.36 KCAL/MOL
REMARK 923 INTER-LIGAND FREE ENERGY PREDICTED BY IDOCK:   73.67 KCAL/MOL
REMARK 924 INTRA-LIGAND FREE ENERGY PREDICTED BY IDOCK:    5.70 KCAL/MOL
REMARK 927      BINDING AFFINITY PREDICTED BY RF-SCORE:    0.00 PKD
ROOT
HETATM    1  C   UNL     1     -13.952  11.896  70.950  1.00  0.00     2.561 C  
HETATM    2  C   UNL     1     -13.296  10.637  70.412  1.00  0.00     0.220 C  
ENDROOT
BRANCH   2   3
HETATM    3  C   UNL     1     -12.809  10.798  68.990  1.00  0.00     1.262 A  
HETATM    4  C   UNL     1     -12.232   9.724  68.339  1.00  0.00     2.387 A  
HETATM    5  C   UNL     1     -12.094   8.320  68.819  1.00  0.00     2.933 A  
HETATM    6  N   UNL     1     -11.367   7.686  67.735  1.00  0.00     0.473 N  
HETATM    7  C   UNL     1     -11.084   8.568  66.707  1.00  0.00     0.845 A  
HETATM    8  C   UNL     1     -10.402   8.127  65.640  1.00  0.00     1.803 C  
HETATM    9  C   UNL     1     -11.659   9.884  67.082  1.00  0.00     1.467 A  
HETATM   10  N   UNL     1     -11.612  11.052  66.411  1.00  0.00    -0.038 NA 
HETATM   11  C   UNL     1      -9.903   6.734  65.617  1.00  0.00     0.790 C  
HETATM   12  C   UNL     1     -10.226   5.892  66.614  1.00  0.00    -0.258 C  
HETATM   13  C   UNL     1     -12.212  12.121  67.024  1.00  0.00     0.406 A  
HETATM   14  C   UNL     1     -12.207  13.395  66.436  1.00  0.00    -0.435 A  
HETATM   15  C   UNL     1     -11.042   6.361  67.765  1.00  0.00    -0.276 C  
HETATM   16  C   UNL     1      -9.803   4.473  66.702  1.00  0.00    -0.225 C  
HETATM   17  C   UNL     1     -12.789  14.533  67.049  1.00  0.00     1.073 A  
HETATM   18  O   UNL     1     -11.361   5.596  68.670  1.00  0.00     0.132 OA 
HETATM   19  O   UNL     1      -8.832   4.069  65.725  1.00  0.00    -0.117 OA 
HETATM   20  C   UNL     1      -8.444   4.808  64.667  1.00  0.00    -0.139 C  
HETATM   21  C   UNL     1     -13.425  14.400  68.275  1.00  0.00     4.863 A  
HETATM   22  C   UNL     1      -9.026   6.247  64.486  1.00  0.00     0.611 C  
HETATM   23  H   UNL     1      -9.295   5.951  62.594  1.00  0.00     0.000 HD 
HETATM   24  O   UNL     1      -7.684   4.307  63.839  1.00  0.00    -0.075 OA 
HETATM   25  C   UNL     1     -13.512  13.137  68.844  1.00  0.00     4.365 A  
HETATM   26  O   UNL     1      -9.846   6.257  63.304  1.00  0.00     2.550 OA 
HETATM   27  C   UNL     1     -12.856  12.019  68.290  1.00  0.00     2.456 A  
BRANCH  21  28
HETATM   28  O   UNL     1     -14.000  15.541  68.899  1.00  0.00     3.817 OA 
BRANCH  28  29
HETATM   29  C   UNL     1     -13.662  15.854  70.235  1.00  0.00     1.659 C  
HETATM   30  C   UNL     1     -10.562  16.443  71.917  1.00  0.00     2.191 C  
HETATM   31  N   UNL     1     -12.392  15.447  70.629  1.00  0.00    -0.373 N  
HETATM   32  C   UNL     1     -11.929  15.769  71.978  1.00  0.00    -0.479 C  
HETATM   33  O   UNL     1     -14.407  16.461  71.002  1.00  0.00     1.781 OA 
HETATM   34  C   UNL     1     -11.487  14.619  69.844  1.00  0.00    -0.274 C  
HETATM   35  C   UNL     1     -10.087  15.237  69.805  1.00  0.00    -0.230 C  
HETATM   36  C   UNL     1      -9.519  15.537  71.222  1.00  0.00     2.763 C  
BRANCH  36  37
HETATM   37  N   UNL     1      -9.193  14.307  71.995  1.00  0.00     6.321 NA 
HETATM   38  C   UNL     1     -10.057  13.153  71.672  1.00  0.00    10.407 C  
HETATM   39  C   UNL     1      -9.817  12.570  70.276  1.00  0.00     3.904 C  
HETATM   40  C   UNL     1      -8.350  12.200  70.070  1.00  0.00     2.951 C  
HETATM   41  C   UNL     1      -7.425  13.343  70.480  1.00  0.00     2.568 C  
HETATM   42  C   UNL     1      -7.787  13.863  71.874  1.00  0.00     7.191 C  
ENDBRANCH  36  37
ENDBRANCH  28  29
ENDBRANCH  21  28
BRANCH  22  43
HETATM   43  C   UNL     1      -7.832   7.192  64.196  1.00  0.00    -0.113 C  
HETATM   44  C   UNL     1      -6.810   7.315  65.320  1.00  0.00    -0.051 C  
ENDBRANCH  22  43
ENDBRANCH   2   3
TORSDOF 5
ENDMDL
MODEL      117
REMARK 921   NORMALIZED FREE ENERGY PREDICTED BY IDOCK:   92.00 KCAL/MOL
REMARK 922        TOTAL FREE ENERGY PREDICTED BY IDOCK:  117.86 KCAL/MOL
REMARK 923 INTER-LIGAND FREE ENERGY PREDICTED BY IDOCK:  116.07 KCAL/MOL
REMARK 924 INTRA-LIGAND FREE ENERGY PREDICTED BY IDOCK:    1.79 KCAL/MOL
REMARK 927      BINDING AFFINITY PREDICTED BY RF-SCORE:    0.00 PKD
ROOT
HETATM    1  C   UNL     1     -10.680  10.920  73.619  1.00  0.00    16.908 C  
HETATM    2  C   UNL     1     -11.016  12.295  73.073  1.00  0.00    13.819 C  
ENDROOT
BRANCH   2   3
HETATM    3  C   UNL     1     -11.032  12.332  71.563  1.00  0.00     5.399 A  
HETATM    4  C   UNL     1     -10.339  11.374  70.847  1.00  0.00     3.669 A  
HETATM    5  C   UNL     1      -9.611  10.182  71.366  1.00  0.00     2.339 A  
HETATM    6  N   UNL     1      -9.052   9.604  70.159  1.00  0.00    -0.237 N  
HETATM    7  C   UNL     1      -9.382  10.329  69.028  1.00  0.00    -0.189 A  
HETATM    8  C   UNL     1      -8.922   9.921  67.836  1.00  0.00    -0.129 C  
HETATM    9  C   UNL     1     -10.232  11.464  69.463  1.00  0.00     0.250 A  
HETATM   10  N   UNL     1     -10.769  12.455  68.723  1.00  0.00    -0.228 NA 
HETATM   11  C   UNL     1      -8.016   8.754  67.764  1.00  0.00    -0.106 C  
HETATM   12  C   UNL     1      -7.744   8.048  68.875  1.00  0.00    -0.104 C  
HETATM   13  C   UNL     1     -11.491  13.395  69.410  1.00  0.00    -0.274 A  
HETATM   14  C   UNL     1     -12.078  14.487  68.753  1.00  0.00    -0.256 A  
HETATM   15  C   UNL     1      -8.309   8.459  70.188  1.00  0.00    -0.120 C  
HETATM   16  C   UNL     1      -6.865   6.855  68.933  1.00  0.00    -0.072 C  
HETATM   17  C   UNL     1     -12.808  15.496  69.429  1.00  0.00     0.443 A  
HETATM   18  O   UNL     1      -8.086   7.811  71.205  1.00  0.00    -0.091 OA 
HETATM   19  O   UNL     1      -6.133   6.582  67.729  1.00  0.00    -0.027 OA 
HETATM   20  C   UNL     1      -6.329   7.199  66.547  1.00  0.00    -0.047 C  
HETATM   21  C   UNL     1     -12.990  15.407  70.802  1.00  0.00    -0.453 A  
HETATM   22  C   UNL     1      -7.383   8.348  66.451  1.00  0.00    -0.083 C  
HETATM   23  H   UNL     1      -8.061   7.650  64.780  1.00  0.00     0.000 HD 
HETATM   24  O   UNL     1      -5.712   6.801  65.560  1.00  0.00    -0.029 OA 
HETATM   25  C   UNL     1     -12.486  14.297  71.467  1.00  0.00    -0.435 A  
HETATM   26  O   UNL     1      -8.459   7.905  65.604  1.00  0.00    -0.138 OA 
HETATM   27  C   UNL     1     -11.680  13.339  70.820  1.00  0.00     0.188 A  
BRANCH  21  28
HETATM   28  O   UNL     1     -13.711  16.423  71.485  1.00  0.00     0.760 OA 
BRANCH  28  29
HETATM   29  C   UNL     1     -13.442  17.782  71.205  1.00  0.00    15.969 C  
HETATM   30  C   UNL     1     -10.702  19.482  69.658  1.00  0.00     1.081 C  
HETATM   31  N   UNL     1     -12.093  18.111  71.138  1.00  0.00     7.535 N  
HETATM   32  C   UNL     1     -11.710  19.482  70.804  1.00  0.00     8.946 C  
HETATM   33  O   UNL     1     -14.316  18.624  71.008  1.00  0.00    23.329 OA 
HETATM   34  C   UNL     1     -10.988  17.223  71.475  1.00  0.00     1.676 C  
HETATM   35  C   UNL     1      -9.927  17.238  70.370  1.00  0.00     1.706 C  
HETATM   36  C   UNL     1      -9.435  18.673  70.024  1.00  0.00     1.277 C  
BRANCH  36  37
HETATM   37  N   UNL     1      -8.629  19.295  71.111  1.00  0.00     3.595 NA 
HETATM   38  C   UNL     1      -7.626  18.386  71.704  1.00  0.00     7.201 C  
HETATM   39  C   UNL     1      -6.461  18.052  70.767  1.00  0.00     1.404 C  
HETATM   40  C   UNL     1      -5.780  19.317  70.249  1.00  0.00    -0.268 C  
HETATM   41  C   UNL     1      -6.800  20.316  69.709  1.00  0.00    -0.058 C  
HETATM   42  C   UNL     1      -7.931  20.539  70.717  1.00  0.00     2.089 C  
ENDBRANCH  36  37
ENDBRANCH  28  29
ENDBRANCH  21  28
BRANCH  22  43
HETATM   43  C   UNL     1      -6.707   9.531  65.714  1.00  0.00    -0.083 C  
HETATM   44  C   UNL     1      -6.320   9.261  64.264  1.00  0.00    -0.085 C  
ENDBRANCH  22  43
ENDBRANCH   2   3
TORSDOF 5
ENDMDL
